TITL C-3036483-1610-336 -2.39375327505395e-06 3375 -353.859074778258 0 0 60 (S4) n - 1
REM
REM in /home/bkarasulu/work/CARBON/AIRSS/Generating-Clusters/REBO/Higher-Symm/Only-C60
REM
REM
REM
REM
REM
REM ./C.cell (a2850807a9bf4ad07a5b6933b78d9264)
REM AIRSS Version 0.9.1 bugfix July 2018 build 013d7b7c2542+ Fri, 06 Jul 2018 19:26:36 +0100
REM compiler GCC version 9.2.1 20190827 (Red Hat 9.2.1-1)
REM options -cpp -mtune=generic -march=x86-64 -g -O0 -fpre-include=/usr/include/finclude/math-vector-fortran.h
REM seed -27152053 -809854205 -1737870322 134354562 374700913 807318776 -549337458 -1774440228 309815567 -1175704010 293907490 -1631841541 304228367 288525973 1233177081 -688458025 -307297255 -378089745 1022557539 -1730209910 1912656752 1621171065 153284630 2117143404 1087854433 2141910860 602820243 807575367 1676015050 797422287 1867262645 831200890 614512513
REM
CELL 1.54180   15.00000   15.00000   15.00000   90.00000   90.00000   90.00000
LATT -1
SFAC C  
C      1  0.5417990000000  0.4089200000000  0.2847800000000 1.0
C      1  0.7152200000000  0.5910800000000  0.5417990000000 1.0
C      1  0.4582010000000  0.4089210000000  0.7152200000000 1.0
C      1  0.2847800000000  0.5910790000000  0.4582010000000 1.0
C      1  0.5618420000000  0.3309620000000  0.4241600000000 1.0
C      1  0.5758390000000  0.6690380000000  0.5618420000000 1.0
C      1  0.4381580000000  0.3309620000000  0.5758390000000 1.0
C      1  0.4241600000000  0.6690370000000  0.4381580000000 1.0
C      1  0.2800830000000  0.4259580000000  0.3746080000000 1.0
C      1  0.6253920000000  0.5740410000000  0.2800830000000 1.0
C      1  0.7199170000000  0.4259590000000  0.6253920000000 1.0
C      1  0.3746080000000  0.5740420000000  0.7199170000000 1.0
C      1  0.3912970000000  0.4875950000000  0.4554320000000 1.0
C      1  0.5445680000000  0.5124050000000  0.3912970000000 1.0
C      1  0.6087030000000  0.4875940000000  0.5445680000000 1.0
C      1  0.4554320000000  0.5124050000000  0.6087030000000 1.0
C      1  0.6899180000000  0.6141130000000  0.4333140000000 1.0
C      1  0.5666860000000  0.3858870000000  0.6899180000000 1.0
C      1  0.3100820000000  0.6141130000000  0.5666860000000 1.0
C      1  0.4333140000000  0.3858870000000  0.3100820000000 1.0
C      1  0.4677090000000  0.4636440000000  0.2334490000000 1.0
C      1  0.7665510000000  0.5363560000000  0.4677090000000 1.0
C      1  0.5322910000000  0.4636440000000  0.7665510000000 1.0
C      1  0.2334490000000  0.5363560000000  0.5322910000000 1.0
C      1  0.6192870000000  0.3442080000000  0.5197150000000 1.0
C      1  0.4802850000000  0.6557920000000  0.6192870000000 1.0
C      1  0.3807130000000  0.3442080000000  0.4802850000000 1.0
C      1  0.5197150000000  0.6557920000000  0.3807130000000 1.0
C      1  0.6856870000000  0.4162460000000  0.5288450000000 1.0
C      1  0.4711540000000  0.5837530000000  0.6856870000000 1.0
C      1  0.3143130000000  0.4162470000000  0.4711540000000 1.0
C      1  0.5288450000000  0.5837540000000  0.3143130000000 1.0
C      1  0.6799430000000  0.4510510000000  0.3712060000000 1.0
C      1  0.6287940000000  0.5489490000000  0.6799430000000 1.0
C      1  0.3200570000000  0.4510510000000  0.6287940000000 1.0
C      1  0.3712060000000  0.5489490000000  0.3200570000000 1.0
C      1  0.6063010000000  0.6710320000000  0.4522730000000 1.0
C      1  0.5477270000000  0.3289680000000  0.6063010000000 1.0
C      1  0.3936990000000  0.6710320000000  0.5477270000000 1.0
C      1  0.4522730000000  0.3289680000000  0.3936990000000 1.0
C      1  0.4846360000000  0.7396870000000  0.5497020000000 1.0
C      1  0.4502980000000  0.2603130000000  0.4846360000000 1.0
C      1  0.5153640000000  0.7396850000000  0.4503000000000 1.0
C      1  0.5497000000000  0.2603140000000  0.5153640000000 1.0
C      1  0.4857020000000  0.4451620000000  0.4491060000000 1.0
C      1  0.5508940000000  0.5548380000000  0.4857020000000 1.0
C      1  0.5142980000000  0.4451620000000  0.5508940000000 1.0
C      1  0.4491060000000  0.5548380000000  0.5142980000000 1.0
C      1  0.3950000000000  0.3932630000000  0.6480510000000 1.0
C      1  0.3519480000000  0.6067370000000  0.3950000000000 1.0
C      1  0.6050000000000  0.3932630000000  0.3519490000000 1.0
C      1  0.6480510000000  0.6067370000000  0.6050000000000 1.0
C      1  0.3464590000000  0.4543240000000  0.3190430000000 1.0
C      1  0.6809570000000  0.5456760000000  0.3464590000000 1.0
C      1  0.6535410000000  0.4543240000000  0.6809570000000 1.0
C      1  0.3190430000000  0.5456760000000  0.6535410000000 1.0
C      1  0.5499350000000  0.5519390000000  0.7353260000000 1.0
C      1  0.2646740000000  0.4480610000000  0.5499350000000 1.0
C      1  0.4500650000000  0.5519390000000  0.2646740000000 1.0
C      1  0.7353260000000  0.4480610000000  0.4500650000000 1.0
END
