TITL C-3036483-1610-308 -1.88584133078697e-05 3375 -336.410453769593 0 0 60 (C1) n - 1
REM
REM in /home/bkarasulu/work/CARBON/AIRSS/Generating-Clusters/REBO/Higher-Symm/Only-C60
REM
REM
REM
REM
REM
REM ./C.cell (a2850807a9bf4ad07a5b6933b78d9264)
REM AIRSS Version 0.9.1 bugfix July 2018 build 013d7b7c2542+ Fri, 06 Jul 2018 19:26:36 +0100
REM compiler GCC version 9.2.1 20190827 (Red Hat 9.2.1-1)
REM options -cpp -mtune=generic -march=x86-64 -g -O0 -fpre-include=/usr/include/finclude/math-vector-fortran.h
REM seed -923171234 43943440 367748365 -1224329033 -1526091973 1194228144 -1166856407 -382327721 -1531116581 941429675 1074892406 -1172367552 -1356405145 -921604367 533096106 -74387104 -1481980188 -826059389 2035743881 -1924779718 364175671 -719505206 1154920096 2022052519 1264696357 884303449 -1311687148 604166748 790452814 1462529569 -610077982 1551561171 -1239295515
REM
CELL 1.54180   15.00000   15.00000   15.00000   90.00000   90.00000   90.00000
LATT -1
SFAC C  
C      1  0.6527220000000  0.7343070000000  0.5251190000000 1.0
C      1  0.7338560000000  0.5428100000000  0.6433270000000 1.0
C      1  0.5414360000000  0.6504650000000  0.7288820000000 1.0
C      1  0.3470320000000  0.7358370000000  0.4698310000000 1.0
C      1  0.3455100000000  0.2658960000000  0.5296490000000 1.0
C      1  0.6535500000000  0.2641570000000  0.4706310000000 1.0
C      1  0.2643720000000  0.5287470000000  0.3465160000000 1.0
C      1  0.2673480000000  0.4737620000000  0.6544650000000 1.0
C      1  0.7343510000000  0.4702460000000  0.3445140000000 1.0
C      1  0.4708550000000  0.6525860000000  0.2632570000000 1.0
C      1  0.4730180000000  0.3464470000000  0.7349440000000 1.0
C      1  0.5275340000000  0.3449950000000  0.2644510000000 1.0
C      1  0.5452860000000  0.7094370000000  0.6472520000000 1.0
C      1  0.6520100000000  0.5343890000000  0.7099040000000 1.0
C      1  0.7026390000000  0.6426440000000  0.5552570000000 1.0
C      1  0.4548120000000  0.7064990000000  0.3498600000000 1.0
C      1  0.5445950000000  0.2921200000000  0.3514890000000 1.0
C      1  0.4549830000000  0.2926510000000  0.6485110000000 1.0
C      1  0.3509030000000  0.5448230000000  0.2924630000000 1.0
C      1  0.6474400000000  0.4533260000000  0.2913390000000 1.0
C      1  0.3545370000000  0.4563480000000  0.7070260000000 1.0
C      1  0.2933600000000  0.6489850000000  0.4539650000000 1.0
C      1  0.7070370000000  0.3507940000000  0.4534410000000 1.0
C      1  0.2932590000000  0.3533450000000  0.5463970000000 1.0
C      1  0.3490770000000  0.5062210000000  0.5843940000000 1.0
C      1  0.5045070000000  0.5837400000000  0.3455630000000 1.0
C      1  0.5847580000000  0.3465300000000  0.5043580000000 1.0
C      1  0.6522350000000  0.5038370000000  0.4137500000000 1.0
C      1  0.6540480000000  0.4976410000000  0.5825540000000 1.0
C      1  0.3468750000000  0.4954650000000  0.4153740000000 1.0
C      1  0.5000560000000  0.5847630000000  0.6499720000000 1.0
C      1  0.4943550000000  0.4146340000000  0.3463520000000 1.0
C      1  0.5061760000000  0.4147950000000  0.6520510000000 1.0
C      1  0.4154020000000  0.3471370000000  0.4953660000000 1.0
C      1  0.4162110000000  0.6537960000000  0.5033670000000 1.0
C      1  0.5859680000000  0.6525420000000  0.4929370000000 1.0
C      1  0.5657920000000  0.4986960000000  0.3467450000000 1.0
C      1  0.3490200000000  0.5673230000000  0.4992610000000 1.0
C      1  0.5001210000000  0.3475070000000  0.5661490000000 1.0
C      1  0.4363580000000  0.5008700000000  0.6506640000000 1.0
C      1  0.5691940000000  0.4978800000000  0.6497950000000 1.0
C      1  0.4328960000000  0.4996270000000  0.3475360000000 1.0
C      1  0.6490650000000  0.5656460000000  0.4976150000000 1.0
C      1  0.3489850000000  0.4344110000000  0.5005340000000 1.0
C      1  0.6525090000000  0.4328550000000  0.4990930000000 1.0
C      1  0.4999420000000  0.3479460000000  0.4332540000000 1.0
C      1  0.5004500000000  0.6515500000000  0.4318510000000 1.0
C      1  0.5008570000000  0.6532310000000  0.5647460000000 1.0
C      1  0.2757620000000  0.6329810000000  0.3573320000000 1.0
C      1  0.6318620000000  0.3564030000000  0.2748240000000 1.0
C      1  0.6414110000000  0.2748500000000  0.3665220000000 1.0
C      1  0.3581610000000  0.7240490000000  0.3656950000000 1.0
C      1  0.7041870000000  0.6495890000000  0.6686500000000 1.0
C      1  0.7234220000000  0.3661090000000  0.3565040000000 1.0
C      1  0.2770250000000  0.3694160000000  0.6432580000000 1.0
C      1  0.3690260000000  0.3595090000000  0.7244510000000 1.0
C      1  0.3666730000000  0.6414910000000  0.2747940000000 1.0
C      1  0.3577660000000  0.2770110000000  0.6337910000000 1.0
C      1  0.6369940000000  0.7312830000000  0.6272410000000 1.0
C      1  0.6304060000000  0.6230520000000  0.7511650000000 1.0
END
