TITL C-3036480-97-1171 1.02096841048845e-05 3375 -333.953817599624 0 0 60 (C3) n - 1
REM
REM in /home/bkarasulu/work/CARBON/AIRSS/Generating-Clusters/REBO/Higher-Symm/Only-C60
REM
REM
REM
REM
REM
REM ./C.cell (a2850807a9bf4ad07a5b6933b78d9264)
REM AIRSS Version 0.9.1 bugfix July 2018 build 013d7b7c2542+ Fri, 06 Jul 2018 19:26:36 +0100
REM compiler GCC version 9.2.1 20190827 (Red Hat 9.2.1-1)
REM options -cpp -mtune=generic -march=x86-64 -g -O0 -fpre-include=/usr/include/finclude/math-vector-fortran.h
REM seed -739844473 -1513667356 120222333 -1999801114 -114063401 -2046761088 -873886578 -807153002 445872553 -189776099 -1483448253 129429466 1022504519 758765852 -1461805307 -574166177 -2096635722 -1878032805 309972477 -515417759 463311079 811125063 -22404673 -2071487534 -1143022829 -1821549261 957990895 263421529 -155658164 -428607979 -1686568596 -65282033 467663327
REM
CELL 1.54180   15.00000   15.00000   15.00000   90.00000   90.00000   90.00000
LATT -1
SFAC C  
C      1  0.4939690000000  0.3296450000000  0.3867410000000 1.0
C      1  0.4049230000000  0.3296490000000  0.5618500000000 1.0
C      1  0.6010950000000  0.3296440000000  0.5514130000000 1.0
C      1  0.3417580000000  0.6576250000000  0.5906430000000 1.0
C      1  0.6576280000000  0.6576160000000  0.5917210000000 1.0
C      1  0.5006270000000  0.6576180000000  0.3176310000000 1.0
C      1  0.4889100000000  0.6131770000000  0.6638760000000 1.0
C      1  0.6474720000000  0.6131700000000  0.4276670000000 1.0
C      1  0.3636280000000  0.6131780000000  0.4084530000000 1.0
C      1  0.6161220000000  0.4008730000000  0.4754730000000 1.0
C      1  0.4206930000000  0.4008780000000  0.4116980000000 1.0
C      1  0.4631770000000  0.4008780000000  0.6128310000000 1.0
C      1  0.2720330000000  0.4498330000000  0.3798080000000 1.0
C      1  0.5098910000000  0.4498290000000  0.7575210000000 1.0
C      1  0.7180720000000  0.4498200000000  0.3626730000000 1.0
C      1  0.5232100000000  0.5654290000000  0.7511240000000 1.0
C      1  0.7058780000000  0.5654210000000  0.3543390000000 1.0
C      1  0.2709170000000  0.5654340000000  0.3945360000000 1.0
C      1  0.4243690000000  0.4906600000000  0.6216620000000 1.0
C      1  0.6431780000000  0.4906530000000  0.5046670000000 1.0
C      1  0.4324520000000  0.4906580000000  0.3736700000000 1.0
C      1  0.5975100000000  0.2895630000000  0.3942170000000 1.0
C      1  0.3596240000000  0.2895700000000  0.4684430000000 1.0
C      1  0.5428480000000  0.2895660000000  0.6373450000000 1.0
C      1  0.4282170000000  0.5897580000000  0.3175400000000 1.0
C      1  0.3778810000000  0.5897620000000  0.6533960000000 1.0
C      1  0.6939090000000  0.5897520000000  0.5290610000000 1.0
C      1  0.6873170000000  0.6696900000000  0.6775950000000 1.0
C      1  0.5601510000000  0.6696890000000  0.2489820000000 1.0
C      1  0.2525450000000  0.6697000000000  0.5734180000000 1.0
C      1  0.5687890000000  0.4140470000000  0.5992780000000 1.0
C      1  0.5515780000000  0.4140460000000  0.3907870000000 1.0
C      1  0.3796260000000  0.4140520000000  0.5099370000000 1.0
C      1  0.7103160000000  0.5033370000000  0.6987030000000 1.0
C      1  0.5669230000000  0.5033380000000  0.2185100000000 1.0
C      1  0.2227640000000  0.5033520000000  0.5827890000000 1.0
C      1  0.4150900000000  0.6999490000000  0.5452010000000 1.0
C      1  0.5816100000000  0.6999450000000  0.5509360000000 1.0
C      1  0.5033160000000  0.6999450000000  0.4038580000000 1.0
C      1  0.4576180000000  0.5644070000000  0.4509750000000 1.0
C      1  0.4787370000000  0.5644080000000  0.5612160000000 1.0
C      1  0.5636490000000  0.5644050000000  0.4878060000000 1.0
C      1  0.5136160000000  0.2300460000000  0.5614200000000 1.0
C      1  0.5463700000000  0.2300440000000  0.4574950000000 1.0
C      1  0.4399910000000  0.2300470000000  0.4810910000000 1.0
C      1  0.5818050000000  0.6922850000000  0.4552690000000 1.0
C      1  0.4203690000000  0.6922890000000  0.4515210000000 1.0
C      1  0.4978410000000  0.6922880000000  0.5932040000000 1.0
C      1  0.6282680000000  0.4597080000000  0.6488130000000 1.0
C      1  0.5647400000000  0.4597080000000  0.3145110000000 1.0
C      1  0.3069910000000  0.4597170000000  0.5366790000000 1.0
C      1  0.3185460000000  0.3599120000000  0.4050600000000 1.0
C      1  0.5084990000000  0.3599090000000  0.7046130000000 1.0
C      1  0.6729430000000  0.3599020000000  0.3903320000000 1.0
C      1  0.2281540000000  0.5020480000000  0.4697940000000 1.0
C      1  0.6097630000000  0.5020390000000  0.7505310000000 1.0
C      1  0.6620840000000  0.5020340000000  0.2796770000000 1.0
C      1  0.3397300000000  0.5180210000000  0.3189350000000 1.0
C      1  0.4233290000000  0.5180220000000  0.7293300000000 1.0
C      1  0.7369420000000  0.5180110000000  0.4517340000000 1.0
END
