TITL C-3036481-494-228 0.0161929319703433 3375 -335.05506460006 0 0 60 (C1) n - 1
REM
REM in /home/bkarasulu/work/CARBON/AIRSS/Generating-Clusters/REBO/Higher-Symm/Only-C60
REM
REM
REM
REM
REM
REM ./C.cell (a2850807a9bf4ad07a5b6933b78d9264)
REM AIRSS Version 0.9.1 bugfix July 2018 build 013d7b7c2542+ Fri, 06 Jul 2018 19:26:36 +0100
REM compiler GCC version 9.2.1 20190827 (Red Hat 9.2.1-1)
REM options -cpp -mtune=generic -march=x86-64 -g -O0 -fpre-include=/usr/include/finclude/math-vector-fortran.h
REM seed -1216470645 -1139644989 -33925503 -1082577672 878212541 -1951322508 307195863 53025276 -1515956491 4182327 927651800 -21765322 2125827599 236839232 -387455882 1700240553 -657429701 -1311951949 -187702931 636694510 -732157830 -477876407 1188147935 1604438566 903510267 -320341076 1350681848 78342229 782273523 -6240738 -745693765 -1533852113 -178346236
REM
CELL 1.54180   15.00000   15.00000   15.00000   90.00000   90.00000   90.00000
LATT -1
SFAC C  
C      1  0.4340570000000  0.5120550000000  0.6854450000000 1.0
C      1  0.5642710000000  0.4872220000000  0.6884660000000 1.0
C      1  0.2415210000000  0.5097050000000  0.4878000000000 1.0
C      1  0.7572700000000  0.4896120000000  0.4896850000000 1.0
C      1  0.6729980000000  0.3841880000000  0.6181450000000 1.0
C      1  0.3263490000000  0.6177270000000  0.6191330000000 1.0
C      1  0.4196850000000  0.3250910000000  0.1789270000000 1.0
C      1  0.5803470000000  0.6745780000000  0.1782710000000 1.0
C      1  0.4057950000000  0.2714170000000  0.3462370000000 1.0
C      1  0.5935200000000  0.7282690000000  0.3455890000000 1.0
C      1  0.5805190000000  0.3053260000000  0.4616320000000 1.0
C      1  0.4191820000000  0.6932240000000  0.4631360000000 1.0
C      1  0.6745310000000  0.5559610000000  0.4097140000000 1.0
C      1  0.3250530000000  0.4427180000000  0.4090500000000 1.0
C      1  0.6021900000000  0.3193880000000  0.6697600000000 1.0
C      1  0.3980270000000  0.6811970000000  0.6723520000000 1.0
C      1  0.5028100000000  0.3520800000000  0.6999260000000 1.0
C      1  0.4976610000000  0.6461820000000  0.7003190000000 1.0
C      1  0.4781200000000  0.3521710000000  0.4717170000000 1.0
C      1  0.5222540000000  0.6476740000000  0.4719720000000 1.0
C      1  0.5870340000000  0.7089370000000  0.2584540000000 1.0
C      1  0.4127000000000  0.2908910000000  0.2591570000000 1.0
C      1  0.2880070000000  0.5782140000000  0.4484070000000 1.0
C      1  0.7113120000000  0.4216290000000  0.4481880000000 1.0
C      1  0.6040210000000  0.6952750000000  0.4324560000000 1.0
C      1  0.3959350000000  0.3042950000000  0.4332700000000 1.0
C      1  0.4337480000000  0.6243090000000  0.3754950000000 1.0
C      1  0.5661920000000  0.3746840000000  0.3745670000000 1.0
C      1  0.5373240000000  0.3275040000000  0.2893770000000 1.0
C      1  0.4631020000000  0.6717060000000  0.2906230000000 1.0
C      1  0.3935780000000  0.5464380000000  0.5233930000000 1.0
C      1  0.6084000000000  0.4545860000000  0.5265670000000 1.0
C      1  0.7145010000000  0.5852110000000  0.5333170000000 1.0
C      1  0.2860310000000  0.4163300000000  0.5335840000000 1.0
C      1  0.3218850000000  0.5063050000000  0.5934410000000 1.0
C      1  0.6791790000000  0.4974000000000  0.5966940000000 1.0
C      1  0.4864110000000  0.7170410000000  0.6133310000000 1.0
C      1  0.5132770000000  0.2828680000000  0.6115970000000 1.0
C      1  0.6031450000000  0.5085000000000  0.4418060000000 1.0
C      1  0.3972410000000  0.4902050000000  0.4386270000000 1.0
C      1  0.6572930000000  0.3564000000000  0.5119900000000 1.0
C      1  0.3405080000000  0.6426170000000  0.5135020000000 1.0
C      1  0.5422640000000  0.2369390000000  0.5240270000000 1.0
C      1  0.4564720000000  0.7621830000000  0.5254420000000 1.0
C      1  0.5106560000000  0.5541420000000  0.4167470000000 1.0
C      1  0.4903480000000  0.4449100000000  0.4147330000000 1.0
C      1  0.5351450000000  0.6260040000000  0.5740230000000 1.0
C      1  0.4653120000000  0.3753080000000  0.5739450000000 1.0
C      1  0.6350430000000  0.5993650000000  0.6131510000000 1.0
C      1  0.3663890000000  0.4050550000000  0.6127900000000 1.0
C      1  0.3600390000000  0.5609120000000  0.7084220000000 1.0
C      1  0.6397040000000  0.4387420000000  0.7090830000000 1.0
C      1  0.3343630000000  0.5838370000000  0.3680360000000 1.0
C      1  0.6648510000000  0.4168250000000  0.3675860000000 1.0
C      1  0.4737530000000  0.5456560000000  0.5899870000000 1.0
C      1  0.5270100000000  0.4544870000000  0.5918880000000 1.0
C      1  0.3161560000000  0.3524990000000  0.4511800000000 1.0
C      1  0.6838720000000  0.6470980000000  0.4498070000000 1.0
C      1  0.4359830000000  0.4146920000000  0.6974580000000 1.0
C      1  0.5656560000000  0.5842170000000  0.6965780000000 1.0
END
