TITL C-3036483-1610-142 1.62109756795577e-05 3375 -346.753627067129 0 0 60 (C3) n - 1
REM
REM in /home/bkarasulu/work/CARBON/AIRSS/Generating-Clusters/REBO/Higher-Symm/Only-C60
REM
REM
REM
REM
REM
REM ./C.cell (a2850807a9bf4ad07a5b6933b78d9264)
REM AIRSS Version 0.9.1 bugfix July 2018 build 013d7b7c2542+ Fri, 06 Jul 2018 19:26:36 +0100
REM compiler GCC version 9.2.1 20190827 (Red Hat 9.2.1-1)
REM options -cpp -mtune=generic -march=x86-64 -g -O0 -fpre-include=/usr/include/finclude/math-vector-fortran.h
REM seed 1438016236 1095829969 1785251442 2074910857 -1592188486 -98590397 1868181130 1347317735 1296764196 -686581565 -37935507 -1895633779 -1504250643 -109480831 1276505528 -2050199043 311685529 1023562437 -1349561517 -1655168812 1910195241 -326516105 1879690903 1240105993 -104392749 -1099568543 1986969714 -1692951851 1663211064 -1938290441 2069612236 -1526462768 129145695
REM
CELL 1.54180   15.00000   15.00000   15.00000   90.00000   90.00000   90.00000
LATT -1
SFAC C  
C      1  0.4922590000000  0.6684770000000  0.6476090000000 1.0
C      1  0.3760560000000  0.6684920000000  0.4194930000000 1.0
C      1  0.6317120000000  0.6684780000000  0.4329160000000 1.0
C      1  0.6494780000000  0.2875480000000  0.5349040000000 1.0
C      1  0.3950100000000  0.2875590000000  0.6119970000000 1.0
C      1  0.4554790000000  0.2875650000000  0.3530750000000 1.0
C      1  0.4544000000000  0.6180270000000  0.4548360000000 1.0
C      1  0.5619260000000  0.6180200000000  0.4830930000000 1.0
C      1  0.4836920000000  0.6180210000000  0.5620850000000 1.0
C      1  0.5920940000000  0.5042630000000  0.7735370000000 1.0
C      1  0.2170630000000  0.5042950000000  0.4429870000000 1.0
C      1  0.6908430000000  0.5042760000000  0.2834760000000 1.0
C      1  0.3881330000000  0.5616770000000  0.2809770000000 1.0
C      1  0.7456200000000  0.5616490000000  0.5126330000000 1.0
C      1  0.3662570000000  0.5616620000000  0.7063980000000 1.0
C      1  0.3563500000000  0.3661060000000  0.6652090000000 1.0
C      1  0.4287350000000  0.3661160000000  0.2929890000000 1.0
C      1  0.7148940000000  0.3660920000000  0.5417860000000 1.0
C      1  0.3236280000000  0.4339560000000  0.6000880000000 1.0
C      1  0.5015000000000  0.4339590000000  0.2972130000000 1.0
C      1  0.6748610000000  0.4339380000000  0.6026920000000 1.0
C      1  0.4914810000000  0.3641980000000  0.4100620000000 1.0
C      1  0.5821330000000  0.3641890000000  0.5375900000000 1.0
C      1  0.4263640000000  0.3641960000000  0.5523330000000 1.0
C      1  0.4639470000000  0.5957120000000  0.7886930000000 1.0
C      1  0.2680220000000  0.5957400000000  0.3244320000000 1.0
C      1  0.7680460000000  0.5957120000000  0.3868860000000 1.0
C      1  0.5809670000000  0.4367170000000  0.4744980000000 1.0
C      1  0.4815950000000  0.4367180000000  0.5828700000000 1.0
C      1  0.4374280000000  0.4367260000000  0.4426250000000 1.0
C      1  0.5752090000000  0.6547520000000  0.6974560000000 1.0
C      1  0.2914110000000  0.6547760000000  0.4664070000000 1.0
C      1  0.6334050000000  0.6547620000000  0.3361550000000 1.0
C      1  0.3019330000000  0.4961750000000  0.3021190000000 1.0
C      1  0.7704030000000  0.4961460000000  0.4274100000000 1.0
C      1  0.4276630000000  0.4961510000000  0.7704710000000 1.0
C      1  0.2903080000000  0.4398760000000  0.4023410000000 1.0
C      1  0.6894150000000  0.4398570000000  0.3672300000000 1.0
C      1  0.5202680000000  0.4398520000000  0.7304220000000 1.0
C      1  0.3583330000000  0.5224220000000  0.6196800000000 1.0
C      1  0.4671900000000  0.5224280000000  0.3174730000000 1.0
C      1  0.6744810000000  0.5224070000000  0.5628500000000 1.0
C      1  0.4585820000000  0.5235880000000  0.4133760000000 1.0
C      1  0.5957300000000  0.5235770000000  0.5074430000000 1.0
C      1  0.4456910000000  0.5235820000000  0.5791840000000 1.0
C      1  0.3405480000000  0.3960670000000  0.3101170000000 1.0
C      1  0.7441580000000  0.3960400000000  0.4568510000000 1.0
C      1  0.4152780000000  0.3960470000000  0.7330200000000 1.0
C      1  0.6724900000000  0.4740770000000  0.1987760000000 1.0
C      1  0.6746200000000  0.4740540000000  0.7999930000000 1.0
C      1  0.1528860000000  0.4740930000000  0.5012280000000 1.0
C      1  0.4185110000000  0.6519740000000  0.7122300000000 1.0
C      1  0.3569650000000  0.6519910000000  0.3233150000000 1.0
C      1  0.7245480000000  0.6519670000000  0.4644730000000 1.0
C      1  0.2327950000000  0.5951460000000  0.4156880000000 1.0
C      1  0.7066300000000  0.5951250000000  0.3107510000000 1.0
C      1  0.5605900000000  0.5951150000000  0.7735720000000 1.0
C      1  0.5704830000000  0.4092820000000  0.6402040000000 1.0
C      1  0.3433280000000  0.4093000000000  0.4909370000000 1.0
C      1  0.5861740000000  0.4092910000000  0.3688490000000 1.0
END
