TITL C-3036481-494-439 4.19000994718528e-05 3375 -360.485735632196 0 0 60 (C5) n - 1
REM
REM in /home/bkarasulu/work/CARBON/AIRSS/Generating-Clusters/REBO/Higher-Symm/Only-C60
REM
REM
REM
REM
REM
REM ./C.cell (a2850807a9bf4ad07a5b6933b78d9264)
REM AIRSS Version 0.9.1 bugfix July 2018 build 013d7b7c2542+ Fri, 06 Jul 2018 19:26:36 +0100
REM compiler GCC version 9.2.1 20190827 (Red Hat 9.2.1-1)
REM options -cpp -mtune=generic -march=x86-64 -g -O0 -fpre-include=/usr/include/finclude/math-vector-fortran.h
REM seed 1281895077 -314068296 1006559304 -592659258 1489163631 1105814739 813661536 -701103980 -1809890900 -2004984811 1025431403 -1688756310 -1366159629 1463509942 1679520933 749142511 1716127628 -1792046136 536506903 -767195507 1313822226 -814853118 -1861563054 -1620754356 1533523819 48838185 1624929403 396299995 -1001400466 -1152333536 -1322677116 -583630526 -1893873651
REM
CELL 1.54180   15.00000   15.00000   15.00000   90.00000   90.00000   90.00000
LATT -1
SFAC C  
C      1  0.5012800000000  0.4077580000000  0.6991650000000 1.0
C      1  0.5012930000000  0.6609120000000  0.6492720000000 1.0
C      1  0.5013080000000  0.6916910000000  0.3930900000000 1.0
C      1  0.5013040000000  0.4575590000000  0.2846530000000 1.0
C      1  0.5012870000000  0.2820780000000  0.4738180000000 1.0
C      1  0.4687620000000  0.3511650000000  0.4108650000000 1.0
C      1  0.4687520000000  0.3692380000000  0.6140060000000 1.0
C      1  0.4687570000000  0.5680210000000  0.6595910000000 1.0
C      1  0.4687700000000  0.6728030000000  0.4846250000000 1.0
C      1  0.4687730000000  0.5387790000000  0.3309030000000 1.0
C      1  0.6426630000000  0.3774790000000  0.6125680000000 1.0
C      1  0.6426680000000  0.5691860000000  0.6513090000000 1.0
C      1  0.6426800000000  0.6652710000000  0.4809580000000 1.0
C      1  0.6426820000000  0.5329490000000  0.3369330000000 1.0
C      1  0.6426720000000  0.3550850000000  0.4182730000000 1.0
C      1  0.5813060000000  0.5338680000000  0.5725440000000 1.0
C      1  0.5813110000000  0.5794520000000  0.4902080000000 1.0
C      1  0.5813130000000  0.5152310000000  0.4214110000000 1.0
C      1  0.5813070000000  0.4299560000000  0.4612290000000 1.0
C      1  0.5813020000000  0.4414740000000  0.5546350000000 1.0
C      1  0.2926220000000  0.6425180000000  0.4225240000000 1.0
C      1  0.2926200000000  0.4703730000000  0.3405170000000 1.0
C      1  0.2926070000000  0.3391840000000  0.4788940000000 1.0
C      1  0.2926020000000  0.4302490000000  0.6464240000000 1.0
C      1  0.2926110000000  0.6177200000000  0.6115850000000 1.0
C      1  0.4503320000000  0.4913270000000  0.7210330000000 1.0
C      1  0.4503480000000  0.7075380000000  0.5765520000000 1.0
C      1  0.4503590000000  0.6369420000000  0.3262750000000 1.0
C      1  0.4503490000000  0.3770990000000  0.3160760000000 1.0
C      1  0.4503320000000  0.2871040000000  0.5600500000000 1.0
C      1  0.4464530000000  0.5348050000000  0.5730170000000 1.0
C      1  0.4464580000000  0.5802040000000  0.4894610000000 1.0
C      1  0.4464600000000  0.5147660000000  0.4204650000000 1.0
C      1  0.4464540000000  0.4289250000000  0.4613780000000 1.0
C      1  0.4464500000000  0.4413100000000  0.5556610000000 1.0
C      1  0.6680350000000  0.4758520000000  0.6966350000000 1.0
C      1  0.6680490000000  0.6795350000000  0.5837300000000 1.0
C      1  0.6680590000000  0.6350970000000  0.3551260000000 1.0
C      1  0.6680520000000  0.4039510000000  0.3267470000000 1.0
C      1  0.6680370000000  0.3055310000000  0.5378100000000 1.0
C      1  0.3537740000000  0.2808520000000  0.5480790000000 1.0
C      1  0.3537730000000  0.4780180000000  0.7232790000000 1.0
C      1  0.3537890000000  0.7055700000000  0.5899040000000 1.0
C      1  0.3538000000000  0.6490400000000  0.3322730000000 1.0
C      1  0.3537910000000  0.3865500000000  0.3064240000000 1.0
C      1  0.7066200000000  0.4708860000000  0.5892570000000 1.0
C      1  0.7066240000000  0.5758750000000  0.5552710000000 1.0
C      1  0.7066320000000  0.5759960000000  0.4449180000000 1.0
C      1  0.7066280000000  0.4710810000000  0.4107020000000 1.0
C      1  0.7066220000000  0.4061200000000  0.4999090000000 1.0
C      1  0.2918800000000  0.6613340000000  0.5119780000000 1.0
C      1  0.2918840000000  0.5612640000000  0.3502640000000 1.0
C      1  0.2918750000000  0.3765410000000  0.3954640000000 1.0
C      1  0.2918640000000  0.3624460000000  0.5851130000000 1.0
C      1  0.2918670000000  0.5384580000000  0.6571240000000 1.0
C      1  0.5962310000000  0.4567600000000  0.2742070000000 1.0
C      1  0.5962130000000  0.2718890000000  0.4713500000000 1.0
C      1  0.5962050000000  0.4022540000000  0.7080940000000 1.0
C      1  0.5962180000000  0.6676960000000  0.6572660000000 1.0
C      1  0.5962340000000  0.7013820000000  0.3891100000000 1.0
END
