TITL C-3036480-97-1168 -2.54662498279333e-06 3375 -374.730489027057 0 0 60 (C5) n - 1
REM
REM in /home/bkarasulu/work/CARBON/AIRSS/Generating-Clusters/REBO/Higher-Symm/Only-C60
REM
REM
REM
REM
REM
REM ./C.cell (a2850807a9bf4ad07a5b6933b78d9264)
REM AIRSS Version 0.9.1 bugfix July 2018 build 013d7b7c2542+ Fri, 06 Jul 2018 19:26:36 +0100
REM compiler GCC version 9.2.1 20190827 (Red Hat 9.2.1-1)
REM options -cpp -mtune=generic -march=x86-64 -g -O0 -fpre-include=/usr/include/finclude/math-vector-fortran.h
REM seed -291286665 -1311371162 -1971184116 46627316 -542517530 1840875191 1292500392 -1451590908 283866498 -1749182416 -1336720388 1040715189 775362896 1280596616 -1774819387 -1308897550 1769512123 -1926252093 615296094 -984907201 1657097171 -341656293 60259183 1449018465 1788000893 -1817745491 1117375233 -247727150 -1567828188 1871932465 1329155310 1343842795 -2011234138
REM
CELL 1.54180   15.00000   15.00000   15.00000   90.00000   90.00000   90.00000
LATT -1
SFAC C  
C      1  0.3590880000000  0.3721990000000  0.3389150000000 1.0
C      1  0.6096570000000  0.3721990000000  0.3162070000000 1.0
C      1  0.7086830000000  0.3721990000000  0.5474940000000 1.0
C      1  0.5193170000000  0.3721990000000  0.7131460000000 1.0
C      1  0.3032550000000  0.3721990000000  0.5842370000000 1.0
C      1  0.3590880000000  0.6278010000000  0.3389150000000 1.0
C      1  0.6096570000000  0.6278010000000  0.3162070000000 1.0
C      1  0.7086830000000  0.6278010000000  0.5474940000000 1.0
C      1  0.5193170000000  0.6278010000000  0.7131460000000 1.0
C      1  0.3032550000000  0.6278010000000  0.5842370000000 1.0
C      1  0.5703630000000  0.4464910000000  0.5589180000000 1.0
C      1  0.4657090000000  0.4464910000000  0.5851260000000 1.0
C      1  0.4084440000000  0.4464910000000  0.4936930000000 1.0
C      1  0.4777060000000  0.4464910000000  0.4109760000000 1.0
C      1  0.5777780000000  0.4464910000000  0.4512870000000 1.0
C      1  0.5703630000000  0.5535090000000  0.5589180000000 1.0
C      1  0.4657090000000  0.5535090000000  0.5851260000000 1.0
C      1  0.4084440000000  0.5535090000000  0.4936930000000 1.0
C      1  0.4777060000000  0.5535090000000  0.4109760000000 1.0
C      1  0.5777780000000  0.5535090000000  0.4512870000000 1.0
C      1  0.5495610000000  0.4539150000000  0.7555430000000 1.0
C      1  0.2722790000000  0.4539150000000  0.6261020000000 1.0
C      1  0.3097000000000  0.4539150000000  0.3223930000000 1.0
C      1  0.6101090000000  0.4539150000000  0.2641300000000 1.0
C      1  0.7583510000000  0.4539150000000  0.5318320000000 1.0
C      1  0.5495610000000  0.5460850000000  0.7555430000000 1.0
C      1  0.2722790000000  0.5460850000000  0.6261020000000 1.0
C      1  0.3097000000000  0.5460850000000  0.3223930000000 1.0
C      1  0.6101090000000  0.5460850000000  0.2641300000000 1.0
C      1  0.7583510000000  0.5460850000000  0.5318320000000 1.0
C      1  0.5363590000000  0.2665630000000  0.5781140000000 1.0
C      1  0.4369440000000  0.2665630000000  0.5587180000000 1.0
C      1  0.4246700000000  0.2665630000000  0.4581760000000 1.0
C      1  0.5164990000000  0.2665630000000  0.4154330000000 1.0
C      1  0.5855270000000  0.2665630000000  0.4895590000000 1.0
C      1  0.5363590000000  0.7334370000000  0.5781140000000 1.0
C      1  0.4369440000000  0.7334370000000  0.5587180000000 1.0
C      1  0.4246700000000  0.7334370000000  0.4581760000000 1.0
C      1  0.5164990000000  0.7334370000000  0.4154330000000 1.0
C      1  0.5855270000000  0.7334370000000  0.4895590000000 1.0
C      1  0.5783010000000  0.3216230000000  0.6507260000000 1.0
C      1  0.3808480000000  0.3216230000000  0.6210450000000 1.0
C      1  0.3480590000000  0.3216230000000  0.4240840000000 1.0
C      1  0.5252480000000  0.3216230000000  0.3320360000000 1.0
C      1  0.6675450000000  0.3216230000000  0.4721080000000 1.0
C      1  0.5783010000000  0.6783770000000  0.6507260000000 1.0
C      1  0.3808480000000  0.6783770000000  0.6210450000000 1.0
C      1  0.3480590000000  0.6783770000000  0.4240840000000 1.0
C      1  0.5252480000000  0.6783770000000  0.3320360000000 1.0
C      1  0.6675450000000  0.6783770000000  0.4721080000000 1.0
C      1  0.3286080000000  0.3862480000000  0.4927360000000 1.0
C      1  0.4539450000000  0.3862480000000  0.3347520000000 1.0
C      1  0.6429290000000  0.3862480000000  0.4051350000000 1.0
C      1  0.6343900000000  0.3862480000000  0.6066180000000 1.0
C      1  0.4401290000000  0.3862480000000  0.6607590000000 1.0
C      1  0.3286080000000  0.6137520000000  0.4927360000000 1.0
C      1  0.4539450000000  0.6137520000000  0.3347520000000 1.0
C      1  0.6429290000000  0.6137520000000  0.4051350000000 1.0
C      1  0.6343900000000  0.6137520000000  0.6066180000000 1.0
C      1  0.4401290000000  0.6137520000000  0.6607590000000 1.0
END
