TITL C-3036486-2224-145 0.00337002823610166 3375 -343.958320997873 0 0 60 (C4) n - 1
REM
REM in /home/bkarasulu/work/CARBON/AIRSS/Generating-Clusters/REBO/Higher-Symm/Only-C60
REM
REM
REM
REM
REM
REM ./C.cell (a2850807a9bf4ad07a5b6933b78d9264)
REM AIRSS Version 0.9.1 bugfix July 2018 build 013d7b7c2542+ Fri, 06 Jul 2018 19:26:36 +0100
REM compiler GCC version 9.2.1 20190827 (Red Hat 9.2.1-1)
REM options -cpp -mtune=generic -march=x86-64 -g -O0 -fpre-include=/usr/include/finclude/math-vector-fortran.h
REM seed -1067520384 2109611939 1770148726 359711972 -1103898540 1002979212 -817015306 -829166335 681471141 58347071 -794472384 1249245459 709234220 -860102400 1788156994 -398627699 227208742 1137519633 -1421394762 -838165629 547217429 2089207536 1482140970 386222427 384611212 -2074800068 1652695397 -7367748 -573573476 1976500096 779692334 -1484770883 -336443487
REM
CELL 1.54180   15.00000   15.00000   15.00000   90.00000   90.00000   90.00000
LATT -1
SFAC C  
C      1  0.4224000000000  0.3311920000000  0.5308910000000 1.0
C      1  0.6688060000000  0.4224010000000  0.5308900000000 1.0
C      1  0.5776000000000  0.6688090000000  0.5308910000000 1.0
C      1  0.3311950000000  0.5775970000000  0.5308900000000 1.0
C      1  0.4721030000000  0.7065840000000  0.3715030000000 1.0
C      1  0.2934190000000  0.4721020000000  0.3715020000000 1.0
C      1  0.5278970000000  0.2934160000000  0.3715030000000 1.0
C      1  0.7065830000000  0.5278990000000  0.3715040000000 1.0
C      1  0.4360840000000  0.4576260000000  0.5995060000000 1.0
C      1  0.5423770000000  0.4360850000000  0.5995060000000 1.0
C      1  0.5639160000000  0.5423750000000  0.5995080000000 1.0
C      1  0.4576230000000  0.5639150000000  0.5995060000000 1.0
C      1  0.2477990000000  0.4479020000000  0.4502700000000 1.0
C      1  0.5520980000000  0.2478010000000  0.4502700000000 1.0
C      1  0.7522000000000  0.5520970000000  0.4502700000000 1.0
C      1  0.4479020000000  0.7521990000000  0.4502700000000 1.0
C      1  0.6836340000000  0.3854430000000  0.4436560000000 1.0
C      1  0.6145580000000  0.6836380000000  0.4436560000000 1.0
C      1  0.3163660000000  0.6145580000000  0.4436570000000 1.0
C      1  0.3854420000000  0.3163620000000  0.4436570000000 1.0
C      1  0.5094560000000  0.4270280000000  0.4386410000000 1.0
C      1  0.5729560000000  0.5094520000000  0.4386410000000 1.0
C      1  0.4905430000000  0.5729720000000  0.4386410000000 1.0
C      1  0.4270440000000  0.4905470000000  0.4386410000000 1.0
C      1  0.6645200000000  0.4419610000000  0.3693410000000 1.0
C      1  0.5580430000000  0.6645280000000  0.3693380000000 1.0
C      1  0.3354800000000  0.5580390000000  0.3693400000000 1.0
C      1  0.4419570000000  0.3354720000000  0.3693380000000 1.0
C      1  0.5725470000000  0.4661730000000  0.7071100000000 1.0
C      1  0.5338280000000  0.5725460000000  0.7071100000000 1.0
C      1  0.4274530000000  0.5338280000000  0.7071100000000 1.0
C      1  0.4661720000000  0.4274530000000  0.7071100000000 1.0
C      1  0.5645780000000  0.2517890000000  0.5397120000000 1.0
C      1  0.7482100000000  0.5645770000000  0.5397110000000 1.0
C      1  0.4354220000000  0.7482110000000  0.5397120000000 1.0
C      1  0.2517900000000  0.4354230000000  0.5397130000000 1.0
C      1  0.3691490000000  0.3469540000000  0.6197790000000 1.0
C      1  0.6530460000000  0.3691500000000  0.6197800000000 1.0
C      1  0.6308510000000  0.6530450000000  0.6197790000000 1.0
C      1  0.3469540000000  0.6308500000000  0.6197800000000 1.0
C      1  0.5671470000000  0.3070270000000  0.6175980000000 1.0
C      1  0.6929700000000  0.5671460000000  0.6175950000000 1.0
C      1  0.4328530000000  0.6929730000000  0.6175980000000 1.0
C      1  0.3070310000000  0.4328540000000  0.6175940000000 1.0
C      1  0.5470340000000  0.5650410000000  0.3184520000000 1.0
C      1  0.4349630000000  0.5470300000000  0.3184500000000 1.0
C      1  0.4529660000000  0.4349590000000  0.3184510000000 1.0
C      1  0.5650360000000  0.4529690000000  0.3184480000000 1.0
C      1  0.3766240000000  0.4931260000000  0.5211720000000 1.0
C      1  0.5068740000000  0.3766190000000  0.5211720000000 1.0
C      1  0.6233750000000  0.5068760000000  0.5211730000000 1.0
C      1  0.4931270000000  0.6233810000000  0.5211730000000 1.0
C      1  0.6552270000000  0.5892440000000  0.3198740000000 1.0
C      1  0.4107580000000  0.6552260000000  0.3198750000000 1.0
C      1  0.3447720000000  0.4107560000000  0.3198740000000 1.0
C      1  0.5892410000000  0.3447730000000  0.3198750000000 1.0
C      1  0.6667290000000  0.4768490000000  0.6524980000000 1.0
C      1  0.5231540000000  0.6667300000000  0.6525000000000 1.0
C      1  0.3332700000000  0.5231520000000  0.6524990000000 1.0
C      1  0.4768460000000  0.3332700000000  0.6525000000000 1.0
END
