TITL C-3036484-3770-95 8.32816244604041e-06 3375 -337.060913963734 0 0 60 (C1) n - 1
REM
REM in /home/bkarasulu/work/CARBON/AIRSS/Generating-Clusters/REBO/Higher-Symm/Only-C60
REM
REM
REM
REM
REM
REM ./C.cell (a2850807a9bf4ad07a5b6933b78d9264)
REM AIRSS Version 0.9.1 bugfix July 2018 build 013d7b7c2542+ Fri, 06 Jul 2018 19:26:36 +0100
REM compiler GCC version 9.2.1 20190827 (Red Hat 9.2.1-1)
REM options -cpp -mtune=generic -march=x86-64 -g -O0 -fpre-include=/usr/include/finclude/math-vector-fortran.h
REM seed -1341954727 521951207 -1930256092 -1289598333 125466762 -1236234922 1665361864 402796312 67847162 -1640342983 347420502 1370099053 -275578621 -1287680761 1489274299 936108139 -1635873399 -1499062063 1926989765 -4708258 -307211953 -1079856811 1579267646 -1233127076 833553198 -474706420 1984781348 995548860 681380182 -1321530497 -381196157 -288963363 -1470512632
REM
CELL 1.54180   15.00000   15.00000   15.00000   90.00000   90.00000   90.00000
LATT -1
SFAC C  
C      1  0.6033190000000  0.5325720000000  0.7162150000000 1.0
C      1  0.6886290000000  0.6754650000000  0.5070850000000 1.0
C      1  0.3887820000000  0.4773360000000  0.4529000000000 1.0
C      1  0.6399070000000  0.2058330000000  0.6148400000000 1.0
C      1  0.4176380000000  0.3438400000000  0.5825230000000 1.0
C      1  0.4935300000000  0.4611730000000  0.3254620000000 1.0
C      1  0.5773400000000  0.6048300000000  0.5794180000000 1.0
C      1  0.4565610000000  0.2446180000000  0.4554650000000 1.0
C      1  0.5106940000000  0.5585030000000  0.4189730000000 1.0
C      1  0.3689540000000  0.2683020000000  0.4380720000000 1.0
C      1  0.6709600000000  0.5168730000000  0.4535770000000 1.0
C      1  0.3052250000000  0.6657810000000  0.3824010000000 1.0
C      1  0.7451970000000  0.3884910000000  0.4968430000000 1.0
C      1  0.5897820000000  0.5066640000000  0.3062190000000 1.0
C      1  0.5831670000000  0.6825880000000  0.3864510000000 1.0
C      1  0.3366020000000  0.5897740000000  0.6462990000000 1.0
C      1  0.5010320000000  0.6618370000000  0.7839610000000 1.0
C      1  0.6506090000000  0.4414250000000  0.2818470000000 1.0
C      1  0.2629110000000  0.4886500000000  0.4118720000000 1.0
C      1  0.5252510000000  0.7150810000000  0.7097170000000 1.0
C      1  0.7459030000000  0.3156430000000  0.5531690000000 1.0
C      1  0.4038150000000  0.6579230000000  0.4370350000000 1.0
C      1  0.2987030000000  0.5545710000000  0.5571570000000 1.0
C      1  0.6597560000000  0.2767390000000  0.5627390000000 1.0
C      1  0.5984950000000  0.3261370000000  0.5108000000000 1.0
C      1  0.6441770000000  0.4103650000000  0.4491280000000 1.0
C      1  0.4809490000000  0.2304190000000  0.2986660000000 1.0
C      1  0.3443060000000  0.5639730000000  0.4143660000000 1.0
C      1  0.5962300000000  0.6785030000000  0.6500810000000 1.0
C      1  0.6082020000000  0.7197520000000  0.4748800000000 1.0
C      1  0.5015970000000  0.2029960000000  0.3840890000000 1.0
C      1  0.3974840000000  0.6679880000000  0.6206770000000 1.0
C      1  0.3981320000000  0.5174360000000  0.3017420000000 1.0
C      1  0.3265770000000  0.3947130000000  0.5367500000000 1.0
C      1  0.4891440000000  0.6811230000000  0.3721330000000 1.0
C      1  0.4275070000000  0.4790460000000  0.5560680000000 1.0
C      1  0.5216790000000  0.6196820000000  0.4858220000000 1.0
C      1  0.4563730000000  0.5881140000000  0.3371140000000 1.0
C      1  0.2690130000000  0.4783680000000  0.5106600000000 1.0
C      1  0.4784780000000  0.5590850000000  0.5943070000000 1.0
C      1  0.5244950000000  0.7199050000000  0.5392220000000 1.0
C      1  0.5576520000000  0.5722090000000  0.8000770000000 1.0
C      1  0.3707360000000  0.4306580000000  0.6363510000000 1.0
C      1  0.4980970000000  0.5263850000000  0.6914870000000 1.0
C      1  0.3854310000000  0.5156930000000  0.6992750000000 1.0
C      1  0.3966010000000  0.6057330000000  0.5295250000000 1.0
C      1  0.3533450000000  0.3723330000000  0.4286060000000 1.0
C      1  0.4746110000000  0.4130220000000  0.4846420000000 1.0
C      1  0.6734120000000  0.5698330000000  0.5480460000000 1.0
C      1  0.6313630000000  0.5815950000000  0.3678720000000 1.0
C      1  0.5428760000000  0.4551420000000  0.4236610000000 1.0
C      1  0.4735210000000  0.7226650000000  0.6229560000000 1.0
C      1  0.3189420000000  0.4614920000000  0.3331290000000 1.0
C      1  0.4307020000000  0.3033800000000  0.2789040000000 1.0
C      1  0.6652530000000  0.5354630000000  0.6514210000000 1.0
C      1  0.4968420000000  0.3159160000000  0.5150640000000 1.0
C      1  0.4442120000000  0.5632710000000  0.7839520000000 1.0
C      1  0.6729110000000  0.3807210000000  0.3469710000000 1.0
C      1  0.7200170000000  0.6135860000000  0.4316450000000 1.0
C      1  0.4063690000000  0.3887900000000  0.3296690000000 1.0
END
