TITL C-3036479-9801-1173 -0.0069420709328072 3375 -333.881963035542 0 0 60 (C1) n - 1
REM
REM in /home/bkarasulu/work/CARBON/AIRSS/Generating-Clusters/REBO/Higher-Symm/Only-C60
REM
REM
REM
REM
REM
REM ./C.cell (a2850807a9bf4ad07a5b6933b78d9264)
REM AIRSS Version 0.9.1 bugfix July 2018 build 013d7b7c2542+ Fri, 06 Jul 2018 19:26:36 +0100
REM compiler GCC version 9.2.1 20190827 (Red Hat 9.2.1-1)
REM options -cpp -mtune=generic -march=x86-64 -g -O0 -fpre-include=/usr/include/finclude/math-vector-fortran.h
REM seed 439606537 -885471694 -146812272 -1264740496 -980369679 1891330167 1467325808 1693036007 693591711 311031406 551764512 124739303 -705979258 -1866009383 958754040 153580840 -1025948998 -1578080612 -677864133 -1912691950 -1291666570 -333979011 164454746 -2077852187 740761982 -1184486061 176901706 411802575 1127950884 1026352280 -689638239 1054648267 1606853802
REM
CELL 1.54180   15.00000   15.00000   15.00000   90.00000   90.00000   90.00000
LATT -1
SFAC C  
C      1  0.3922890000000  0.2868170000000  0.4753330000000 1.0
C      1  0.2829880000000  0.6046280000000  0.5251830000000 1.0
C      1  0.6031920000000  0.7167490000000  0.4721920000000 1.0
C      1  0.7186390000000  0.3991160000000  0.5300580000000 1.0
C      1  0.7152750000000  0.5023560000000  0.3598940000000 1.0
C      1  0.5050380000000  0.2863110000000  0.6388940000000 1.0
C      1  0.2851910000000  0.5031120000000  0.3549760000000 1.0
C      1  0.4962780000000  0.7099640000000  0.6404990000000 1.0
C      1  0.3518950000000  0.6701550000000  0.5179280000000 1.0
C      1  0.6712400000000  0.6504920000000  0.4803650000000 1.0
C      1  0.6539210000000  0.3301280000000  0.5213390000000 1.0
C      1  0.3246520000000  0.3542890000000  0.4870440000000 1.0
C      1  0.6360070000000  0.4497910000000  0.3064780000000 1.0
C      1  0.4536500000000  0.3670410000000  0.6933120000000 1.0
C      1  0.3703560000000  0.5504000000000  0.3064510000000 1.0
C      1  0.5484900000000  0.6295880000000  0.6928890000000 1.0
C      1  0.4876040000000  0.4544670000000  0.4152900000000 1.0
C      1  0.4503060000000  0.5119030000000  0.5800880000000 1.0
C      1  0.5179370000000  0.5505990000000  0.4145110000000 1.0
C      1  0.5484720000000  0.4846170000000  0.5799480000000 1.0
C      1  0.3618140000000  0.4989000000000  0.5131550000000 1.0
C      1  0.5092090000000  0.6255540000000  0.4922490000000 1.0
C      1  0.6281280000000  0.4930420000000  0.5066980000000 1.0
C      1  0.4946360000000  0.3705400000000  0.4862190000000 1.0
C      1  0.3956750000000  0.4387750000000  0.6271300000000 1.0
C      1  0.4440570000000  0.6058990000000  0.3724320000000 1.0
C      1  0.6033140000000  0.5586520000000  0.6234020000000 1.0
C      1  0.5613500000000  0.3981250000000  0.3743700000000 1.0
C      1  0.3420520000000  0.3528780000000  0.6772720000000 1.0
C      1  0.3554300000000  0.6608860000000  0.3289200000000 1.0
C      1  0.6585610000000  0.6460520000000  0.6698390000000 1.0
C      1  0.6474650000000  0.3394790000000  0.3318610000000 1.0
C      1  0.6948630000000  0.5995720000000  0.5726010000000 1.0
C      1  0.5977850000000  0.3065980000000  0.4288910000000 1.0
C      1  0.3057060000000  0.3944710000000  0.5780440000000 1.0
C      1  0.4028110000000  0.6956580000000  0.4262980000000 1.0
C      1  0.6317310000000  0.4242950000000  0.7169890000000 1.0
C      1  0.4215380000000  0.3693950000000  0.2857080000000 1.0
C      1  0.3677590000000  0.5733740000000  0.7188400000000 1.0
C      1  0.5788620000000  0.6330450000000  0.2794790000000 1.0
C      1  0.5650220000000  0.3499140000000  0.5656120000000 1.0
C      1  0.3370820000000  0.4328770000000  0.4263590000000 1.0
C      1  0.4344570000000  0.6465940000000  0.5690450000000 1.0
C      1  0.6517310000000  0.5666100000000  0.4290920000000 1.0
C      1  0.4062640000000  0.4506400000000  0.3465980000000 1.0
C      1  0.4494170000000  0.5882060000000  0.6596020000000 1.0
C      1  0.5948410000000  0.5506920000000  0.3376110000000 1.0
C      1  0.5509740000000  0.4082180000000  0.6570230000000 1.0
C      1  0.2978000000000  0.5383460000000  0.6878890000000 1.0
C      1  0.5402800000000  0.7002270000000  0.3124470000000 1.0
C      1  0.7000170000000  0.4636630000000  0.6876470000000 1.0
C      1  0.4590250000000  0.2999330000000  0.3142570000000 1.0
C      1  0.4503850000000  0.2852360000000  0.5554260000000 1.0
C      1  0.2826330000000  0.5521000000000  0.4417310000000 1.0
C      1  0.5474420000000  0.7138930000000  0.5552410000000 1.0
C      1  0.7174220000000  0.4531150000000  0.4460530000000 1.0
C      1  0.7153640000000  0.4894270000000  0.5923770000000 1.0
C      1  0.4870280000000  0.2848250000000  0.4124600000000 1.0
C      1  0.2830470000000  0.5137720000000  0.5926170000000 1.0
C      1  0.5136050000000  0.7140020000000  0.4078440000000 1.0
END
