TITL C-3036480-97-307 -0.0062230208921072 3375 -353.730531770477 0 0 60 (S4) n - 1
REM
REM in /home/bkarasulu/work/CARBON/AIRSS/Generating-Clusters/REBO/Higher-Symm/Only-C60
REM
REM
REM
REM
REM
REM ./C.cell (a2850807a9bf4ad07a5b6933b78d9264)
REM AIRSS Version 0.9.1 bugfix July 2018 build 013d7b7c2542+ Fri, 06 Jul 2018 19:26:36 +0100
REM compiler GCC version 9.2.1 20190827 (Red Hat 9.2.1-1)
REM options -cpp -mtune=generic -march=x86-64 -g -O0 -fpre-include=/usr/include/finclude/math-vector-fortran.h
REM seed -818821281 1572267493 1355169626 523640401 1341328522 479802871 -1715392776 -683759770 1145008026 -756090130 1646955776 329190522 -462807209 -967282235 -1807638595 870925235 -160971526 1943570437 -1764652586 -331805581 -1093242141 227757109 -735991169 845733590 618000362 -264772470 -1731404202 -23923000 -387381709 -578794153 1825305956 1918881472 1671937769
REM
CELL 1.54180   15.00000   15.00000   15.00000   90.00000   90.00000   90.00000
LATT -1
SFAC C  
C      1  0.6187240000000  0.6508480000000  0.3349230000000 1.0
C      1  0.3491500000000  0.6187240000000  0.6650750000000 1.0
C      1  0.3812810000000  0.3491520000000  0.3349240000000 1.0
C      1  0.6508490000000  0.3812730000000  0.6650750000000 1.0
C      1  0.5183740000000  0.6169300000000  0.6380520000000 1.0
C      1  0.3830710000000  0.5183750000000  0.3619490000000 1.0
C      1  0.4816260000000  0.3830720000000  0.6380540000000 1.0
C      1  0.6169300000000  0.4816270000000  0.3619460000000 1.0
C      1  0.5561290000000  0.3968420000000  0.7004010000000 1.0
C      1  0.6031580000000  0.5561310000000  0.2996020000000 1.0
C      1  0.4438710000000  0.6031580000000  0.7003980000000 1.0
C      1  0.3968410000000  0.4438680000000  0.2996010000000 1.0
C      1  0.3109250000000  0.5712300000000  0.5033370000000 1.0
C      1  0.4287700000000  0.3109230000000  0.4966630000000 1.0
C      1  0.6890750000000  0.4287700000000  0.5033380000000 1.0
C      1  0.5712300000000  0.6890750000000  0.4966620000000 1.0
C      1  0.3311230000000  0.7081200000000  0.6251810000000 1.0
C      1  0.2918810000000  0.3311210000000  0.3748180000000 1.0
C      1  0.6688770000000  0.2918810000000  0.6251820000000 1.0
C      1  0.7081190000000  0.6688780000000  0.3748180000000 1.0
C      1  0.6068970000000  0.5581500000000  0.5080740000000 1.0
C      1  0.4418490000000  0.6068960000000  0.4919240000000 1.0
C      1  0.3931030000000  0.4418490000000  0.5080750000000 1.0
C      1  0.5581550000000  0.3931040000000  0.4919230000000 1.0
C      1  0.7320320000000  0.6677610000000  0.4555890000000 1.0
C      1  0.3322390000000  0.7320320000000  0.5444090000000 1.0
C      1  0.2679690000000  0.3322380000000  0.4555930000000 1.0
C      1  0.6677610000000  0.2679660000000  0.5444110000000 1.0
C      1  0.3608890000000  0.5005680000000  0.6938080000000 1.0
C      1  0.4994360000000  0.3608920000000  0.3061920000000 1.0
C      1  0.6391110000000  0.4994360000000  0.6938090000000 1.0
C      1  0.5005680000000  0.6391120000000  0.3061920000000 1.0
C      1  0.5336330000000  0.4659720000000  0.4355470000000 1.0
C      1  0.5340280000000  0.5336300000000  0.5644540000000 1.0
C      1  0.4663660000000  0.5340280000000  0.4355460000000 1.0
C      1  0.4659710000000  0.4663710000000  0.5644540000000 1.0
C      1  0.5440470000000  0.4832960000000  0.7466770000000 1.0
C      1  0.5167030000000  0.5440500000000  0.2533230000000 1.0
C      1  0.4559530000000  0.5167040000000  0.7466770000000 1.0
C      1  0.4832970000000  0.4559500000000  0.2533220000000 1.0
C      1  0.6821120000000  0.5722050000000  0.6168830000000 1.0
C      1  0.4277940000000  0.6821120000000  0.3831170000000 1.0
C      1  0.3178880000000  0.4277950000000  0.6168830000000 1.0
C      1  0.5722060000000  0.3178870000000  0.3831160000000 1.0
C      1  0.5021420000000  0.3401100000000  0.5470280000000 1.0
C      1  0.6598870000000  0.5021410000000  0.4529750000000 1.0
C      1  0.4978580000000  0.6598890000000  0.5470260000000 1.0
C      1  0.3401130000000  0.4978600000000  0.4529740000000 1.0
C      1  0.3850680000000  0.3715640000000  0.6726970000000 1.0
C      1  0.6284300000000  0.3850670000000  0.3273040000000 1.0
C      1  0.6149310000000  0.6284360000000  0.6726970000000 1.0
C      1  0.3715630000000  0.6149310000000  0.3273020000000 1.0
C      1  0.3544880000000  0.6650510000000  0.4685110000000 1.0
C      1  0.3349490000000  0.3544890000000  0.5314900000000 1.0
C      1  0.6455100000000  0.3349530000000  0.4685110000000 1.0
C      1  0.6650510000000  0.6455110000000  0.5314900000000 1.0
C      1  0.6906960000000  0.4597050000000  0.6004430000000 1.0
C      1  0.5402950000000  0.6906960000000  0.3995550000000 1.0
C      1  0.3093040000000  0.5402950000000  0.6004430000000 1.0
C      1  0.4597080000000  0.3093050000000  0.3995560000000 1.0
END
