TITL C-3036479-9801-278 -0.312614122551844 3375 -314.178670403598 0 0 60 (C4) n - 1
REM
REM in /home/bkarasulu/work/CARBON/AIRSS/Generating-Clusters/REBO/Higher-Symm/Only-C60
REM
REM
REM
REM
REM
REM ./C.cell (a2850807a9bf4ad07a5b6933b78d9264)
REM AIRSS Version 0.9.1 bugfix July 2018 build 013d7b7c2542+ Fri, 06 Jul 2018 19:26:36 +0100
REM compiler GCC version 9.2.1 20190827 (Red Hat 9.2.1-1)
REM options -cpp -mtune=generic -march=x86-64 -g -O0 -fpre-include=/usr/include/finclude/math-vector-fortran.h
REM seed 1881120694 -288320003 -1998462618 1869544300 -2011571069 1184076101 -187025165 -1624902934 673017516 800926517 1083387766 -250419019 -230024072 1848564360 582074985 -1121109494 914186850 2134596191 -1500905065 548825275 -1094110933 -757169312 -1144087833 1577470133 919565251 -613678757 -209071828 -1363438860 -750691066 1121713892 1737842769 395866989 989444028
REM
CELL 1.54180   15.00000   15.00000   15.00000   90.00000   90.00000   90.00000
LATT -1
SFAC C  
C      1  0.7004760000000  0.3947250000000  0.4556250000000 1.0
C      1  0.4556290000000  0.3947240000000  0.2995230000000 1.0
C      1  0.2995260000000  0.3947250000000  0.5443670000000 1.0
C      1  0.5443780000000  0.3947250000000  0.7004750000000 1.0
C      1  0.7025820000000  0.6209000000000  0.4547700000000 1.0
C      1  0.4547730000000  0.6208960000000  0.2974180000000 1.0
C      1  0.2974150000000  0.6208980000000  0.5452280000000 1.0
C      1  0.5452310000000  0.6209010000000  0.7025840000000 1.0
C      1  0.4372230000000  0.5832210000000  0.6966750000000 1.0
C      1  0.6966720000000  0.5832190000000  0.5627740000000 1.0
C      1  0.5627610000000  0.5832100000000  0.3033300000000 1.0
C      1  0.3033270000000  0.5832130000000  0.4372350000000 1.0
C      1  0.4374060000000  0.4336780000000  0.6920870000000 1.0
C      1  0.6920800000000  0.4336980000000  0.5625620000000 1.0
C      1  0.5625430000000  0.4337080000000  0.3079220000000 1.0
C      1  0.3079270000000  0.4337260000000  0.4374790000000 1.0
C      1  0.4626240000000  0.6818020000000  0.6502560000000 1.0
C      1  0.6502570000000  0.6818040000000  0.5373770000000 1.0
C      1  0.5373760000000  0.6818030000000  0.3497450000000 1.0
C      1  0.3497460000000  0.6818020000000  0.4626240000000 1.0
C      1  0.4586950000000  0.3313560000000  0.6553930000000 1.0
C      1  0.6553920000000  0.3313540000000  0.5413030000000 1.0
C      1  0.5413030000000  0.3313520000000  0.3446070000000 1.0
C      1  0.3446070000000  0.3313520000000  0.4586970000000 1.0
C      1  0.5798770000000  0.4500190000000  0.5845770000000 1.0
C      1  0.5845780000000  0.4500180000000  0.4201130000000 1.0
C      1  0.4201090000000  0.4500170000000  0.4154260000000 1.0
C      1  0.4154220000000  0.4500200000000  0.5798580000000 1.0
C      1  0.5919080000000  0.5528420000000  0.5954080000000 1.0
C      1  0.5954040000000  0.5528450000000  0.4080950000000 1.0
C      1  0.4080910000000  0.5528430000000  0.4045950000000 1.0
C      1  0.4045910000000  0.5528400000000  0.5919110000000 1.0
C      1  0.6337330000000  0.6666840000000  0.6482170000000 1.0
C      1  0.6482160000000  0.6666840000000  0.3662670000000 1.0
C      1  0.3662690000000  0.6666850000000  0.3517840000000 1.0
C      1  0.3517840000000  0.6666850000000  0.6337320000000 1.0
C      1  0.6370120000000  0.3515450000000  0.6515560000000 1.0
C      1  0.6515560000000  0.3515430000000  0.3629880000000 1.0
C      1  0.3629870000000  0.3515450000000  0.3484420000000 1.0
C      1  0.3484410000000  0.3515450000000  0.6370110000000 1.0
C      1  0.5200530000000  0.3677700000000  0.5730920000000 1.0
C      1  0.5730930000000  0.3677730000000  0.4799470000000 1.0
C      1  0.4799500000000  0.3677730000000  0.4269070000000 1.0
C      1  0.4269070000000  0.3677700000000  0.5200490000000 1.0
C      1  0.5206150000000  0.6260020000000  0.5729560000000 1.0
C      1  0.5729540000000  0.6260080000000  0.4793870000000 1.0
C      1  0.4793840000000  0.6260070000000  0.4270470000000 1.0
C      1  0.4270450000000  0.6260000000000  0.5206180000000 1.0
C      1  0.3236010000000  0.5649580000000  0.3264770000000 1.0
C      1  0.3264720000000  0.5649610000000  0.6764020000000 1.0
C      1  0.6764000000000  0.5649580000000  0.6735260000000 1.0
C      1  0.6735220000000  0.5649560000000  0.3236040000000 1.0
C      1  0.3387300000000  0.4620440000000  0.3342710000000 1.0
C      1  0.3342740000000  0.4620480000000  0.6612650000000 1.0
C      1  0.6612690000000  0.4620430000000  0.6657280000000 1.0
C      1  0.6657300000000  0.4620390000000  0.3387270000000 1.0
C      1  0.4612510000000  0.5078660000000  0.2892970000000 1.0
C      1  0.5388170000000  0.5078950000000  0.7107140000000 1.0
C      1  0.2893010000000  0.5078480000000  0.5387310000000 1.0
C      1  0.7107080000000  0.5078710000000  0.4612180000000 1.0
END
