TITL C-3036480-97-271 -0.000254059294218181 3375 -337.450572362904 0 0 60 (C1) n - 1
REM
REM in /home/bkarasulu/work/CARBON/AIRSS/Generating-Clusters/REBO/Higher-Symm/Only-C60
REM
REM
REM
REM
REM
REM ./C.cell (a2850807a9bf4ad07a5b6933b78d9264)
REM AIRSS Version 0.9.1 bugfix July 2018 build 013d7b7c2542+ Fri, 06 Jul 2018 19:26:36 +0100
REM compiler GCC version 9.2.1 20190827 (Red Hat 9.2.1-1)
REM options -cpp -mtune=generic -march=x86-64 -g -O0 -fpre-include=/usr/include/finclude/math-vector-fortran.h
REM seed -1658992339 623473447 -511169545 -1959471653 -49286411 -268297952 -1268824389 1007788231 -1370930145 558498705 -892304918 -1031105316 -1851839269 1097106903 -1347295260 -544525757 1398279252 48619636 1528180620 217399958 2066112704 -1844619375 -473172569 -1719931120 -345581999 -1361492003 588053250 290053985 -1676149543 299222126 1583107729 -2067169098 -1686457895
REM
CELL 1.54180   15.00000   15.00000   15.00000   90.00000   90.00000   90.00000
LATT -1
SFAC C  
C      1  0.4191270000000  0.7741760000000  0.6012230000000 1.0
C      1  0.2765270000000  0.5351550000000  0.5994170000000 1.0
C      1  0.3540170000000  0.3082640000000  0.5980320000000 1.0
C      1  0.5779520000000  0.2269180000000  0.6018640000000 1.0
C      1  0.7483480000000  0.4373260000000  0.6017980000000 1.0
C      1  0.6418330000000  0.6946850000000  0.5942160000000 1.0
C      1  0.4222580000000  0.2311920000000  0.6009840000000 1.0
C      1  0.2463640000000  0.4366410000000  0.6059660000000 1.0
C      1  0.3541450000000  0.6939370000000  0.5966980000000 1.0
C      1  0.5801310000000  0.7776850000000  0.6019210000000 1.0
C      1  0.7174170000000  0.5354530000000  0.5959370000000 1.0
C      1  0.6432840000000  0.3067870000000  0.5958330000000 1.0
C      1  0.2935240000000  0.4448810000000  0.5037610000000 1.0
C      1  0.4433530000000  0.2840300000000  0.5029470000000 1.0
C      1  0.6486520000000  0.3415810000000  0.4965370000000 1.0
C      1  0.6839060000000  0.5555070000000  0.4990610000000 1.0
C      1  0.5564370000000  0.7334720000000  0.5002380000000 1.0
C      1  0.3487540000000  0.6598210000000  0.4977120000000 1.0
C      1  0.3053900000000  0.5562680000000  0.5011120000000 1.0
C      1  0.4427560000000  0.7237400000000  0.5024560000000 1.0
C      1  0.6451490000000  0.6619320000000  0.4944160000000 1.0
C      1  0.6970240000000  0.4443530000000  0.5017580000000 1.0
C      1  0.5571270000000  0.2733370000000  0.5005740000000 1.0
C      1  0.3470480000000  0.3447890000000  0.4997170000000 1.0
C      1  0.4520170000000  0.3126630000000  0.3208670000000 1.0
C      1  0.6361060000000  0.3473930000000  0.3145030000000 1.0
C      1  0.6579280000000  0.5463060000000  0.3212590000000 1.0
C      1  0.5568450000000  0.7100970000000  0.3138260000000 1.0
C      1  0.3674470000000  0.6500620000000  0.3183740000000 1.0
C      1  0.3333080000000  0.4540380000000  0.3248070000000 1.0
C      1  0.4522810000000  0.6908540000000  0.3193750000000 1.0
C      1  0.6350910000000  0.6538650000000  0.3119990000000 1.0
C      1  0.6595330000000  0.4532420000000  0.3221150000000 1.0
C      1  0.5569500000000  0.2926260000000  0.3151240000000 1.0
C      1  0.3666480000000  0.3523290000000  0.3204740000000 1.0
C      1  0.3347410000000  0.5467940000000  0.3242470000000 1.0
C      1  0.2866310000000  0.5896350000000  0.4038290000000 1.0
C      1  0.3080210000000  0.3109220000000  0.3994630000000 1.0
C      1  0.5656530000000  0.2238630000000  0.3989320000000 1.0
C      1  0.7094700000000  0.4131630000000  0.4027100000000 1.0
C      1  0.6940160000000  0.6888180000000  0.3959110000000 1.0
C      1  0.4675040000000  0.7493640000000  0.4030580000000 1.0
C      1  0.2831660000000  0.4115020000000  0.4044310000000 1.0
C      1  0.3075850000000  0.6908140000000  0.3976120000000 1.0
C      1  0.5665500000000  0.7793810000000  0.3970500000000 1.0
C      1  0.7045680000000  0.5870340000000  0.4023400000000 1.0
C      1  0.6947520000000  0.3115410000000  0.3974110000000 1.0
C      1  0.4672510000000  0.2549820000000  0.4046810000000 1.0
C      1  0.5472950000000  0.7157060000000  0.6841680000000 1.0
C      1  0.3795730000000  0.6346710000000  0.6772700000000 1.0
C      1  0.3206590000000  0.4433790000000  0.6838190000000 1.0
C      1  0.4517860000000  0.2909600000000  0.6854090000000 1.0
C      1  0.6243760000000  0.3639440000000  0.6801050000000 1.0
C      1  0.6554240000000  0.5508390000000  0.6751160000000 1.0
C      1  0.5478180000000  0.2889670000000  0.6854620000000 1.0
C      1  0.3735270000000  0.3650130000000  0.6819760000000 1.0
C      1  0.3403000000000  0.5505870000000  0.6775660000000 1.0
C      1  0.4515050000000  0.7140810000000  0.6839530000000 1.0
C      1  0.6173120000000  0.6354010000000  0.6754290000000 1.0
C      1  0.6758360000000  0.4432320000000  0.6811490000000 1.0
END
