TITL C-3036484-3770-233 -4.57311785631311e-06 3375 -349.041833639611 0 0 60 (S4) n - 1
REM
REM in /home/bkarasulu/work/CARBON/AIRSS/Generating-Clusters/REBO/Higher-Symm/Only-C60
REM
REM
REM
REM
REM
REM ./C.cell (a2850807a9bf4ad07a5b6933b78d9264)
REM AIRSS Version 0.9.1 bugfix July 2018 build 013d7b7c2542+ Fri, 06 Jul 2018 19:26:36 +0100
REM compiler GCC version 9.2.1 20190827 (Red Hat 9.2.1-1)
REM options -cpp -mtune=generic -march=x86-64 -g -O0 -fpre-include=/usr/include/finclude/math-vector-fortran.h
REM seed 1371830898 -595310317 -58542102 353455595 -428755329 -341958037 642502965 1965607902 -853799204 524861009 -1561907370 -1156032524 1621158721 -581953019 -236002692 951140197 417480357 1351042572 1255942680 1558847933 -1660123535 1638912464 -76978584 -1244280247 -1891274605 1216758331 1413298114 -1756508975 1768517588 253282959 -1681467526 258620686 1979224963
REM
CELL 1.54180   15.00000   15.00000   15.00000   90.00000   90.00000   90.00000
LATT -1
SFAC C  
C      1  0.6600560000000  0.6501970000000  0.5168850000000 1.0
C      1  0.6501970000000  0.3399440000000  0.4831150000000 1.0
C      1  0.3399440000000  0.3498030000000  0.5168840000000 1.0
C      1  0.3498030000000  0.6600560000000  0.4831150000000 1.0
C      1  0.6174120000000  0.3612280000000  0.6229730000000 1.0
C      1  0.3612280000000  0.3825880000000  0.3770270000000 1.0
C      1  0.3825880000000  0.6387720000000  0.6229730000000 1.0
C      1  0.6387720000000  0.6174120000000  0.3770270000000 1.0
C      1  0.5651950000000  0.5120960000000  0.7351000000000 1.0
C      1  0.5120960000000  0.4348050000000  0.2649000000000 1.0
C      1  0.4348050000000  0.4879040000000  0.7351000000000 1.0
C      1  0.4879040000000  0.5651950000000  0.2649000000000 1.0
C      1  0.4860560000000  0.2628310000000  0.5312310000000 1.0
C      1  0.2628310000000  0.5139440000000  0.4687690000000 1.0
C      1  0.5139440000000  0.7371690000000  0.5312310000000 1.0
C      1  0.7371690000000  0.4860560000000  0.4687690000000 1.0
C      1  0.4231180000000  0.5561160000000  0.4438900000000 1.0
C      1  0.5561160000000  0.5768820000000  0.5561100000000 1.0
C      1  0.5768820000000  0.4438840000000  0.4438900000000 1.0
C      1  0.4438840000000  0.4231180000000  0.5561100000000 1.0
C      1  0.4076820000000  0.6898750000000  0.3927180000000 1.0
C      1  0.6898750000000  0.5923180000000  0.6072820000000 1.0
C      1  0.5923180000000  0.3101250000000  0.3927180000000 1.0
C      1  0.3101250000000  0.4076820000000  0.6072820000000 1.0
C      1  0.3175420000000  0.5857430000000  0.6600190000000 1.0
C      1  0.5857430000000  0.6824580000000  0.3399810000000 1.0
C      1  0.6824580000000  0.4142570000000  0.6600190000000 1.0
C      1  0.4142570000000  0.3175420000000  0.3399810000000 1.0
C      1  0.5106700000000  0.6122900000000  0.4243880000000 1.0
C      1  0.6122900000000  0.4893300000000  0.5756120000000 1.0
C      1  0.4893300000000  0.3877100000000  0.4243880000000 1.0
C      1  0.3877100000000  0.5106700000000  0.5756120000000 1.0
C      1  0.5299760000000  0.3492930000000  0.6707420000000 1.0
C      1  0.3492930000000  0.4700240000000  0.3292580000000 1.0
C      1  0.4700240000000  0.6507070000000  0.6707420000000 1.0
C      1  0.6507070000000  0.5299760000000  0.3292580000000 1.0
C      1  0.4835090000000  0.6489610000000  0.3249230000000 1.0
C      1  0.6489610000000  0.5164910000000  0.6750770000000 1.0
C      1  0.5164910000000  0.3510390000000  0.3249230000000 1.0
C      1  0.3510390000000  0.4835090000000  0.6750760000000 1.0
C      1  0.5802500000000  0.5124520000000  0.2663380000000 1.0
C      1  0.5124520000000  0.4197500000000  0.7336620000000 1.0
C      1  0.4197500000000  0.4875480000000  0.2663380000000 1.0
C      1  0.4875480000000  0.5802500000000  0.7336620000000 1.0
C      1  0.5381570000000  0.6704420000000  0.6049230000000 1.0
C      1  0.6704420000000  0.4618430000000  0.3950770000000 1.0
C      1  0.4618430000000  0.3295580000000  0.6049230000000 1.0
C      1  0.3295580000000  0.5381570000000  0.3950770000000 1.0
C      1  0.6816440000000  0.4197670000000  0.5218800000000 1.0
C      1  0.4197670000000  0.3183560000000  0.4781200000000 1.0
C      1  0.3183560000000  0.5802330000000  0.5218800000000 1.0
C      1  0.5802330000000  0.6816440000000  0.4781200000000 1.0
C      1  0.2634810000000  0.4273950000000  0.5103460000000 1.0
C      1  0.4273950000000  0.7365190000000  0.4896540000000 1.0
C      1  0.7365190000000  0.5726050000000  0.5103460000000 1.0
C      1  0.5726050000000  0.2634810000000  0.4896540000000 1.0
C      1  0.4058430000000  0.4492070000000  0.4574390000000 1.0
C      1  0.4492070000000  0.5941570000000  0.5425610000000 1.0
C      1  0.5941570000000  0.5507930000000  0.4574390000000 1.0
C      1  0.5507930000000  0.4058430000000  0.5425610000000 1.0
END
