TITL C-3036480-97-955 0.000173997984003376 3375 -334.86239930701 0 0 60 (C1) n - 1
REM
REM in /home/bkarasulu/work/CARBON/AIRSS/Generating-Clusters/REBO/Higher-Symm/Only-C60
REM
REM
REM
REM
REM
REM ./C.cell (a2850807a9bf4ad07a5b6933b78d9264)
REM AIRSS Version 0.9.1 bugfix July 2018 build 013d7b7c2542+ Fri, 06 Jul 2018 19:26:36 +0100
REM compiler GCC version 9.2.1 20190827 (Red Hat 9.2.1-1)
REM options -cpp -mtune=generic -march=x86-64 -g -O0 -fpre-include=/usr/include/finclude/math-vector-fortran.h
REM seed 973847784 -1423343403 1946561300 -1534101534 -294445374 958057201 -144905544 -458955224 2014419193 1605914638 -739469655 1469986785 -83940260 -18054591 950841435 1256999456 2139438001 63198630 1260471030 1967580660 -1656606440 1835323775 908122456 896748545 -2107745007 331684688 -1175673246 -904077794 -427902731 669039641 -1094641465 78298945 -774401790
REM
CELL 1.54180   15.00000   15.00000   15.00000   90.00000   90.00000   90.00000
LATT -1
SFAC C  
C      1  0.3765420000000  0.5658440000000  0.6619840000000 1.0
C      1  0.3889890000000  0.3321590000000  0.4808960000000 1.0
C      1  0.3977510000000  0.6035010000000  0.3714870000000 1.0
C      1  0.4157140000000  0.7007670000000  0.4903190000000 1.0
C      1  0.4173900000000  0.4155050000000  0.6839910000000 1.0
C      1  0.4233520000000  0.3911990000000  0.3388040000000 1.0
C      1  0.4814830000000  0.4063300000000  0.5953930000000 1.0
C      1  0.4923050000000  0.4746950000000  0.3723490000000 1.0
C      1  0.4754110000000  0.6354270000000  0.5538350000000 1.0
C      1  0.4813250000000  0.5683820000000  0.4023610000000 1.0
C      1  0.4628290000000  0.5684570000000  0.6252760000000 1.0
C      1  0.4711560000000  0.3723700000000  0.5023760000000 1.0
C      1  0.6693020000000  0.6274810000000  0.5973370000000 1.0
C      1  0.6673860000000  0.3467510000000  0.5581130000000 1.0
C      1  0.6656740000000  0.5210710000000  0.3307070000000 1.0
C      1  0.6510670000000  0.4204480000000  0.3015260000000 1.0
C      1  0.6495580000000  0.7013460000000  0.5225170000000 1.0
C      1  0.6512150000000  0.3703320000000  0.6597250000000 1.0
C      1  0.5374310000000  0.4832690000000  0.2758780000000 1.0
C      1  0.5387560000000  0.7088490000000  0.5955010000000 1.0
C      1  0.5319540000000  0.3192490000000  0.6319080000000 1.0
C      1  0.2560980000000  0.5141240000000  0.3984210000000 1.0
C      1  0.2421890000000  0.5734060000000  0.5573450000000 1.0
C      1  0.2445020000000  0.4059180000000  0.5300990000000 1.0
C      1  0.6266450000000  0.5946040000000  0.5001310000000 1.0
C      1  0.6241320000000  0.4476570000000  0.5827740000000 1.0
C      1  0.6311100000000  0.4505170000000  0.4078020000000 1.0
C      1  0.3181460000000  0.6254390000000  0.6038480000000 1.0
C      1  0.3248540000000  0.3465010000000  0.5587690000000 1.0
C      1  0.3410080000000  0.5246180000000  0.3397260000000 1.0
C      1  0.5836340000000  0.6396960000000  0.3218700000000 1.0
C      1  0.5801720000000  0.5686550000000  0.6866210000000 1.0
C      1  0.5757970000000  0.3019280000000  0.4626090000000 1.0
C      1  0.3708290000000  0.5573900000000  0.5295240000000 1.0
C      1  0.3693230000000  0.4493080000000  0.5402250000000 1.0
C      1  0.3796770000000  0.4920260000000  0.4413320000000 1.0
C      1  0.5232780000000  0.7376190000000  0.4868820000000 1.0
C      1  0.5235330000000  0.3919650000000  0.7185410000000 1.0
C      1  0.5269500000000  0.3736040000000  0.2958290000000 1.0
C      1  0.5422130000000  0.4087300000000  0.4381690000000 1.0
C      1  0.5297140000000  0.5917120000000  0.4783700000000 1.0
C      1  0.5353420000000  0.4945890000000  0.6114400000000 1.0
C      1  0.6829870000000  0.5363080000000  0.6626890000000 1.0
C      1  0.6805590000000  0.3337110000000  0.4480660000000 1.0
C      1  0.6752240000000  0.6192520000000  0.3786870000000 1.0
C      1  0.7105950000000  0.5472580000000  0.4529170000000 1.0
C      1  0.7111070000000  0.5078180000000  0.5591680000000 1.0
C      1  0.7155220000000  0.4359190000000  0.4724990000000 1.0
C      1  0.2634760000000  0.4212860000000  0.4315000000000 1.0
C      1  0.2617620000000  0.5925060000000  0.4613340000000 1.0
C      1  0.2525900000000  0.4804810000000  0.5961430000000 1.0
C      1  0.6022240000000  0.6968870000000  0.4187910000000 1.0
C      1  0.6125320000000  0.4623110000000  0.7144330000000 1.0
C      1  0.6114160000000  0.3293700000000  0.3571820000000 1.0
C      1  0.3497760000000  0.3695600000000  0.3987470000000 1.0
C      1  0.3471760000000  0.6531960000000  0.4401670000000 1.0
C      1  0.3388390000000  0.4742200000000  0.6672730000000 1.0
C      1  0.5591390000000  0.2689680000000  0.5606170000000 1.0
C      1  0.5590180000000  0.5748940000000  0.2631440000000 1.0
C      1  0.5703230000000  0.6726160000000  0.6740300000000 1.0
END
