TITL C-3036483-1610-549 0.0536119218441888 3375 -358.714669437518 0 0 60 (C3) n - 1
REM
REM in /home/bkarasulu/work/CARBON/AIRSS/Generating-Clusters/REBO/Higher-Symm/Only-C60
REM
REM
REM
REM
REM
REM ./C.cell (a2850807a9bf4ad07a5b6933b78d9264)
REM AIRSS Version 0.9.1 bugfix July 2018 build 013d7b7c2542+ Fri, 06 Jul 2018 19:26:36 +0100
REM compiler GCC version 9.2.1 20190827 (Red Hat 9.2.1-1)
REM options -cpp -mtune=generic -march=x86-64 -g -O0 -fpre-include=/usr/include/finclude/math-vector-fortran.h
REM seed -198115643 -232348150 -875109476 1125799633 395152480 504033859 -1048054196 900598389 -1171374337 -438762878 1221439953 776602438 1086908218 496801195 1547803055 251978186 518733829 539830230 1969708736 -306330076 496470118 -1966528614 1579251502 882106370 1949000340 -1119139288 -1699976619 1871242805 2130287245 -1563591456 -81005336 1058303271 -326504944
REM
CELL 1.54180   15.00000   15.00000   15.00000   90.00000   90.00000   90.00000
LATT -1
SFAC C  
C      1  0.6428630000000  0.3821680000000  0.3258940000000 1.0
C      1  0.2779900000000  0.3821420000000  0.4633890000000 1.0
C      1  0.5793410000000  0.3822860000000  0.7108210000000 1.0
C      1  0.6533350000000  0.5500140000000  0.5410980000000 1.0
C      1  0.4588400000000  0.5499950000000  0.3466160000000 1.0
C      1  0.3875820000000  0.5500230000000  0.6123300000000 1.0
C      1  0.3951780000000  0.5059560000000  0.5271910000000 1.0
C      1  0.5760560000000  0.5058250000000  0.5771610000000 1.0
C      1  0.5286800000000  0.5058290000000  0.3955760000000 1.0
C      1  0.3292450000000  0.6706730000000  0.5584510000000 1.0
C      1  0.6359370000000  0.6706810000000  0.6183370000000 1.0
C      1  0.5343720000000  0.6705900000000  0.3231740000000 1.0
C      1  0.4834600000000  0.5618700000000  0.2487930000000 1.0
C      1  0.2905130000000  0.5618430000000  0.6401090000000 1.0
C      1  0.7260010000000  0.5619410000000  0.6113630000000 1.0
C      1  0.5526760000000  0.6459870000000  0.6571830000000 1.0
C      1  0.6096920000000  0.6459250000000  0.3757900000000 1.0
C      1  0.3371850000000  0.6459060000000  0.4669740000000 1.0
C      1  0.6277580000000  0.3337090000000  0.5519650000000 1.0
C      1  0.4809720000000  0.3338940000000  0.3634200000000 1.0
C      1  0.3914730000000  0.3344050000000  0.5844480000000 1.0
C      1  0.6185710000000  0.4654410000000  0.6961210000000 1.0
C      1  0.6104560000000  0.4653520000000  0.2992790000000 1.0
C      1  0.2709620000000  0.4652610000000  0.5047650000000 1.0
C      1  0.3627270000000  0.4324780000000  0.3178720000000 1.0
C      1  0.4109340000000  0.4324410000000  0.7099470000000 1.0
C      1  0.7261670000000  0.4324580000000  0.4722940000000 1.0
C      1  0.3166250000000  0.3657940000000  0.3670230000000 1.0
C      1  0.4765410000000  0.3657730000000  0.7252730000000 1.0
C      1  0.7066470000000  0.3657940000000  0.4078520000000 1.0
C      1  0.7028470000000  0.4012750000000  0.5630280000000 1.0
C      1  0.4530480000000  0.4012860000000  0.2927160000000 1.0
C      1  0.3440360000000  0.4012540000000  0.6443030000000 1.0
C      1  0.3785280000000  0.3288180000000  0.4520620000000 1.0
C      1  0.5195680000000  0.3286950000000  0.6293500000000 1.0
C      1  0.6021370000000  0.3286360000000  0.4183970000000 1.0
C      1  0.3833310000000  0.6815660000000  0.6321060000000 1.0
C      1  0.6731710000000  0.6814650000000  0.5347970000000 1.0
C      1  0.4434100000000  0.6814360000000  0.3326310000000 1.0
C      1  0.4694900000000  0.2673130000000  0.5580030000000 1.0
C      1  0.5656080000000  0.2670840000000  0.4973350000000 1.0
C      1  0.4650150000000  0.2669690000000  0.4444220000000 1.0
C      1  0.5417820000000  0.5453660000000  0.6705270000000 1.0
C      1  0.6267190000000  0.5452590000000  0.3785680000000 1.0
C      1  0.3312340000000  0.5453270000000  0.4509380000000 1.0
C      1  0.3695700000000  0.5181380000000  0.3607480000000 1.0
C      1  0.4446250000000  0.5180800000000  0.6825290000000 1.0
C      1  0.6857280000000  0.5181140000000  0.4567550000000 1.0
C      1  0.6255770000000  0.6995690000000  0.4539290000000 1.0
C      1  0.3973260000000  0.6993040000000  0.4144090000000 1.0
C      1  0.4771790000000  0.6997060000000  0.6316990000000 1.0
C      1  0.5204410000000  0.4674220000000  0.2619540000000 1.0
C      1  0.2837470000000  0.4673990000000  0.6013260000000 1.0
C      1  0.6957300000000  0.4673750000000  0.6367200000000 1.0
C      1  0.3997320000000  0.4149900000000  0.5204270000000 1.0
C      1  0.5686740000000  0.4148060000000  0.5769630000000 1.0
C      1  0.5322050000000  0.4147880000000  0.4023590000000 1.0
C      1  0.4480570000000  0.7613350000000  0.4662400000000 1.0
C      1  0.4969490000000  0.7624950000000  0.5623840000000 1.0
C      1  0.5557570000000  0.7622760000000  0.4718660000000 1.0
END
