TITL C-3036481-494-155 -0.0206427619818381 3375 -355.139058965221 0 0 60 (C1) n - 1
REM
REM in /home/bkarasulu/work/CARBON/AIRSS/Generating-Clusters/REBO/Higher-Symm/Only-C60
REM
REM
REM
REM
REM
REM ./C.cell (a2850807a9bf4ad07a5b6933b78d9264)
REM AIRSS Version 0.9.1 bugfix July 2018 build 013d7b7c2542+ Fri, 06 Jul 2018 19:26:36 +0100
REM compiler GCC version 9.2.1 20190827 (Red Hat 9.2.1-1)
REM options -cpp -mtune=generic -march=x86-64 -g -O0 -fpre-include=/usr/include/finclude/math-vector-fortran.h
REM seed 39518973 2046018711 -848840400 -1195874994 -2091759705 -1700689755 -321996112 -635119543 1400656711 1092000878 90527497 551101946 -335558164 1475667226 -1462866867 1701834319 1911026617 1067323921 -1188774796 -559302592 1438536947 -979015432 1569676332 -1967076399 -947594410 468189174 -1347751155 1834568946 -1462302260 917487560 -611936714 1677349078 193765566
REM
CELL 1.54180   15.00000   15.00000   15.00000   90.00000   90.00000   90.00000
LATT -1
SFAC C  
C      1  0.7022320000000  0.3737630000000  0.4185030000000 1.0
C      1  0.5059170000000  0.7342560000000  0.4118200000000 1.0
C      1  0.2911180000000  0.3861910000000  0.4135220000000 1.0
C      1  0.6375330000000  0.5561700000000  0.6777080000000 1.0
C      1  0.3864080000000  0.5886750000000  0.6697470000000 1.0
C      1  0.4751850000000  0.3506490000000  0.6776730000000 1.0
C      1  0.5123520000000  0.6628300000000  0.4935770000000 1.0
C      1  0.3530200000000  0.4299820000000  0.4895270000000 1.0
C      1  0.6264070000000  0.4070330000000  0.4869160000000 1.0
C      1  0.4095080000000  0.5596460000000  0.3270130000000 1.0
C      1  0.4909810000000  0.3930560000000  0.3256640000000 1.0
C      1  0.5947010000000  0.5467860000000  0.3284850000000 1.0
C      1  0.3985590000000  0.7088440000000  0.4418630000000 1.0
C      1  0.3679790000000  0.3063610000000  0.4422820000000 1.0
C      1  0.7306150000000  0.4807600000000  0.4486840000000 1.0
C      1  0.7012690000000  0.6168030000000  0.5392660000000 1.0
C      1  0.2996430000000  0.6149490000000  0.5348940000000 1.0
C      1  0.4991460000000  0.2676730000000  0.5354200000000 1.0
C      1  0.6540630000000  0.3862440000000  0.5816620000000 1.0
C      1  0.5264850000000  0.7096730000000  0.5877050000000 1.0
C      1  0.3093050000000  0.4192670000000  0.5860260000000 1.0
C      1  0.5555250000000  0.5921630000000  0.4241410000000 1.0
C      1  0.3969850000000  0.5113390000000  0.4288230000000 1.0
C      1  0.5357290000000  0.4045720000000  0.4275150000000 1.0
C      1  0.6882240000000  0.5649170000000  0.3849530000000 1.0
C      1  0.3447360000000  0.6317860000000  0.3783670000000 1.0
C      1  0.4617270000000  0.3005170000000  0.3785430000000 1.0
C      1  0.5567880000000  0.5265810000000  0.7161980000000 1.0
C      1  0.4472230000000  0.5324480000000  0.7143860000000 1.0
C      1  0.4957940000000  0.4333670000000  0.7209790000000 1.0
C      1  0.6249200000000  0.2908620000000  0.4227240000000 1.0
C      1  0.6158220000000  0.7109750000000  0.4252050000000 1.0
C      1  0.2586080000000  0.4944700000000  0.4220200000000 1.0
C      1  0.3985080000000  0.3694610000000  0.6024580000000 1.0
C      1  0.6817270000000  0.4786210000000  0.6191820000000 1.0
C      1  0.4380960000000  0.6557390000000  0.6037740000000 1.0
C      1  0.6607530000000  0.6375830000000  0.6266630000000 1.0
C      1  0.3017230000000  0.5710230000000  0.6229000000000 1.0
C      1  0.5357710000000  0.2907820000000  0.6242590000000 1.0
C      1  0.4066960000000  0.2945880000000  0.5339290000000 1.0
C      1  0.7323690000000  0.5249580000000  0.5400490000000 1.0
C      1  0.3690320000000  0.6819800000000  0.5337110000000 1.0
C      1  0.6270120000000  0.3131510000000  0.6257260000000 1.0
C      1  0.6042120000000  0.7123780000000  0.6311530000000 1.0
C      1  0.2659430000000  0.4844610000000  0.6285080000000 1.0
C      1  0.6907810000000  0.4570840000000  0.3449350000000 1.0
C      1  0.4353500000000  0.6892370000000  0.3363190000000 1.0
C      1  0.3662200000000  0.3511110000000  0.3382310000000 1.0
C      1  0.5784460000000  0.4954880000000  0.5754410000000 1.0
C      1  0.4840620000000  0.5532840000000  0.5871600000000 1.0
C      1  0.4821440000000  0.4450720000000  0.5855520000000 1.0
C      1  0.5984900000000  0.5130860000000  0.4722090000000 1.0
C      1  0.4411060000000  0.5786650000000  0.4906210000000 1.0
C      1  0.4572800000000  0.4098460000000  0.4901370000000 1.0
C      1  0.6751460000000  0.6451810000000  0.4499260000000 1.0
C      1  0.2838070000000  0.5796820000000  0.4454630000000 1.0
C      1  0.5376990000000  0.2725640000000  0.4457470000000 1.0
C      1  0.4040890000000  0.4538010000000  0.3298090000000 1.0
C      1  0.5845140000000  0.4423580000000  0.3308250000000 1.0
C      1  0.5045140000000  0.6052090000000  0.3235010000000 1.0
END
