TITL C-3036486-2224-593 -0.114936481139654 3375 -336.034159023454 0 0 60 (C4h) n - 1
REM
REM in /home/bkarasulu/work/CARBON/AIRSS/Generating-Clusters/REBO/Higher-Symm/Only-C60
REM
REM
REM
REM
REM
REM ./C.cell (a2850807a9bf4ad07a5b6933b78d9264)
REM AIRSS Version 0.9.1 bugfix July 2018 build 013d7b7c2542+ Fri, 06 Jul 2018 19:26:36 +0100
REM compiler GCC version 9.2.1 20190827 (Red Hat 9.2.1-1)
REM options -cpp -mtune=generic -march=x86-64 -g -O0 -fpre-include=/usr/include/finclude/math-vector-fortran.h
REM seed 989169959 19555738 169944816 -2008719962 -1367804368 -1060392799 -166285100 -1554047344 1920596137 -945299400 1301057866 -1371024976 1204471076 431873405 490810836 -29306091 1386027859 1067742509 -323452914 -1347379802 1564165553 711082997 -756197051 2092229086 -1180681669 1709804874 328685160 2058898743 1254436917 118845866 885392996 495181461 1520307940
REM
CELL 1.54180   15.00000   15.00000   15.00000   90.00000   90.00000   90.00000
LATT -1
SFAC C  
C      1  0.6208090000000  0.4461390000000  0.2923600000000 1.0
C      1  0.2923600000000  0.4461390000000  0.3791910000000 1.0
C      1  0.3791910000000  0.4461390000000  0.7076400000000 1.0
C      1  0.7076400000000  0.4461390000000  0.6208090000000 1.0
C      1  0.6208230000000  0.5595160000000  0.2923470000000 1.0
C      1  0.2923470000000  0.5595160000000  0.3791770000000 1.0
C      1  0.3791770000000  0.5595160000000  0.7076530000000 1.0
C      1  0.7076530000000  0.5595160000000  0.6208230000000 1.0
C      1  0.4329630000000  0.7132300000000  0.3989230000000 1.0
C      1  0.3989230000000  0.7132300000000  0.5670370000000 1.0
C      1  0.5670370000000  0.7132300000000  0.6010770000000 1.0
C      1  0.6010770000000  0.7132300000000  0.4329630000000 1.0
C      1  0.4329630000000  0.2924190000000  0.3989260000000 1.0
C      1  0.3989260000000  0.2924190000000  0.5670370000000 1.0
C      1  0.5670370000000  0.2924190000000  0.6010740000000 1.0
C      1  0.6010740000000  0.2924190000000  0.4329630000000 1.0
C      1  0.4724840000000  0.4444960000000  0.4222210000000 1.0
C      1  0.4222210000000  0.4444960000000  0.5275160000000 1.0
C      1  0.5275160000000  0.4444960000000  0.5777790000000 1.0
C      1  0.5777790000000  0.4444960000000  0.4724840000000 1.0
C      1  0.4726540000000  0.5610470000000  0.4220980000000 1.0
C      1  0.4220980000000  0.5610470000000  0.5273460000000 1.0
C      1  0.5273460000000  0.5610470000000  0.5779020000000 1.0
C      1  0.5779020000000  0.5610470000000  0.4726540000000 1.0
C      1  0.6562070000000  0.4113580000000  0.4158330000000 1.0
C      1  0.4158330000000  0.4113580000000  0.3437930000000 1.0
C      1  0.3437930000000  0.4113580000000  0.5841670000000 1.0
C      1  0.5841670000000  0.4113580000000  0.6562070000000 1.0
C      1  0.6562480000000  0.5943230000000  0.4158000000000 1.0
C      1  0.4158000000000  0.5943230000000  0.3437520000000 1.0
C      1  0.3437520000000  0.5943230000000  0.5842000000000 1.0
C      1  0.5842000000000  0.5943230000000  0.6562480000000 1.0
C      1  0.3714570000000  0.3136890000000  0.4840230000000 1.0
C      1  0.4840230000000  0.3136890000000  0.6285430000000 1.0
C      1  0.6285430000000  0.3136890000000  0.5159770000000 1.0
C      1  0.5159770000000  0.3136890000000  0.3714570000000 1.0
C      1  0.3714570000000  0.6919680000000  0.4840230000000 1.0
C      1  0.4840230000000  0.6919680000000  0.6285430000000 1.0
C      1  0.6285430000000  0.6919680000000  0.5159770000000 1.0
C      1  0.5159770000000  0.6919680000000  0.3714570000000 1.0
C      1  0.3817740000000  0.6578770000000  0.6645280000000 1.0
C      1  0.6645280000000  0.6578770000000  0.6182260000000 1.0
C      1  0.6182260000000  0.6578770000000  0.3354720000000 1.0
C      1  0.3354720000000  0.6578770000000  0.3817740000000 1.0
C      1  0.3817730000000  0.3477820000000  0.6645260000000 1.0
C      1  0.6645260000000  0.3477820000000  0.6182270000000 1.0
C      1  0.6182270000000  0.3477820000000  0.3354740000000 1.0
C      1  0.3354740000000  0.3477820000000  0.3817730000000 1.0
C      1  0.5811940000000  0.4573630000000  0.7342370000000 1.0
C      1  0.7342370000000  0.4573630000000  0.4188060000000 1.0
C      1  0.4188060000000  0.4573630000000  0.2657630000000 1.0
C      1  0.2657630000000  0.4573630000000  0.5811940000000 1.0
C      1  0.5812040000000  0.5482920000000  0.7342590000000 1.0
C      1  0.7342590000000  0.5482920000000  0.4187960000000 1.0
C      1  0.4187960000000  0.5482920000000  0.2657410000000 1.0
C      1  0.2657410000000  0.5482920000000  0.5812040000000 1.0
C      1  0.5489620000000  0.5029280000000  0.3423850000000 1.0
C      1  0.4510380000000  0.5029280000000  0.6576150000000 1.0
C      1  0.6576150000000  0.5029280000000  0.5489620000000 1.0
C      1  0.3423850000000  0.5029280000000  0.4510380000000 1.0
END
