TITL C-3036479-9801-1124 1.79227308911278e-06 3375 -329.856230976604 0 0 60 (D3) n - 1
REM
REM in /home/bkarasulu/work/CARBON/AIRSS/Generating-Clusters/REBO/Higher-Symm/Only-C60
REM
REM
REM
REM
REM
REM ./C.cell (a2850807a9bf4ad07a5b6933b78d9264)
REM AIRSS Version 0.9.1 bugfix July 2018 build 013d7b7c2542+ Fri, 06 Jul 2018 19:26:36 +0100
REM compiler GCC version 9.2.1 20190827 (Red Hat 9.2.1-1)
REM options -cpp -mtune=generic -march=x86-64 -g -O0 -fpre-include=/usr/include/finclude/math-vector-fortran.h
REM seed -801505713 -1692515942 82209152 -1462339110 577082207 -946322467 163001431 -1163243021 1498033068 85208578 -669992968 -81123398 -464016744 -565460204 -614490860 -157679679 1861448754 1691118796 -276158261 -2110847266 -135156812 -1360863829 658953269 1010203845 771210289 -2045729544 -677951009 -251583453 -823415959 -1488056535 458392774 -746871868 433912259
REM
CELL 1.54180   15.00000   15.00000   15.00000   90.00000   90.00000   90.00000
LATT -1
SFAC C  
C      1  0.5237720000000  0.6760150000000  0.5507340000000 1.0
C      1  0.5237690000000  0.4559300000000  0.3221990000000 1.0
C      1  0.5237740000000  0.3680550000000  0.6270660000000 1.0
C      1  0.4762280000000  0.6760150000000  0.4492660000000 1.0
C      1  0.4762310000000  0.4559300000000  0.6778010000000 1.0
C      1  0.4762260000000  0.3680550000000  0.3729340000000 1.0
C      1  0.3526640000000  0.4091980000000  0.6815700000000 1.0
C      1  0.3526620000000  0.7026440000000  0.4878540000000 1.0
C      1  0.3526590000000  0.3881580000000  0.3305810000000 1.0
C      1  0.6473360000000  0.4091980000000  0.3184300000000 1.0
C      1  0.6473380000000  0.7026440000000  0.5121460000000 1.0
C      1  0.6473410000000  0.3881580000000  0.6694190000000 1.0
C      1  0.2469020000000  0.5347360000000  0.5573850000000 1.0
C      1  0.2469000000000  0.5323260000000  0.4412310000000 1.0
C      1  0.2469010000000  0.4329390000000  0.5013950000000 1.0
C      1  0.7530980000000  0.5347360000000  0.4426150000000 1.0
C      1  0.7531000000000  0.5323260000000  0.5587690000000 1.0
C      1  0.7530990000000  0.4329390000000  0.4986050000000 1.0
C      1  0.5782020000000  0.4751100000000  0.6817590000000 1.0
C      1  0.5781990000000  0.6698540000000  0.4306740000000 1.0
C      1  0.5781980000000  0.3550360000000  0.3875630000000 1.0
C      1  0.4217980000000  0.4751100000000  0.3182410000000 1.0
C      1  0.4218010000000  0.6698540000000  0.5693260000000 1.0
C      1  0.4218020000000  0.3550360000000  0.6124370000000 1.0
C      1  0.6824640000000  0.6036240000000  0.4752680000000 1.0
C      1  0.6824630000000  0.4267720000000  0.4226210000000 1.0
C      1  0.6824650000000  0.4696040000000  0.6021030000000 1.0
C      1  0.3175360000000  0.6036240000000  0.5247320000000 1.0
C      1  0.3175370000000  0.4267720000000  0.5773790000000 1.0
C      1  0.3175350000000  0.4696040000000  0.3978970000000 1.0
C      1  0.5915960000000  0.4932820000000  0.4053500000000 1.0
C      1  0.5915980000000  0.4213910000000  0.5531420000000 1.0
C      1  0.5915980000000  0.5853280000000  0.5415050000000 1.0
C      1  0.4084040000000  0.4932820000000  0.5946500000000 1.0
C      1  0.4084020000000  0.4213910000000  0.4468580000000 1.0
C      1  0.4084020000000  0.5853280000000  0.4584950000000 1.0
C      1  0.2930170000000  0.5053590000000  0.6578750000000 1.0
C      1  0.2930140000000  0.6340410000000  0.4164260000000 1.0
C      1  0.2930140000000  0.3605990000000  0.4257080000000 1.0
C      1  0.7069830000000  0.5053590000000  0.3421250000000 1.0
C      1  0.7069860000000  0.6340410000000  0.5835740000000 1.0
C      1  0.7069860000000  0.3605990000000  0.5742920000000 1.0
C      1  0.6134660000000  0.3012230000000  0.6040130000000 1.0
C      1  0.6134670000000  0.6894670000000  0.6201370000000 1.0
C      1  0.6134620000000  0.5093100000000  0.2758450000000 1.0
C      1  0.3865340000000  0.3012230000000  0.3959870000000 1.0
C      1  0.3865330000000  0.6894670000000  0.3798630000000 1.0
C      1  0.3865380000000  0.5093100000000  0.7241550000000 1.0
C      1  0.5445250000000  0.6324950000000  0.6912680000000 1.0
C      1  0.5445200000000  0.5993960000000  0.2896210000000 1.0
C      1  0.5445230000000  0.2681090000000  0.5191090000000 1.0
C      1  0.4554750000000  0.6324950000000  0.3087320000000 1.0
C      1  0.4554800000000  0.5993960000000  0.7103790000000 1.0
C      1  0.4554770000000  0.2681090000000  0.4808910000000 1.0
C      1  0.5927320000000  0.3496400000000  0.4822200000000 1.0
C      1  0.5927350000000  0.5597830000000  0.6391040000000 1.0
C      1  0.5927310000000  0.5905770000000  0.3786730000000 1.0
C      1  0.4072680000000  0.3496400000000  0.5177800000000 1.0
C      1  0.4072650000000  0.5597830000000  0.3608960000000 1.0
C      1  0.4072690000000  0.5905770000000  0.6213270000000 1.0
END
