TITL C-3036479-9801-1025 -1.05191713735511e-05 3375 -341.791393836307 0 0 60 (C2) n - 1
REM
REM in /home/bkarasulu/work/CARBON/AIRSS/Generating-Clusters/REBO/Higher-Symm/Only-C60
REM
REM
REM
REM
REM
REM ./C.cell (a2850807a9bf4ad07a5b6933b78d9264)
REM AIRSS Version 0.9.1 bugfix July 2018 build 013d7b7c2542+ Fri, 06 Jul 2018 19:26:36 +0100
REM compiler GCC version 9.2.1 20190827 (Red Hat 9.2.1-1)
REM options -cpp -mtune=generic -march=x86-64 -g -O0 -fpre-include=/usr/include/finclude/math-vector-fortran.h
REM seed 914132539 -1469943741 111242301 -1112706804 1828950193 949851453 1507339994 -867754072 -773898868 -1807784637 -1837166177 -1239978476 2118384390 -1419401539 -633149251 1776677579 -573960983 1244812629 2089893161 -902462480 830757864 -461267574 -2081674865 1805078468 1261167068 1191831947 -1330051865 -1711769520 -1947117884 -1715554334 -223382504 -1515677338 6645197
REM
CELL 1.54180   15.00000   15.00000   15.00000   90.00000   90.00000   90.00000
LATT -1
SFAC C  
C      1  0.5551580000000  0.6824790000000  0.4125380000000 1.0
C      1  0.5595080000000  0.5916600000000  0.6698680000000 1.0
C      1  0.5551580000000  0.3175210000000  0.5874620000000 1.0
C      1  0.5595080000000  0.4083400000000  0.3301320000000 1.0
C      1  0.5683560000000  0.5964690000000  0.2593640000000 1.0
C      1  0.5670200000000  0.7492780000000  0.5834440000000 1.0
C      1  0.5683560000000  0.4035310000000  0.7406360000000 1.0
C      1  0.5670200000000  0.2507220000000  0.4165560000000 1.0
C      1  0.3980230000000  0.5947520000000  0.3203130000000 1.0
C      1  0.4050590000000  0.6732580000000  0.5851140000000 1.0
C      1  0.3980230000000  0.4052480000000  0.6796870000000 1.0
C      1  0.4050590000000  0.3267420000000  0.4148860000000 1.0
C      1  0.4444650000000  0.5639750000000  0.5215270000000 1.0
C      1  0.4484970000000  0.4744400000000  0.5789610000000 1.0
C      1  0.4444650000000  0.4360250000000  0.4784730000000 1.0
C      1  0.4484970000000  0.5255600000000  0.4210390000000 1.0
C      1  0.6387480000000  0.4542630000000  0.7126760000000 1.0
C      1  0.6438540000000  0.2676110000000  0.4615020000000 1.0
C      1  0.6387480000000  0.5457370000000  0.2873240000000 1.0
C      1  0.6438540000000  0.7323890000000  0.5384980000000 1.0
C      1  0.5162720000000  0.6422270000000  0.5103300000000 1.0
C      1  0.5171350000000  0.4905400000000  0.6543040000000 1.0
C      1  0.5162720000000  0.3577730000000  0.4896700000000 1.0
C      1  0.5171350000000  0.5094600000000  0.3456960000000 1.0
C      1  0.4528940000000  0.6053190000000  0.7032180000000 1.0
C      1  0.4550750000000  0.2742150000000  0.6024600000000 1.0
C      1  0.4528940000000  0.3946810000000  0.2967820000000 1.0
C      1  0.4550750000000  0.7257850000000  0.3975400000000 1.0
C      1  0.5047290000000  0.6829160000000  0.6389490000000 1.0
C      1  0.4965580000000  0.3483820000000  0.6779190000000 1.0
C      1  0.5047290000000  0.3170840000000  0.3610510000000 1.0
C      1  0.4965580000000  0.6516180000000  0.3220810000000 1.0
C      1  0.5762940000000  0.4449270000000  0.4626430000000 1.0
C      1  0.5789910000000  0.5519780000000  0.4237100000000 1.0
C      1  0.5762940000000  0.5550730000000  0.5373570000000 1.0
C      1  0.5789910000000  0.4480220000000  0.5762900000000 1.0
C      1  0.3674100000000  0.5762810000000  0.6054830000000 1.0
C      1  0.3627750000000  0.3993340000000  0.5769470000000 1.0
C      1  0.3674100000000  0.4237190000000  0.3945170000000 1.0
C      1  0.3627750000000  0.6006660000000  0.4230530000000 1.0
C      1  0.2801160000000  0.5472730000000  0.5636920000000 1.0
C      1  0.2815170000000  0.4468690000000  0.5395520000000 1.0
C      1  0.2801160000000  0.4527270000000  0.4363080000000 1.0
C      1  0.2815170000000  0.5531310000000  0.4604480000000 1.0
C      1  0.3903210000000  0.3133910000000  0.5270740000000 1.0
C      1  0.3933810000000  0.4817870000000  0.3056390000000 1.0
C      1  0.3903210000000  0.6866090000000  0.4729260000000 1.0
C      1  0.3933810000000  0.5182130000000  0.6943610000000 1.0
C      1  0.4716470000000  0.2543730000000  0.4727610000000 1.0
C      1  0.4708310000000  0.5440050000000  0.2493250000000 1.0
C      1  0.4716470000000  0.7456270000000  0.5272390000000 1.0
C      1  0.4708310000000  0.4559950000000  0.7506750000000 1.0
C      1  0.6842690000000  0.4729990000000  0.4381420000000 1.0
C      1  0.6826630000000  0.5829810000000  0.4631460000000 1.0
C      1  0.6842690000000  0.5270010000000  0.5618580000000 1.0
C      1  0.6826630000000  0.4170190000000  0.5368540000000 1.0
C      1  0.6444250000000  0.3211120000000  0.5355660000000 1.0
C      1  0.6440100000000  0.4696810000000  0.3388410000000 1.0
C      1  0.6444250000000  0.6788880000000  0.4644340000000 1.0
C      1  0.6440100000000  0.5303190000000  0.6611590000000 1.0
END
