TITL C-3036486-2224-767 0.0157677852393875 3375 -352.380769638999 0 0 60 (C5) n - 1
REM
REM in /home/bkarasulu/work/CARBON/AIRSS/Generating-Clusters/REBO/Higher-Symm/Only-C60
REM
REM
REM
REM
REM
REM ./C.cell (a2850807a9bf4ad07a5b6933b78d9264)
REM AIRSS Version 0.9.1 bugfix July 2018 build 013d7b7c2542+ Fri, 06 Jul 2018 19:26:36 +0100
REM compiler GCC version 9.2.1 20190827 (Red Hat 9.2.1-1)
REM options -cpp -mtune=generic -march=x86-64 -g -O0 -fpre-include=/usr/include/finclude/math-vector-fortran.h
REM seed -442405816 438030886 -1833749867 1751739853 -1337545026 -866203902 -1849652276 1298138081 -834321664 1563509602 1642016010 -1600905326 -1937963010 2058451374 -401132577 -1618379503 -1005129652 -1698934070 175599214 -1088024049 -1356884663 -1702126413 -1669682963 103311726 -1615742165 -1194001639 -1988907788 1487244117 534249790 -389077483 1645262129 1757254075 -329033121
REM
CELL 1.54180   15.00000   15.00000   15.00000   90.00000   90.00000   90.00000
LATT -1
SFAC C  
C      1  0.4320630000000  0.6982180000000  0.5787130000000 1.0
C      1  0.4320380000000  0.4863790000000  0.7128190000000 1.0
C      1  0.4321040000000  0.2933990000000  0.5527950000000 1.0
C      1  0.4320870000000  0.3859620000000  0.3198690000000 1.0
C      1  0.4321010000000  0.6360870000000  0.3358390000000 1.0
C      1  0.5040090000000  0.4456260000000  0.2763620000000 1.0
C      1  0.5040190000000  0.6958830000000  0.3791940000000 1.0
C      1  0.5039870000000  0.6754700000000  0.6489920000000 1.0
C      1  0.5039890000000  0.4125180000000  0.7128970000000 1.0
C      1  0.5040250000000  0.2704500000000  0.4825830000000 1.0
C      1  0.3773040000000  0.3242350000000  0.3975090000000 1.0
C      1  0.3773340000000  0.5431370000000  0.3011900000000 1.0
C      1  0.3773200000000  0.7024160000000  0.4795870000000 1.0
C      1  0.3772920000000  0.5819500000000  0.6862210000000 1.0
C      1  0.3773460000000  0.3482100000000  0.6354650000000 1.0
C      1  0.4868580000000  0.3081060000000  0.3832570000000 1.0
C      1  0.4868940000000  0.5517150000000  0.2814600000000 1.0
C      1  0.4868820000000  0.7238590000000  0.4816720000000 1.0
C      1  0.4868300000000  0.5866200000000  0.7072220000000 1.0
C      1  0.4868910000000  0.3296610000000  0.6463990000000 1.0
C      1  0.3059830000000  0.4235100000000  0.5530730000000 1.0
C      1  0.3059540000000  0.4258700000000  0.4436790000000 1.0
C      1  0.3059910000000  0.5306390000000  0.4121200000000 1.0
C      1  0.3060270000000  0.5930270000000  0.5019980000000 1.0
C      1  0.3060480000000  0.5268180000000  0.5890830000000 1.0
C      1  0.4579770000000  0.4692080000000  0.4195210000000 1.0
C      1  0.4580500000000  0.5670970000000  0.4458340000000 1.0
C      1  0.4581010000000  0.5723190000000  0.5470480000000 1.0
C      1  0.4580550000000  0.4776760000000  0.5832850000000 1.0
C      1  0.4579650000000  0.4139270000000  0.5044860000000 1.0
C      1  0.3502960000000  0.4503210000000  0.3449540000000 1.0
C      1  0.3503000000000  0.6320930000000  0.4048400000000 1.0
C      1  0.3503100000000  0.6312960000000  0.5962330000000 1.0
C      1  0.3503060000000  0.4490250000000  0.6546100000000 1.0
C      1  0.3502910000000  0.3371800000000  0.4993120000000 1.0
C      1  0.5888030000000  0.5767450000000  0.3100360000000 1.0
C      1  0.5887900000000  0.7043970000000  0.5142910000000 1.0
C      1  0.5887240000000  0.5495700000000  0.6987770000000 1.0
C      1  0.5887910000000  0.3262240000000  0.6085510000000 1.0
C      1  0.5887610000000  0.3430380000000  0.3682980000000 1.0
C      1  0.5937160000000  0.2855530000000  0.5147270000000 1.0
C      1  0.5937050000000  0.4197160000000  0.3006360000000 1.0
C      1  0.5937050000000  0.6647850000000  0.3620520000000 1.0
C      1  0.5936740000000  0.6821650000000  0.6141240000000 1.0
C      1  0.5936720000000  0.4477630000000  0.7084910000000 1.0
C      1  0.5657110000000  0.5934410000000  0.5187570000000 1.0
C      1  0.5657040000000  0.5110070000000  0.5946230000000 1.0
C      1  0.5656120000000  0.4133490000000  0.5397310000000 1.0
C      1  0.5655730000000  0.4353920000000  0.4298990000000 1.0
C      1  0.5656830000000  0.5467240000000  0.4168850000000 1.0
C      1  0.6482550000000  0.3343190000000  0.4544350000000 1.0
C      1  0.6482570000000  0.4921090000000  0.3283400000000 1.0
C      1  0.6482980000000  0.6608610000000  0.4394350000000 1.0
C      1  0.6482440000000  0.6073240000000  0.6342770000000 1.0
C      1  0.6482260000000  0.4054710000000  0.6435140000000 1.0
C      1  0.6889690000000  0.4555660000000  0.5721240000000 1.0
C      1  0.6889920000000  0.4177020000000  0.4800010000000 1.0
C      1  0.6890400000000  0.4935980000000  0.4155160000000 1.0
C      1  0.6890610000000  0.5783830000000  0.4677800000000 1.0
C      1  0.6890060000000  0.5548860000000  0.5645780000000 1.0
END
