TITL C-3036482-790-637 1.62433133558409e-05 3375 -334.54970741201 0 0 60 (Ci) n - 1
REM
REM in /home/bkarasulu/work/CARBON/AIRSS/Generating-Clusters/REBO/Higher-Symm/Only-C60
REM
REM
REM
REM
REM
REM ./C.cell (a2850807a9bf4ad07a5b6933b78d9264)
REM AIRSS Version 0.9.1 bugfix July 2018 build 013d7b7c2542+ Fri, 06 Jul 2018 19:26:36 +0100
REM compiler GCC version 9.2.1 20190827 (Red Hat 9.2.1-1)
REM options -cpp -mtune=generic -march=x86-64 -g -O0 -fpre-include=/usr/include/finclude/math-vector-fortran.h
REM seed -908926585 846049617 -1236459603 448380483 565337124 -197551634 1249262267 2086739215 -1531522723 1440513089 775548822 -1196767892 1238137762 -947040948 -1635766000 253581555 -1577285573 -1512828781 -1574682308 -1239394235 1327676106 1719540949 824550332 -1329365367 267323919 2021822615 1270429150 1031278455 241035733 857438557 -147114250 1910506908 -127525382
REM
CELL 1.54180   15.00000   15.00000   15.00000   90.00000   90.00000   90.00000
LATT -1
SFAC C  
C      1  0.5500770000000  0.3093200000000  0.4150210000000 1.0
C      1  0.4499230000000  0.6906810000000  0.5849790000000 1.0
C      1  0.6444370000000  0.7594160000000  0.5162390000000 1.0
C      1  0.3555630000000  0.2405840000000  0.4837610000000 1.0
C      1  0.4241340000000  0.2583600000000  0.5723180000000 1.0
C      1  0.5758660000000  0.7416400000000  0.4276820000000 1.0
C      1  0.4218290000000  0.6404430000000  0.7310620000000 1.0
C      1  0.5781710000000  0.3595570000000  0.2689380000000 1.0
C      1  0.5540920000000  0.4520670000000  0.3057330000000 1.0
C      1  0.4459070000000  0.5479320000000  0.6942670000000 1.0
C      1  0.5633000000000  0.5096890000000  0.4826400000000 1.0
C      1  0.4367000000000  0.4903110000000  0.5173600000000 1.0
C      1  0.6670610000000  0.4234830000000  0.5661510000000 1.0
C      1  0.3329390000000  0.5765170000000  0.4338490000000 1.0
C      1  0.6442010000000  0.5080690000000  0.6251990000000 1.0
C      1  0.3557990000000  0.4919310000000  0.3748010000000 1.0
C      1  0.6069170000000  0.6724370000000  0.3517020000000 1.0
C      1  0.3930830000000  0.3275630000000  0.6482980000000 1.0
C      1  0.6812680000000  0.4486500000000  0.4727520000000 1.0
C      1  0.3187310000000  0.5513500000000  0.5272480000000 1.0
C      1  0.5456460000000  0.6328810000000  0.2709230000000 1.0
C      1  0.4543540000000  0.3671190000000  0.7290770000000 1.0
C      1  0.4452050000000  0.6678080000000  0.4902780000000 1.0
C      1  0.5547950000000  0.3321920000000  0.5097220000000 1.0
C      1  0.5423380000000  0.6477690000000  0.5790690000000 1.0
C      1  0.4576620000000  0.3522310000000  0.4209310000000 1.0
C      1  0.4703120000000  0.7359170000000  0.4269350000000 1.0
C      1  0.5296880000000  0.2640830000000  0.5730650000000 1.0
C      1  0.3931810000000  0.5286010000000  0.6105360000000 1.0
C      1  0.6068180000000  0.4713990000000  0.3894640000000 1.0
C      1  0.3634740000000  0.2977280000000  0.4096720000000 1.0
C      1  0.6365260000000  0.7022720000000  0.5903280000000 1.0
C      1  0.5854880000000  0.2932000000000  0.3310800000000 1.0
C      1  0.4145120000000  0.7068000000000  0.6689200000000 1.0
C      1  0.6447480000000  0.5775850000000  0.4015450000000 1.0
C      1  0.3552520000000  0.4224150000000  0.5984550000000 1.0
C      1  0.4082270000000  0.3573030000000  0.5199560000000 1.0
C      1  0.5917730000000  0.6426970000000  0.4800440000000 1.0
C      1  0.5934700000000  0.2698430000000  0.6436870000000 1.0
C      1  0.4065310000000  0.7301570000000  0.3563140000000 1.0
C      1  0.3787660000000  0.6515450000000  0.2850220000000 1.0
C      1  0.6212340000000  0.3484550000000  0.7149780000000 1.0
C      1  0.7388670000000  0.5348740000000  0.4754960000000 1.0
C      1  0.2611330000000  0.4651260000000  0.5245040000000 1.0
C      1  0.6682370000000  0.3455080000000  0.6188520000000 1.0
C      1  0.3317630000000  0.6544920000000  0.3811480000000 1.0
C      1  0.6447440000000  0.5610100000000  0.5332890000000 1.0
C      1  0.3552560000000  0.4389900000000  0.4667110000000 1.0
C      1  0.6104980000000  0.6097870000000  0.6525560000000 1.0
C      1  0.3895020000000  0.3902120000000  0.3474440000000 1.0
C      1  0.5246940000000  0.4244320000000  0.5392310000000 1.0
C      1  0.4753060000000  0.5755690000000  0.4607690000000 1.0
C      1  0.5339470000000  0.5851440000000  0.3747120000000 1.0
C      1  0.4660530000000  0.4148560000000  0.6252880000000 1.0
C      1  0.5424800000000  0.5289110000000  0.2334680000000 1.0
C      1  0.4575200000000  0.4710890000000  0.7665320000000 1.0
C      1  0.4457170000000  0.5836710000000  0.2584580000000 1.0
C      1  0.5542830000000  0.4163290000000  0.7415420000000 1.0
C      1  0.5558390000000  0.5188650000000  0.6932450000000 1.0
C      1  0.4441610000000  0.4811350000000  0.3067540000000 1.0
END
