TITL C-3036483-1610-598 -6.58476321115778e-07 3375 -338.363726247658 0 0 60 (D3) n - 1
REM
REM in /home/bkarasulu/work/CARBON/AIRSS/Generating-Clusters/REBO/Higher-Symm/Only-C60
REM
REM
REM
REM
REM
REM ./C.cell (a2850807a9bf4ad07a5b6933b78d9264)
REM AIRSS Version 0.9.1 bugfix July 2018 build 013d7b7c2542+ Fri, 06 Jul 2018 19:26:36 +0100
REM compiler GCC version 9.2.1 20190827 (Red Hat 9.2.1-1)
REM options -cpp -mtune=generic -march=x86-64 -g -O0 -fpre-include=/usr/include/finclude/math-vector-fortran.h
REM seed -1134227024 534021566 1100833677 2089803266 1013866796 -1900965388 2032923995 -1815322274 -1689579706 -590741228 -1680406104 3730788 357035471 751704982 -292058069 2129421223 461012838 1551349399 789592577 588995422 337985629 -1109171197 1540535782 1839594617 -1395896640 329177580 -1566965482 -1597334086 568491682 488685647 -719844371 -174070048 2125667498
REM
CELL 1.54180   15.00000   15.00000   15.00000   90.00000   90.00000   90.00000
LATT -1
SFAC C  
C      1  0.4199670000000  0.4253850000000  0.6842700000000 1.0
C      1  0.5246550000000  0.3950610000000  0.6764730000000 1.0
C      1  0.6046360000000  0.4680020000000  0.6842700000000 1.0
C      1  0.5785550000000  0.5738260000000  0.6764660000000 1.0
C      1  0.4753960000000  0.6066230000000  0.6842650000000 1.0
C      1  0.3967910000000  0.5311220000000  0.6764690000000 1.0
C      1  0.5785540000000  0.4261740000000  0.3235340000000 1.0
C      1  0.4753960000000  0.3933770000000  0.3157350000000 1.0
C      1  0.3967910000000  0.4688780000000  0.3235310000000 1.0
C      1  0.4199670000000  0.5746150000000  0.3157300000000 1.0
C      1  0.5246550000000  0.6049390000000  0.3235270000000 1.0
C      1  0.6046360000000  0.5319980000000  0.3157290000000 1.0
C      1  0.2359270000000  0.5882250000000  0.5009720000000 1.0
C      1  0.2883840000000  0.3114550000000  0.5050290000000 1.0
C      1  0.5556310000000  0.2271980000000  0.5009730000000 1.0
C      1  0.7690940000000  0.4110090000000  0.5050250000000 1.0
C      1  0.7084450000000  0.6845820000000  0.5009730000000 1.0
C      1  0.4425220000000  0.7775360000000  0.5050230000000 1.0
C      1  0.7690940000000  0.5889910000000  0.4949740000000 1.0
C      1  0.7084440000000  0.3154180000000  0.4990270000000 1.0
C      1  0.4425220000000  0.2224640000000  0.4949780000000 1.0
C      1  0.2359270000000  0.4117750000000  0.4990280000000 1.0
C      1  0.2883850000000  0.6885450000000  0.4949710000000 1.0
C      1  0.5556310000000  0.7728020000000  0.4990270000000 1.0
C      1  0.3630850000000  0.3933500000000  0.5339580000000 1.0
C      1  0.5129680000000  0.3074360000000  0.5692660000000 1.0
C      1  0.6608200000000  0.4347520000000  0.5339550000000 1.0
C      1  0.6602850000000  0.6075160000000  0.5692650000000 1.0
C      1  0.4760920000000  0.6718940000000  0.5339530000000 1.0
C      1  0.3267480000000  0.5850530000000  0.5692640000000 1.0
C      1  0.6602850000000  0.3924840000000  0.4307340000000 1.0
C      1  0.4760920000000  0.3281060000000  0.4660470000000 1.0
C      1  0.3267470000000  0.4149470000000  0.4307370000000 1.0
C      1  0.3630850000000  0.6066500000000  0.4660430000000 1.0
C      1  0.5129680000000  0.6925640000000  0.4307340000000 1.0
C      1  0.6608200000000  0.5652480000000  0.4660440000000 1.0
C      1  0.6252100000000  0.2899360000000  0.5663770000000 1.0
C      1  0.7443340000000  0.5044510000000  0.5661190000000 1.0
C      1  0.6193250000000  0.7134730000000  0.5663810000000 1.0
C      1  0.3739760000000  0.7093760000000  0.5661160000000 1.0
C      1  0.2554690000000  0.4966000000000  0.5663790000000 1.0
C      1  0.3816880000000  0.2861760000000  0.5661220000000 1.0
C      1  0.3739760000000  0.2906250000000  0.4338840000000 1.0
C      1  0.2554690000000  0.5034000000000  0.4336210000000 1.0
C      1  0.3816880000000  0.7138240000000  0.4338780000000 1.0
C      1  0.6252100000000  0.7100630000000  0.4336230000000 1.0
C      1  0.7443340000000  0.4955490000000  0.4338800000000 1.0
C      1  0.6193250000000  0.2865270000000  0.4336190000000 1.0
C      1  0.3754000000000  0.3628740000000  0.3527410000000 1.0
C      1  0.5415390000000  0.3477760000000  0.3909220000000 1.0
C      1  0.6810530000000  0.4606540000000  0.3527380000000 1.0
C      1  0.6110560000000  0.6120800000000  0.3909140000000 1.0
C      1  0.4435480000000  0.6764650000000  0.3527370000000 1.0
C      1  0.3474030000000  0.5401350000000  0.3909160000000 1.0
C      1  0.6110560000000  0.3879200000000  0.6090850000000 1.0
C      1  0.4435480000000  0.3235350000000  0.6472630000000 1.0
C      1  0.3474040000000  0.4598650000000  0.6090840000000 1.0
C      1  0.3754010000000  0.6371260000000  0.6472590000000 1.0
C      1  0.5415390000000  0.6522240000000  0.6090780000000 1.0
C      1  0.6810530000000  0.5393460000000  0.6472620000000 1.0
END
