TITL C-3036482-790-84 -4.29426250214848e-06 3375 -356.333713060175 0 0 60 (C1) n - 1
REM
REM in /home/bkarasulu/work/CARBON/AIRSS/Generating-Clusters/REBO/Higher-Symm/Only-C60
REM
REM
REM
REM
REM
REM ./C.cell (a2850807a9bf4ad07a5b6933b78d9264)
REM AIRSS Version 0.9.1 bugfix July 2018 build 013d7b7c2542+ Fri, 06 Jul 2018 19:26:36 +0100
REM compiler GCC version 9.2.1 20190827 (Red Hat 9.2.1-1)
REM options -cpp -mtune=generic -march=x86-64 -g -O0 -fpre-include=/usr/include/finclude/math-vector-fortran.h
REM seed -614021164 467139562 1280407138 14289576 -2146263558 57472840 -1467912787 -2091707930 -1436416797 -1149709151 876477197 -1814870162 522973849 -370614313 1420326693 2051324360 880809819 2053864406 366160851 -609421934 2091018852 1260426521 381441405 1499971572 -944389591 1283619624 458844437 -663778750 1361065239 -2124109798 749154827 -2073756747 -92398975
REM
CELL 1.54180   15.00000   15.00000   15.00000   90.00000   90.00000   90.00000
LATT -1
SFAC C  
C      1  0.6434420000000  0.6143220000000  0.3617150000000 1.0
C      1  0.6421790000000  0.3922190000000  0.3532430000000 1.0
C      1  0.6485900000000  0.3225700000000  0.5486320000000 1.0
C      1  0.6470440000000  0.4875340000000  0.6823060000000 1.0
C      1  0.6439750000000  0.6653540000000  0.5700080000000 1.0
C      1  0.3609960000000  0.6217280000000  0.3591940000000 1.0
C      1  0.3637680000000  0.3948250000000  0.3512250000000 1.0
C      1  0.3566890000000  0.3234340000000  0.5506870000000 1.0
C      1  0.3594000000000  0.4882070000000  0.6816960000000 1.0
C      1  0.3544770000000  0.6684910000000  0.5701930000000 1.0
C      1  0.6019590000000  0.5693200000000  0.6980100000000 1.0
C      1  0.5971550000000  0.7001220000000  0.4963590000000 1.0
C      1  0.6037560000000  0.5499060000000  0.3054150000000 1.0
C      1  0.6021820000000  0.3093310000000  0.3829050000000 1.0
C      1  0.6033890000000  0.3337410000000  0.6308000000000 1.0
C      1  0.4045820000000  0.5708910000000  0.6967630000000 1.0
C      1  0.3957010000000  0.7076290000000  0.4934240000000 1.0
C      1  0.4009530000000  0.5564760000000  0.3022180000000 1.0
C      1  0.4045480000000  0.3144780000000  0.3825260000000 1.0
C      1  0.4029300000000  0.3332120000000  0.6326250000000 1.0
C      1  0.4003330000000  0.7081670000000  0.3880390000000 1.0
C      1  0.4033390000000  0.4522300000000  0.2812990000000 1.0
C      1  0.4030810000000  0.2740510000000  0.4785430000000 1.0
C      1  0.4054330000000  0.4046930000000  0.7054380000000 1.0
C      1  0.4058800000000  0.6624790000000  0.6517520000000 1.0
C      1  0.5969830000000  0.6939590000000  0.3936270000000 1.0
C      1  0.6002740000000  0.4484890000000  0.2827330000000 1.0
C      1  0.6028650000000  0.2701770000000  0.4785700000000 1.0
C      1  0.6014750000000  0.4048730000000  0.7040490000000 1.0
C      1  0.6001810000000  0.6627220000000  0.6553240000000 1.0
C      1  0.2932410000000  0.5854800000000  0.5502910000000 1.0
C      1  0.3309760000000  0.5776370000000  0.4455310000000 1.0
C      1  0.3406020000000  0.4466040000000  0.4316040000000 1.0
C      1  0.3035190000000  0.4065410000000  0.5276420000000 1.0
C      1  0.3063540000000  0.4883350000000  0.6038670000000 1.0
C      1  0.7046830000000  0.5899080000000  0.5481890000000 1.0
C      1  0.7023090000000  0.5711230000000  0.4372010000000 1.0
C      1  0.6636810000000  0.4439600000000  0.4301030000000 1.0
C      1  0.7003440000000  0.4053280000000  0.5222370000000 1.0
C      1  0.7025450000000  0.4885450000000  0.6002320000000 1.0
C      1  0.4937040000000  0.6657690000000  0.4729430000000 1.0
C      1  0.5028160000000  0.5243360000000  0.3329370000000 1.0
C      1  0.5026280000000  0.3710440000000  0.6193790000000 1.0
C      1  0.5032150000000  0.5715730000000  0.6545410000000 1.0
C      1  0.5044780000000  0.3366540000000  0.4167980000000 1.0
C      1  0.5017110000000  0.4181860000000  0.2534310000000 1.0
C      1  0.5027700000000  0.7045640000000  0.6527030000000 1.0
C      1  0.5023840000000  0.2370450000000  0.5045010000000 1.0
C      1  0.5036910000000  0.4171520000000  0.7440200000000 1.0
C      1  0.5014750000000  0.7200140000000  0.3517800000000 1.0
C      1  0.5044800000000  0.3474910000000  0.5214210000000 1.0
C      1  0.5048620000000  0.6311000000000  0.5685560000000 1.0
C      1  0.4922330000000  0.6138510000000  0.3805900000000 1.0
C      1  0.5029540000000  0.4716430000000  0.6455820000000 1.0
C      1  0.5004570000000  0.4247670000000  0.3666030000000 1.0
C      1  0.6005680000000  0.5206420000000  0.4461450000000 1.0
C      1  0.4240480000000  0.5140280000000  0.4557360000000 1.0
C      1  0.7593960000000  0.5006630000000  0.5025510000000 1.0
C      1  0.2562660000000  0.5008130000000  0.4829450000000 1.0
C      1  0.5112640000000  0.5133770000000  0.4655690000000 1.0
END
