TITL C-3036484-3770-843 6.75749189957396e-07 3375 -347.863670305972 0 0 60 (C2) n - 1
REM
REM in /home/bkarasulu/work/CARBON/AIRSS/Generating-Clusters/REBO/Higher-Symm/Only-C60
REM
REM
REM
REM
REM
REM ./C.cell (a2850807a9bf4ad07a5b6933b78d9264)
REM AIRSS Version 0.9.1 bugfix July 2018 build 013d7b7c2542+ Fri, 06 Jul 2018 19:26:36 +0100
REM compiler GCC version 9.2.1 20190827 (Red Hat 9.2.1-1)
REM options -cpp -mtune=generic -march=x86-64 -g -O0 -fpre-include=/usr/include/finclude/math-vector-fortran.h
REM seed -665829243 -1010915331 1963022461 265600417 1832928479 1181991892 -581966535 -199538260 1586379322 -1461534170 -1976036050 505998890 623765774 1832865569 1255914590 -1608362606 -2019282211 534206943 -736534613 1340249976 498667939 -74383275 -1910953296 1656405287 976351950 324856570 -1956015066 241502728 -390739143 387096410 -1839806121 2089017577 133339464
REM
CELL 1.54180   15.00000   15.00000   15.00000   90.00000   90.00000   90.00000
LATT -1
SFAC C  
C      1  0.3792540000000  0.6083730000000  0.3789610000000 1.0
C      1  0.6089920000000  0.6266660000000  0.3854500000000 1.0
C      1  0.6207460000000  0.3916270000000  0.3789610000000 1.0
C      1  0.3910080000000  0.3733340000000  0.3854500000000 1.0
C      1  0.3817160000000  0.6124660000000  0.6334380000000 1.0
C      1  0.6120430000000  0.6238980000000  0.6277750000000 1.0
C      1  0.6182840000000  0.3875340000000  0.6334380000000 1.0
C      1  0.3879570000000  0.3761020000000  0.6277750000000 1.0
C      1  0.5732080000000  0.5444130000000  0.6873740000000 1.0
C      1  0.5363590000000  0.4443020000000  0.6811940000000 1.0
C      1  0.4267920000000  0.4555870000000  0.6873740000000 1.0
C      1  0.4636410000000  0.5556980000000  0.6811940000000 1.0
C      1  0.5724030000000  0.5462110000000  0.3246150000000 1.0
C      1  0.5374190000000  0.4450620000000  0.3306510000000 1.0
C      1  0.4275970000000  0.4537890000000  0.3246150000000 1.0
C      1  0.4625810000000  0.5549380000000  0.3306510000000 1.0
C      1  0.3218230000000  0.3202350000000  0.4524720000000 1.0
C      1  0.3362260000000  0.6801810000000  0.4523080000000 1.0
C      1  0.6781770000000  0.6797650000000  0.4524720000000 1.0
C      1  0.6637740000000  0.3198190000000  0.4523080000000 1.0
C      1  0.3241020000000  0.3225650000000  0.5589140000000 1.0
C      1  0.3391840000000  0.6804530000000  0.5589250000000 1.0
C      1  0.6758980000000  0.6774350000000  0.5589140000000 1.0
C      1  0.6608160000000  0.3195470000000  0.5589250000000 1.0
C      1  0.6283260000000  0.4975290000000  0.4121630000000 1.0
C      1  0.4935730000000  0.3845760000000  0.4165140000000 1.0
C      1  0.3716740000000  0.5024710000000  0.4121630000000 1.0
C      1  0.5064270000000  0.6154240000000  0.4165140000000 1.0
C      1  0.6289450000000  0.4947060000000  0.6002350000000 1.0
C      1  0.4912040000000  0.3845040000000  0.5957220000000 1.0
C      1  0.3710550000000  0.5052940000000  0.6002350000000 1.0
C      1  0.5087960000000  0.6154960000000  0.5957220000000 1.0
C      1  0.3953670000000  0.2440530000000  0.5324560000000 1.0
C      1  0.2620200000000  0.6071180000000  0.5343550000000 1.0
C      1  0.6046330000000  0.7559470000000  0.5324560000000 1.0
C      1  0.7379800000000  0.3928820000000  0.5343550000000 1.0
C      1  0.3955810000000  0.2386080000000  0.4241480000000 1.0
C      1  0.2549510000000  0.6055580000000  0.4252620000000 1.0
C      1  0.6044190000000  0.7613920000000  0.4241480000000 1.0
C      1  0.7450490000000  0.3944420000000  0.4252620000000 1.0
C      1  0.4971350000000  0.2303180000000  0.4491100000000 1.0
C      1  0.2444100000000  0.5057100000000  0.4511880000000 1.0
C      1  0.5028650000000  0.7696820000000  0.4491100000000 1.0
C      1  0.7555900000000  0.4942900000000  0.4511880000000 1.0
C      1  0.4977900000000  0.2293740000000  0.5517320000000 1.0
C      1  0.2465070000000  0.5063870000000  0.5527650000000 1.0
C      1  0.5022100000000  0.7706260000000  0.5517320000000 1.0
C      1  0.7534930000000  0.4936130000000  0.5527650000000 1.0
C      1  0.5555800000000  0.2993670000000  0.5937850000000 1.0
C      1  0.2914520000000  0.4245480000000  0.5964770000000 1.0
C      1  0.4444200000000  0.7006330000000  0.5937850000000 1.0
C      1  0.7085480000000  0.5754520000000  0.5964770000000 1.0
C      1  0.5603040000000  0.3003400000000  0.4131650000000 1.0
C      1  0.2919570000000  0.4217980000000  0.4116520000000 1.0
C      1  0.4396960000000  0.6996600000000  0.4131650000000 1.0
C      1  0.7080430000000  0.5782020000000  0.4116520000000 1.0
C      1  0.4972990000000  0.4336220000000  0.5061200000000 1.0
C      1  0.4166460000000  0.5027880000000  0.5061400000000 1.0
C      1  0.5027010000000  0.5663780000000  0.5061200000000 1.0
C      1  0.5833540000000  0.4972120000000  0.5061400000000 1.0
END
