TITL C-3036485-3770-717 2.74626095759138e-06 3375 -365.0526347567 0 0 60 (D2) n - 1
REM
REM in /home/bkarasulu/work/CARBON/AIRSS/Generating-Clusters/REBO/Higher-Symm/Only-C60
REM
REM
REM
REM
REM
REM ./C.cell (a2850807a9bf4ad07a5b6933b78d9264)
REM AIRSS Version 0.9.1 bugfix July 2018 build 013d7b7c2542+ Fri, 06 Jul 2018 19:26:36 +0100
REM compiler GCC version 9.2.1 20190827 (Red Hat 9.2.1-1)
REM options -cpp -mtune=generic -march=x86-64 -g -O0 -fpre-include=/usr/include/finclude/math-vector-fortran.h
REM seed -749420913 -355305694 -995325257 676653975 -1815847345 687300898 175787535 -477902109 -959083711 671338848 801329775 1060059401 -1445081606 -227586431 179116501 -2134815781 -640601412 468123800 2032672087 146037067 1839525370 -2020396201 667148000 -30468889 1603827172 111397910 612580300 -946316869 -781281614 1558940329 339031337 74263621 -1075968006
REM
CELL 1.54180   15.00000   15.00000   15.00000   90.00000   90.00000   90.00000
LATT -1
SFAC C  
C      1  0.4286160000000  0.5789800000000  0.4518660000000 1.0
C      1  0.5362000000000  0.5822730000000  0.4441210000000 1.0
C      1  0.5713830000000  0.5789760000000  0.5481440000000 1.0
C      1  0.4637990000000  0.5822760000000  0.5558900000000 1.0
C      1  0.5713610000000  0.4129930000000  0.4518330000000 1.0
C      1  0.4637740000000  0.4097000000000  0.4441380000000 1.0
C      1  0.4286390000000  0.4129970000000  0.5481780000000 1.0
C      1  0.5362270000000  0.4096970000000  0.5558730000000 1.0
C      1  0.5975280000000  0.4416410000000  0.3244470000000 1.0
C      1  0.6911330000000  0.4336240000000  0.5933340000000 1.0
C      1  0.4024630000000  0.4416490000000  0.6755600000000 1.0
C      1  0.3088860000000  0.4336190000000  0.4066530000000 1.0
C      1  0.4023900000000  0.5503320000000  0.3244920000000 1.0
C      1  0.3089100000000  0.5583480000000  0.5934220000000 1.0
C      1  0.5976190000000  0.5503230000000  0.6755150000000 1.0
C      1  0.6910720000000  0.5583530000000  0.4065640000000 1.0
C      1  0.4279790000000  0.2378510000000  0.5355120000000 1.0
C      1  0.4707170000000  0.2403800000000  0.4408800000000 1.0
C      1  0.5720200000000  0.2378490000000  0.4644890000000 1.0
C      1  0.5292820000000  0.2403760000000  0.5591210000000 1.0
C      1  0.5720370000000  0.7541220000000  0.5354790000000 1.0
C      1  0.5292550000000  0.7515930000000  0.4408670000000 1.0
C      1  0.4279630000000  0.7541230000000  0.4645230000000 1.0
C      1  0.4707450000000  0.7515970000000  0.5591350000000 1.0
C      1  0.5567250000000  0.6739870000000  0.3886300000000 1.0
C      1  0.6256090000000  0.6768790000000  0.5626240000000 1.0
C      1  0.4432750000000  0.6739950000000  0.6113750000000 1.0
C      1  0.3743890000000  0.6768800000000  0.4373820000000 1.0
C      1  0.4432230000000  0.3179860000000  0.3886570000000 1.0
C      1  0.3744210000000  0.3150940000000  0.5626830000000 1.0
C      1  0.5567770000000  0.3179780000000  0.6113480000000 1.0
C      1  0.6255820000000  0.3150920000000  0.4373230000000 1.0
C      1  0.4847290000000  0.4498370000000  0.7221510000000 1.0
C      1  0.2647020000000  0.4485730000000  0.4886500000000 1.0
C      1  0.5152660000000  0.4498350000000  0.2778520000000 1.0
C      1  0.7353030000000  0.4485800000000  0.5113320000000 1.0
C      1  0.5153760000000  0.5421360000000  0.7221440000000 1.0
C      1  0.7352930000000  0.5433990000000  0.4885410000000 1.0
C      1  0.4846300000000  0.5421380000000  0.2778590000000 1.0
C      1  0.2647020000000  0.5433920000000  0.5114400000000 1.0
C      1  0.3416950000000  0.6177800000000  0.3488650000000 1.0
C      1  0.6455070000000  0.6203540000000  0.3455790000000 1.0
C      1  0.6583120000000  0.6177710000000  0.6511330000000 1.0
C      1  0.3545080000000  0.6203220000000  0.6544150000000 1.0
C      1  0.6582340000000  0.3741940000000  0.3487920000000 1.0
C      1  0.3544200000000  0.3716160000000  0.3456460000000 1.0
C      1  0.3417590000000  0.3742020000000  0.6512070000000 1.0
C      1  0.6455660000000  0.3716480000000  0.6543470000000 1.0
C      1  0.7136550000000  0.6049460000000  0.5576430000000 1.0
C      1  0.4501720000000  0.6078910000000  0.7034610000000 1.0
C      1  0.2863420000000  0.6049460000000  0.4423460000000 1.0
C      1  0.5498390000000  0.6078920000000  0.2965370000000 1.0
C      1  0.2863720000000  0.3870270000000  0.5577420000000 1.0
C      1  0.5499230000000  0.3840810000000  0.7034380000000 1.0
C      1  0.7136310000000  0.3870270000000  0.4422470000000 1.0
C      1  0.4500650000000  0.3840800000000  0.2965600000000 1.0
C      1  0.5980220000000  0.5079090000000  0.4059370000000 1.0
C      1  0.5980710000000  0.4840540000000  0.5940240000000 1.0
C      1  0.4019730000000  0.5079190000000  0.5940700000000 1.0
C      1  0.4019340000000  0.4840640000000  0.4059830000000 1.0
END
