TITL C-3036485-3770-232 -3.52492991756093e-06 3375 -319.297204134856 0 0 60 (C1) n - 1
REM
REM in /home/bkarasulu/work/CARBON/AIRSS/Generating-Clusters/REBO/Higher-Symm/Only-C60
REM
REM
REM
REM
REM
REM ./C.cell (a2850807a9bf4ad07a5b6933b78d9264)
REM AIRSS Version 0.9.1 bugfix July 2018 build 013d7b7c2542+ Fri, 06 Jul 2018 19:26:36 +0100
REM compiler GCC version 9.2.1 20190827 (Red Hat 9.2.1-1)
REM options -cpp -mtune=generic -march=x86-64 -g -O0 -fpre-include=/usr/include/finclude/math-vector-fortran.h
REM seed 516042446 -1574914817 1526554824 -2143622338 1756499129 -586485362 -184987848 1739099442 -307025801 -456823680 772213993 -1763251693 1626317835 -1773194877 1581206524 1844578524 -1470363996 1929271968 489154573 1860872031 -459630988 -1750873426 316663146 -597448873 -1078717525 -1117547853 -61743013 712792970 827698190 -1878872577 1078831851 284938751 -397299139
REM
CELL 1.54180   15.00000   15.00000   15.00000   90.00000   90.00000   90.00000
LATT -1
SFAC C  
C      1  0.5543140000000  0.4353960000000  0.2465980000000 1.0
C      1  0.2498520000000  0.5534870000000  0.4544620000000 1.0
C      1  0.4501320000000  0.2556790000000  0.5390770000000 1.0
C      1  0.5556760000000  0.5446800000000  0.7466780000000 1.0
C      1  0.4283990000000  0.5602540000000  0.2423310000000 1.0
C      1  0.4606780000000  0.4493900000000  0.7435140000000 1.0
C      1  0.2552710000000  0.4596220000000  0.5514080000000 1.0
C      1  0.7521240000000  0.4413050000000  0.4332420000000 1.0
C      1  0.7571230000000  0.5619520000000  0.5707910000000 1.0
C      1  0.4348080000000  0.7531720000000  0.4366730000000 1.0
C      1  0.5674560000000  0.7570470000000  0.5633810000000 1.0
C      1  0.5448520000000  0.2534300000000  0.4438230000000 1.0
C      1  0.4421450000000  0.4503350000000  0.2477740000000 1.0
C      1  0.7415960000000  0.5514860000000  0.4589730000000 1.0
C      1  0.5627130000000  0.2519710000000  0.5557760000000 1.0
C      1  0.4436460000000  0.5619290000000  0.7479960000000 1.0
C      1  0.5404870000000  0.5482980000000  0.2567470000000 1.0
C      1  0.5720940000000  0.4351620000000  0.7589910000000 1.0
C      1  0.7504010000000  0.4513260000000  0.5460220000000 1.0
C      1  0.2477170000000  0.4411410000000  0.4392450000000 1.0
C      1  0.2421790000000  0.5715520000000  0.5640210000000 1.0
C      1  0.5469280000000  0.7478290000000  0.4519860000000 1.0
C      1  0.4553490000000  0.7496290000000  0.5483790000000 1.0
C      1  0.4352950000000  0.2410670000000  0.4276590000000 1.0
C      1  0.4572260000000  0.6480960000000  0.2851120000000 1.0
C      1  0.2991240000000  0.4362750000000  0.6510010000000 1.0
C      1  0.6399070000000  0.2947230000000  0.4573880000000 1.0
C      1  0.4368750000000  0.3504310000000  0.6987210000000 1.0
C      1  0.5624490000000  0.3315690000000  0.2757150000000 1.0
C      1  0.5417030000000  0.6398050000000  0.7057450000000 1.0
C      1  0.2856580000000  0.5380120000000  0.3577490000000 1.0
C      1  0.7267810000000  0.5638210000000  0.6741880000000 1.0
C      1  0.7153870000000  0.4380910000000  0.3326910000000 1.0
C      1  0.6694780000000  0.7237900000000  0.5699850000000 1.0
C      1  0.3325420000000  0.7197490000000  0.4317050000000 1.0
C      1  0.3511030000000  0.2999450000000  0.5639860000000 1.0
C      1  0.5627110000000  0.6491250000000  0.2967690000000 1.0
C      1  0.7149080000000  0.4605820000000  0.6441130000000 1.0
C      1  0.3492860000000  0.2873500000000  0.4584200000000 1.0
C      1  0.5422900000000  0.3491610000000  0.7122180000000 1.0
C      1  0.4570580000000  0.3534880000000  0.2828400000000 1.0
C      1  0.4367980000000  0.6633630000000  0.7121140000000 1.0
C      1  0.6965800000000  0.5396020000000  0.3645780000000 1.0
C      1  0.2880740000000  0.5420170000000  0.6504900000000 1.0
C      1  0.2790240000000  0.4325630000000  0.3363450000000 1.0
C      1  0.3581850000000  0.7128020000000  0.5363600000000 1.0
C      1  0.6430050000000  0.7087430000000  0.4663450000000 1.0
C      1  0.6640300000000  0.2881360000000  0.5621550000000 1.0
C      1  0.7218110000000  0.3579500000000  0.4973310000000 1.0
C      1  0.2746740000000  0.6512620000000  0.4979720000000 1.0
C      1  0.4990320000000  0.2726240000000  0.3457580000000 1.0
C      1  0.4975490000000  0.2805700000000  0.6371280000000 1.0
C      1  0.5014950000000  0.7201360000000  0.3566780000000 1.0
C      1  0.5016510000000  0.7223640000000  0.6434480000000 1.0
C      1  0.7230680000000  0.6462430000000  0.5105480000000 1.0
C      1  0.6539910000000  0.4991710000000  0.7281390000000 1.0
C      1  0.2803410000000  0.3614280000000  0.5043520000000 1.0
C      1  0.6360300000000  0.4963790000000  0.2814910000000 1.0
C      1  0.3622930000000  0.4968090000000  0.7196670000000 1.0
C      1  0.3466460000000  0.4966840000000  0.2752050000000 1.0
END
