TITL C-3036486-2224-644 1.18771405023418e-05 3375 -334.333807095663 0 0 60 (C1) n - 1
REM
REM in /home/bkarasulu/work/CARBON/AIRSS/Generating-Clusters/REBO/Higher-Symm/Only-C60
REM
REM
REM
REM
REM
REM ./C.cell (a2850807a9bf4ad07a5b6933b78d9264)
REM AIRSS Version 0.9.1 bugfix July 2018 build 013d7b7c2542+ Fri, 06 Jul 2018 19:26:36 +0100
REM compiler GCC version 9.2.1 20190827 (Red Hat 9.2.1-1)
REM options -cpp -mtune=generic -march=x86-64 -g -O0 -fpre-include=/usr/include/finclude/math-vector-fortran.h
REM seed 822145625 2082197499 1461537548 -141921792 1289646880 -1556185246 910324258 1517404061 813231534 -371248511 -773366235 147856880 -774712654 449528969 -756789930 43836053 -1662292562 -583805097 -610673521 1311678909 -153822597 698281912 122567611 -9473559 315005384 1558008089 1108723451 1738344358 -2088007589 847112659 -1542285735 580328142 2130052886
REM
CELL 1.54180   15.00000   15.00000   15.00000   90.00000   90.00000   90.00000
LATT -1
SFAC C  
C      1  0.3588830000000  0.4477980000000  0.3080760000000 1.0
C      1  0.3639480000000  0.4486760000000  0.6936700000000 1.0
C      1  0.5574080000000  0.6732370000000  0.5455990000000 1.0
C      1  0.5408690000000  0.6763990000000  0.4395290000000 1.0
C      1  0.4851460000000  0.6381020000000  0.1757050000000 1.0
C      1  0.4600620000000  0.6308410000000  0.7973240000000 1.0
C      1  0.6473220000000  0.6391900000000  0.4524150000000 1.0
C      1  0.6618120000000  0.6363910000000  0.5589500000000 1.0
C      1  0.5531930000000  0.5147830000000  0.6556950000000 1.0
C      1  0.5424160000000  0.5269390000000  0.3393220000000 1.0
C      1  0.4038880000000  0.3016820000000  0.6319100000000 1.0
C      1  0.4052380000000  0.2978100000000  0.3612450000000 1.0
C      1  0.5549520000000  0.5438820000000  0.4413850000000 1.0
C      1  0.5699750000000  0.5377800000000  0.5503670000000 1.0
C      1  0.4666550000000  0.6086200000000  0.4107760000000 1.0
C      1  0.4858780000000  0.6057610000000  0.5876280000000 1.0
C      1  0.6233300000000  0.3816010000000  0.6178260000000 1.0
C      1  0.6138430000000  0.3843590000000  0.3926050000000 1.0
C      1  0.4364440000000  0.4081210000000  0.7422930000000 1.0
C      1  0.4334040000000  0.4129930000000  0.2575700000000 1.0
C      1  0.6348230000000  0.4659930000000  0.4587690000000 1.0
C      1  0.6542790000000  0.4605720000000  0.5572190000000 1.0
C      1  0.3638200000000  0.6115630000000  0.3852780000000 1.0
C      1  0.3826230000000  0.6126470000000  0.6176350000000 1.0
C      1  0.4446500000000  0.3199890000000  0.2793810000000 1.0
C      1  0.4425270000000  0.3158170000000  0.7159970000000 1.0
C      1  0.5250370000000  0.5739300000000  0.7495350000000 1.0
C      1  0.5342810000000  0.5803040000000  0.2388590000000 1.0
C      1  0.4675640000000  0.3008580000000  0.5526510000000 1.0
C      1  0.4661360000000  0.2867110000000  0.4399350000000 1.0
C      1  0.3285000000000  0.3668390000000  0.3762600000000 1.0
C      1  0.3328450000000  0.3769950000000  0.6190060000000 1.0
C      1  0.6228470000000  0.4380220000000  0.7082210000000 1.0
C      1  0.6091350000000  0.4402360000000  0.3050620000000 1.0
C      1  0.2640350000000  0.3561710000000  0.5407790000000 1.0
C      1  0.2635800000000  0.3502970000000  0.4586790000000 1.0
C      1  0.5147490000000  0.4685480000000  0.2480820000000 1.0
C      1  0.5196160000000  0.4607190000000  0.7497710000000 1.0
C      1  0.3583680000000  0.4425380000000  0.4422750000000 1.0
C      1  0.3663280000000  0.4415670000000  0.5439810000000 1.0
C      1  0.5247100000000  0.3812290000000  0.4632690000000 1.0
C      1  0.5242090000000  0.3988750000000  0.5680690000000 1.0
C      1  0.6347690000000  0.6749290000000  0.3453330000000 1.0
C      1  0.6289280000000  0.6740900000000  0.6581140000000 1.0
C      1  0.3135110000000  0.6448390000000  0.4586050000000 1.0
C      1  0.3260680000000  0.6457740000000  0.5492170000000 1.0
C      1  0.5329150000000  0.7675620000000  0.3964630000000 1.0
C      1  0.5479120000000  0.7664650000000  0.5872570000000 1.0
C      1  0.6959920000000  0.5445080000000  0.6023080000000 1.0
C      1  0.6839540000000  0.5452310000000  0.4100400000000 1.0
C      1  0.5810900000000  0.2860060000000  0.4388620000000 1.0
C      1  0.5815610000000  0.2992330000000  0.5516400000000 1.0
C      1  0.3563500000000  0.5405170000000  0.6736930000000 1.0
C      1  0.3401680000000  0.5373930000000  0.3306920000000 1.0
C      1  0.6217680000000  0.6076150000000  0.7223750000000 1.0
C      1  0.6293990000000  0.6085100000000  0.2804180000000 1.0
C      1  0.4261390000000  0.5155470000000  0.4521260000000 1.0
C      1  0.4398090000000  0.5129200000000  0.5518150000000 1.0
C      1  0.6728030000000  0.5302270000000  0.3142050000000 1.0
C      1  0.6775360000000  0.5332490000000  0.6982370000000 1.0
END
