TITL C-3036486-2224-881 5.89226064576458e-06 3375 -345.031588501204 0 0 60 (C1) n - 1
REM
REM in /home/bkarasulu/work/CARBON/AIRSS/Generating-Clusters/REBO/Higher-Symm/Only-C60
REM
REM
REM
REM
REM
REM ./C.cell (a2850807a9bf4ad07a5b6933b78d9264)
REM AIRSS Version 0.9.1 bugfix July 2018 build 013d7b7c2542+ Fri, 06 Jul 2018 19:26:36 +0100
REM compiler GCC version 9.2.1 20190827 (Red Hat 9.2.1-1)
REM options -cpp -mtune=generic -march=x86-64 -g -O0 -fpre-include=/usr/include/finclude/math-vector-fortran.h
REM seed -1078639887 -99572237 1780097351 -54845603 1819972009 -965624538 486851105 238425260 1162523519 720165216 1628942117 -781851546 -644666450 1561360121 -1731430756 421388114 -173752951 930325543 -1812445375 -1009921310 -1162342425 1590001813 448435844 -518943504 1881673156 2143749417 -196237434 646570356 1199649649 1168175465 -1147735281 -1529056345 119371795
REM
CELL 1.54180   15.00000   15.00000   15.00000   90.00000   90.00000   90.00000
LATT -1
SFAC C  
C      1  0.5904570000000  0.2633180000000  0.4086240000000 1.0
C      1  0.2941460000000  0.6807470000000  0.4326810000000 1.0
C      1  0.4520890000000  0.5769800000000  0.4479350000000 1.0
C      1  0.5694590000000  0.3333580000000  0.5228860000000 1.0
C      1  0.6682250000000  0.5689490000000  0.3160340000000 1.0
C      1  0.3618150000000  0.4846410000000  0.6635150000000 1.0
C      1  0.3740180000000  0.6741770000000  0.3678970000000 1.0
C      1  0.4326060000000  0.6206300000000  0.7235980000000 1.0
C      1  0.5146670000000  0.7227120000000  0.5073230000000 1.0
C      1  0.4840790000000  0.5504990000000  0.3444320000000 1.0
C      1  0.6726250000000  0.4530920000000  0.3815370000000 1.0
C      1  0.2879040000000  0.5146360000000  0.4417200000000 1.0
C      1  0.3776220000000  0.7166990000000  0.5685950000000 1.0
C      1  0.7161300000000  0.3721930000000  0.4762570000000 1.0
C      1  0.4835090000000  0.2430770000000  0.3979670000000 1.0
C      1  0.7042130000000  0.5494300000000  0.5925890000000 1.0
C      1  0.6023200000000  0.3379250000000  0.6291060000000 1.0
C      1  0.5865990000000  0.5251180000000  0.3039910000000 1.0
C      1  0.3632430000000  0.5809340000000  0.6737870000000 1.0
C      1  0.5100780000000  0.2772070000000  0.6009650000000 1.0
C      1  0.4075830000000  0.4650220000000  0.5734690000000 1.0
C      1  0.5153270000000  0.7079370000000  0.6675020000000 1.0
C      1  0.3523810000000  0.3478490000000  0.5451040000000 1.0
C      1  0.7593670000000  0.4722860000000  0.4449650000000 1.0
C      1  0.4955350000000  0.4433000000000  0.3547750000000 1.0
C      1  0.6926900000000  0.3351510000000  0.5731980000000 1.0
C      1  0.3416210000000  0.6202730000000  0.5793200000000 1.0
C      1  0.4935350000000  0.5306800000000  0.6494440000000 1.0
C      1  0.4528610000000  0.7392830000000  0.4129550000000 1.0
C      1  0.3943290000000  0.5421970000000  0.5168840000000 1.0
C      1  0.4917420000000  0.4081810000000  0.5986490000000 1.0
C      1  0.4166850000000  0.3254100000000  0.6241260000000 1.0
C      1  0.5272550000000  0.2334000000000  0.4981840000000 1.0
C      1  0.6472130000000  0.3420660000000  0.3894190000000 1.0
C      1  0.3606820000000  0.7448140000000  0.4788530000000 1.0
C      1  0.4121300000000  0.3846390000000  0.4590590000000 1.0
C      1  0.5622180000000  0.7096120000000  0.4044050000000 1.0
C      1  0.4194120000000  0.3077390000000  0.3834110000000 1.0
C      1  0.7170250000000  0.5734790000000  0.4161910000000 1.0
C      1  0.6158300000000  0.6136000000000  0.4293680000000 1.0
C      1  0.5342170000000  0.6193570000000  0.4966800000000 1.0
C      1  0.4169380000000  0.3881300000000  0.3260020000000 1.0
C      1  0.6175630000000  0.4916030000000  0.5650940000000 1.0
C      1  0.5227310000000  0.5271590000000  0.5486050000000 1.0
C      1  0.4000720000000  0.3958290000000  0.7026620000000 1.0
C      1  0.3388340000000  0.4370990000000  0.3063380000000 1.0
C      1  0.2789350000000  0.6001050000000  0.4870780000000 1.0
C      1  0.6236000000000  0.5324060000000  0.6714390000000 1.0
C      1  0.4776540000000  0.4544260000000  0.7215750000000 1.0
C      1  0.6188210000000  0.4150290000000  0.4968310000000 1.0
C      1  0.5751110000000  0.4294960000000  0.6740970000000 1.0
C      1  0.5448030000000  0.6095910000000  0.7006130000000 1.0
C      1  0.5905000000000  0.4129110000000  0.3205980000000 1.0
C      1  0.3870050000000  0.5889890000000  0.3327750000000 1.0
C      1  0.5902580000000  0.5063090000000  0.4355840000000 1.0
C      1  0.3205070000000  0.5206410000000  0.3489590000000 1.0
C      1  0.4945120000000  0.4527540000000  0.4675950000000 1.0
C      1  0.7633480000000  0.5580780000000  0.5191310000000 1.0
C      1  0.3153400000000  0.4337930000000  0.4830390000000 1.0
C      1  0.4680260000000  0.7330550000000  0.5945810000000 1.0
END
