TITL C-3036482-790-418 -0.0516744984140625 3375 -335.019423492621 0 0 60 (C1) n - 1
REM
REM in /home/bkarasulu/work/CARBON/AIRSS/Generating-Clusters/REBO/Higher-Symm/Only-C60
REM
REM
REM
REM
REM
REM ./C.cell (a2850807a9bf4ad07a5b6933b78d9264)
REM AIRSS Version 0.9.1 bugfix July 2018 build 013d7b7c2542+ Fri, 06 Jul 2018 19:26:36 +0100
REM compiler GCC version 9.2.1 20190827 (Red Hat 9.2.1-1)
REM options -cpp -mtune=generic -march=x86-64 -g -O0 -fpre-include=/usr/include/finclude/math-vector-fortran.h
REM seed -884200404 607867667 1183530409 -1690099815 1903206059 2110371756 1776735914 -64545799 -187699725 275072950 506263499 826859803 -1641083463 1182443334 515174299 780510973 2127910466 1096682321 -170238492 1994638691 -1050440403 1564695893 -688034925 -2024171319 -215913874 864304362 2040329581 -1519363024 1193667720 -1048379194 1242082677 -1939101221 -697963418
REM
CELL 1.54180   15.00000   15.00000   15.00000   90.00000   90.00000   90.00000
LATT -1
SFAC C  
C      1  0.3255350000000  0.4079340000000  0.5436040000000 1.0
C      1  0.5310520000000  0.3257600000000  0.3674010000000 1.0
C      1  0.5148000000000  0.5347410000000  0.4700720000000 1.0
C      1  0.2809490000000  0.5624420000000  0.5086020000000 1.0
C      1  0.5552190000000  0.4568760000000  0.6951100000000 1.0
C      1  0.3772380000000  0.5694040000000  0.3620100000000 1.0
C      1  0.6974750000000  0.4995610000000  0.3532690000000 1.0
C      1  0.4356960000000  0.2532150000000  0.5775560000000 1.0
C      1  0.4327780000000  0.3178970000000  0.3227440000000 1.0
C      1  0.3861860000000  0.5687110000000  0.4707510000000 1.0
C      1  0.5367320000000  0.6962710000000  0.5983720000000 1.0
C      1  0.4856010000000  0.5045500000000  0.7599830000000 1.0
C      1  0.5179410000000  0.4628320000000  0.4000020000000 1.0
C      1  0.6517380000000  0.3811300000000  0.6611090000000 1.0
C      1  0.2997820000000  0.5209360000000  0.3360340000000 1.0
C      1  0.6831570000000  0.5086720000000  0.5204640000000 1.0
C      1  0.6526440000000  0.3207440000000  0.4980410000000 1.0
C      1  0.3311740000000  0.5634500000000  0.6070050000000 1.0
C      1  0.4593590000000  0.3825180000000  0.4347780000000 1.0
C      1  0.6772730000000  0.3997290000000  0.5521620000000 1.0
C      1  0.6097350000000  0.4329810000000  0.3722940000000 1.0
C      1  0.5321670000000  0.4477760000000  0.2293940000000 1.0
C      1  0.6978490000000  0.4806440000000  0.6294860000000 1.0
C      1  0.7061920000000  0.3879830000000  0.3336970000000 1.0
C      1  0.4481340000000  0.5232240000000  0.6537020000000 1.0
C      1  0.6255470000000  0.6700740000000  0.4753190000000 1.0
C      1  0.3631000000000  0.7177600000000  0.3819010000000 1.0
C      1  0.2864210000000  0.4413140000000  0.3862500000000 1.0
C      1  0.6773490000000  0.5926150000000  0.6333590000000 1.0
C      1  0.5573000000000  0.7447960000000  0.4224110000000 1.0
C      1  0.3854980000000  0.6970980000000  0.5303340000000 1.0
C      1  0.6010430000000  0.2622050000000  0.5479370000000 1.0
C      1  0.3641710000000  0.4571090000000  0.6335770000000 1.0
C      1  0.7396620000000  0.5231740000000  0.4445630000000 1.0
C      1  0.5280610000000  0.5087860000000  0.2999090000000 1.0
C      1  0.5946680000000  0.5473180000000  0.6796170000000 1.0
C      1  0.5137940000000  0.4145180000000  0.5960460000000 1.0
C      1  0.4554220000000  0.7155110000000  0.3782580000000 1.0
C      1  0.3876090000000  0.2433300000000  0.5109770000000 1.0
C      1  0.4696750000000  0.6036970000000  0.7299090000000 1.0
C      1  0.5504700000000  0.3465130000000  0.7014720000000 1.0
C      1  0.3893810000000  0.2935350000000  0.4255140000000 1.0
C      1  0.4550570000000  0.6731160000000  0.6670120000000 1.0
C      1  0.6477530000000  0.6735980000000  0.5845960000000 1.0
C      1  0.5483340000000  0.5883790000000  0.6015240000000 1.0
C      1  0.6035580000000  0.5696750000000  0.5138260000000 1.0
C      1  0.4461520000000  0.5718260000000  0.3040140000000 1.0
C      1  0.5940430000000  0.6495540000000  0.3684320000000 1.0
C      1  0.2744830000000  0.4598660000000  0.4802870000000 1.0
C      1  0.4433200000000  0.3888090000000  0.6809160000000 1.0
C      1  0.4307730000000  0.4125940000000  0.5262960000000 1.0
C      1  0.3768860000000  0.6521370000000  0.6143980000000 1.0
C      1  0.3389270000000  0.3679130000000  0.3600340000000 1.0
C      1  0.6161500000000  0.5627270000000  0.3209020000000 1.0
C      1  0.5025690000000  0.6260920000000  0.4312210000000 1.0
C      1  0.6343420000000  0.3295240000000  0.3995160000000 1.0
C      1  0.3175540000000  0.6577770000000  0.4574460000000 1.0
C      1  0.4446350000000  0.5161100000000  0.5450020000000 1.0
C      1  0.4875720000000  0.7104780000000  0.5067490000000 1.0
C      1  0.5223160000000  0.3004930000000  0.6028360000000 1.0
END
