TITL C-3036481-494-41 -0.0172478887796792 3375 -324.540608032078 0 0 60 (C3) n - 1
REM
REM in /home/bkarasulu/work/CARBON/AIRSS/Generating-Clusters/REBO/Higher-Symm/Only-C60
REM
REM
REM
REM
REM
REM ./C.cell (a2850807a9bf4ad07a5b6933b78d9264)
REM AIRSS Version 0.9.1 bugfix July 2018 build 013d7b7c2542+ Fri, 06 Jul 2018 19:26:36 +0100
REM compiler GCC version 9.2.1 20190827 (Red Hat 9.2.1-1)
REM options -cpp -mtune=generic -march=x86-64 -g -O0 -fpre-include=/usr/include/finclude/math-vector-fortran.h
REM seed -542808964 -1405967194 1590577297 1426269282 1058139216 -1211159574 -1179578332 1434521487 -599685194 1947760993 -1345334926 96913753 901966610 675443042 -2023029150 1337784851 -699925578 109138070 1670504046 -1058044161 1259146272 188268460 1470794964 -321143283 -180946933 -1004341833 -825449880 -298224709 1051184197 775766294 -1897197397 -2077293876 -973272329
REM
CELL 1.54180   15.00000   15.00000   15.00000   90.00000   90.00000   90.00000
LATT -1
SFAC C  
C      1  0.5204230000000  0.3286810000000  0.6233600000000 1.0
C      1  0.6378860000000  0.5993310000000  0.6233410000000 1.0
C      1  0.3448740000000  0.5657700000000  0.6233520000000 1.0
C      1  0.5210910000000  0.3279940000000  0.3666820000000 1.0
C      1  0.6381370000000  0.6002780000000  0.3667540000000 1.0
C      1  0.3438820000000  0.5655930000000  0.3667140000000 1.0
C      1  0.4168400000000  0.4277280000000  0.5705980000000 1.0
C      1  0.6046050000000  0.4595580000000  0.5708690000000 1.0
C      1  0.4823590000000  0.6068860000000  0.5710120000000 1.0
C      1  0.4153170000000  0.4281340000000  0.4178450000000 1.0
C      1  0.6043460000000  0.4584320000000  0.4182790000000 1.0
C      1  0.4833790000000  0.6070020000000  0.4181390000000 1.0
C      1  0.6624100000000  0.2974600000000  0.5323720000000 1.0
C      1  0.5940170000000  0.7378640000000  0.5323790000000 1.0
C      1  0.2468960000000  0.4584860000000  0.5323710000000 1.0
C      1  0.6731820000000  0.2906030000000  0.4429110000000 1.0
C      1  0.5945880000000  0.7506570000000  0.4429260000000 1.0
C      1  0.2354150000000  0.4526330000000  0.4429190000000 1.0
C      1  0.3649210000000  0.3463620000000  0.3263990000000 1.0
C      1  0.7001120000000  0.4560060000000  0.3263940000000 1.0
C      1  0.4379250000000  0.6914600000000  0.3264510000000 1.0
C      1  0.3640590000000  0.3472780000000  0.6619190000000 1.0
C      1  0.7002970000000  0.4550530000000  0.6625020000000 1.0
C      1  0.4387150000000  0.6919420000000  0.6624520000000 1.0
C      1  0.3395960000000  0.4943640000000  0.5560030000000 1.0
C      1  0.5849450000000  0.3596750000000  0.5560590000000 1.0
C      1  0.5787720000000  0.6396970000000  0.5560580000000 1.0
C      1  0.3355140000000  0.4928710000000  0.4340740000000 1.0
C      1  0.5881740000000  0.3570360000000  0.4341200000000 1.0
C      1  0.5793460000000  0.6438150000000  0.4341210000000 1.0
C      1  0.4446360000000  0.5794240000000  0.6758240000000 1.0
C      1  0.4587680000000  0.4082660000000  0.6758810000000 1.0
C      1  0.5997060000000  0.5061200000000  0.6757490000000 1.0
C      1  0.4436570000000  0.5787280000000  0.3139920000000 1.0
C      1  0.4596390000000  0.4075240000000  0.3137030000000 1.0
C      1  0.5994780000000  0.5072280000000  0.3142900000000 1.0
C      1  0.7404980000000  0.4939550000000  0.4044510000000 1.0
C      1  0.3848510000000  0.7073420000000  0.4044790000000 1.0
C      1  0.3778640000000  0.2926260000000  0.4044700000000 1.0
C      1  0.7402270000000  0.4935650000000  0.5844590000000 1.0
C      1  0.3853740000000  0.7072470000000  0.5844160000000 1.0
C      1  0.3777260000000  0.2932080000000  0.5842500000000 1.0
C      1  0.4663060000000  0.2560980000000  0.3887690000000 1.0
C      1  0.7278340000000  0.5887930000000  0.3886530000000 1.0
C      1  0.3090270000000  0.6490080000000  0.3887090000000 1.0
C      1  0.4660110000000  0.2567050000000  0.6005130000000 1.0
C      1  0.7274590000000  0.5882980000000  0.6006150000000 1.0
C      1  0.3096760000000  0.6488740000000  0.6005830000000 1.0
C      1  0.4302990000000  0.6721650000000  0.4943080000000 1.0
C      1  0.3857040000000  0.3497630000000  0.4942950000000 1.0
C      1  0.6873580000000  0.4721510000000  0.4943500000000 1.0
C      1  0.5004500000000  0.4974280000000  0.4009770000000 1.0
C      1  0.5008480000000  0.4977680000000  0.5883910000000 1.0
C      1  0.5010960000000  0.4979690000000  0.9057330000000 1.0
C      1  0.5011020000000  0.4979780000000  0.0832521000000 1.0
C      1  0.5011450000000  0.4979730000000  0.1683860000000 1.0
C      1  0.5011110000000  0.4979570000000  0.8206630000000 1.0
C      1  0.5010770000000  0.4979380000000  0.7191190000000 1.0
C      1  0.5010220000000  0.4978940000000  0.2702310000000 1.0
C      1  0.5035070000000  0.4998180000000  0.4944700000000 1.0
END
