TITL C-3036484-3770-808 5.070311881978e-05 3375 -344.818423031282 0 0 60 (Cs) n - 1
REM
REM in /home/bkarasulu/work/CARBON/AIRSS/Generating-Clusters/REBO/Higher-Symm/Only-C60
REM
REM
REM
REM
REM
REM ./C.cell (a2850807a9bf4ad07a5b6933b78d9264)
REM AIRSS Version 0.9.1 bugfix July 2018 build 013d7b7c2542+ Fri, 06 Jul 2018 19:26:36 +0100
REM compiler GCC version 9.2.1 20190827 (Red Hat 9.2.1-1)
REM options -cpp -mtune=generic -march=x86-64 -g -O0 -fpre-include=/usr/include/finclude/math-vector-fortran.h
REM seed 1997099964 650936241 -923017295 -1209612360 1416870060 580704283 1582358635 1753695344 1493724215 178345060 -1338925946 1119182807 1707371543 1981009171 1170339202 689856238 491437931 -1395879726 1868400818 -1061679835 1370710379 624552909 454007152 -36938900 1947738439 1340196049 1198398082 1212594616 845539657 805816550 -474137756 -71311435 -1803796694
REM
CELL 1.54180   15.00000   15.00000   15.00000   90.00000   90.00000   90.00000
LATT -1
SFAC C  
C      1  0.6372870000000  0.7028900000000  0.4319040000000 1.0
C      1  0.3716090000000  0.2923180000000  0.4343450000000 1.0
C      1  0.3716130000000  0.7015670000000  0.4343450000000 1.0
C      1  0.6372820000000  0.2909930000000  0.4319040000000 1.0
C      1  0.3243290000000  0.5463350000000  0.4285280000000 1.0
C      1  0.6681740000000  0.4489550000000  0.4211770000000 1.0
C      1  0.6681800000000  0.5449270000000  0.4211760000000 1.0
C      1  0.3243230000000  0.4475470000000  0.4285340000000 1.0
C      1  0.5771970000000  0.6836530000000  0.3429940000000 1.0
C      1  0.4309720000000  0.3246580000000  0.3499930000000 1.0
C      1  0.4309710000000  0.6692380000000  0.3499880000000 1.0
C      1  0.5771890000000  0.3102380000000  0.3429960000000 1.0
C      1  0.5990830000000  0.4139260000000  0.7512700000000 1.0
C      1  0.4064150000000  0.5798450000000  0.7459910000000 1.0
C      1  0.4064220000000  0.4140530000000  0.7459960000000 1.0
C      1  0.5990930000000  0.5799660000000  0.7512680000000 1.0
C      1  0.4263940000000  0.5998460000000  0.6562310000000 1.0
C      1  0.5821920000000  0.3938030000000  0.6609330000000 1.0
C      1  0.5822000000000  0.6000850000000  0.6609310000000 1.0
C      1  0.4263970000000  0.3940450000000  0.6562370000000 1.0
C      1  0.3845760000000  0.5441860000000  0.5906530000000 1.0
C      1  0.6263020000000  0.4496390000000  0.5964840000000 1.0
C      1  0.6263050000000  0.5442430000000  0.5964830000000 1.0
C      1  0.3845770000000  0.4497010000000  0.5906570000000 1.0
C      1  0.4394370000000  0.3040300000000  0.5192250000000 1.0
C      1  0.5705660000000  0.6894900000000  0.5180570000000 1.0
C      1  0.5705620000000  0.3043920000000  0.5180600000000 1.0
C      1  0.4394420000000  0.6898490000000  0.5192210000000 1.0
C      1  0.5549740000000  0.3710510000000  0.2581680000000 1.0
C      1  0.4598790000000  0.6209910000000  0.2597830000000 1.0
C      1  0.4598780000000  0.3729100000000  0.2597890000000 1.0
C      1  0.5549740000000  0.6228470000000  0.2581670000000 1.0
C      1  0.3962520000000  0.4063010000000  0.5001200000000 1.0
C      1  0.6138480000000  0.5876030000000  0.5076210000000 1.0
C      1  0.6138430000000  0.4062780000000  0.5076240000000 1.0
C      1  0.3962580000000  0.5875790000000  0.5001130000000 1.0
C      1  0.7100660000000  0.3509200000000  0.4338130000000 1.0
C      1  0.2937010000000  0.6487110000000  0.4410250000000 1.0
C      1  0.2936970000000  0.3451720000000  0.4410270000000 1.0
C      1  0.7100700000000  0.6429630000000  0.4338110000000 1.0
C      1  0.5686480000000  0.5800370000000  0.3834000000000 1.0
C      1  0.4125150000000  0.4296930000000  0.3699780000000 1.0
C      1  0.4125120000000  0.5642010000000  0.3699670000000 1.0
C      1  0.5686370000000  0.4138530000000  0.3834050000000 1.0
C      1  0.5979780000000  0.4514300000000  0.2344530000000 1.0
C      1  0.4176210000000  0.5422870000000  0.2305990000000 1.0
C      1  0.4176210000000  0.4516130000000  0.2306030000000 1.0
C      1  0.5979770000000  0.5424670000000  0.2344520000000 1.0
C      1  0.5044250000000  0.7081480000000  0.4272790000000 1.0
C      1  0.5044210000000  0.2857360000000  0.4272820000000 1.0
C      1  0.3935640000000  0.4969490000000  0.7838530000000 1.0
C      1  0.6102820000000  0.4969460000000  0.7893970000000 1.0
C      1  0.5041590000000  0.5830920000000  0.4731750000000 1.0
C      1  0.5041530000000  0.4107900000000  0.4731810000000 1.0
C      1  0.5056620000000  0.3300890000000  0.6079840000000 1.0
C      1  0.5056670000000  0.6637940000000  0.6079820000000 1.0
C      1  0.5047380000000  0.4969460000000  0.6230430000000 1.0
C      1  0.5038970000000  0.4969520000000  0.7093210000000 1.0
C      1  0.5049420000000  0.4969430000000  0.5346950000000 1.0
C      1  0.4973120000000  0.4969510000000  0.3672320000000 1.0
END
