TITL C-3036481-494-691 -6.85892065569737e-05 3375 -360.228195005834 0 0 60 (C1) n - 1
REM
REM in /home/bkarasulu/work/CARBON/AIRSS/Generating-Clusters/REBO/Higher-Symm/Only-C60
REM
REM
REM
REM
REM
REM ./C.cell (a2850807a9bf4ad07a5b6933b78d9264)
REM AIRSS Version 0.9.1 bugfix July 2018 build 013d7b7c2542+ Fri, 06 Jul 2018 19:26:36 +0100
REM compiler GCC version 9.2.1 20190827 (Red Hat 9.2.1-1)
REM options -cpp -mtune=generic -march=x86-64 -g -O0 -fpre-include=/usr/include/finclude/math-vector-fortran.h
REM seed -1571675845 -928154085 1908031614 590448202 694392110 -450491840 1472850169 1918669185 -1462632808 1063756460 7122029 1548945115 -1263702816 -837019259 463760581 -273991738 1920111235 1796541174 -812310800 -592095857 1568669741 -1098360949 1233422142 371483116 -2092280448 -1385252685 -1681493238 -725611684 152261177 1598794026 -2100018719 411581100 -2137074767
REM
CELL 1.54180   15.00000   15.00000   15.00000   90.00000   90.00000   90.00000
LATT -1
SFAC C  
C      1  0.5935450000000  0.4533730000000  0.2703050000000 1.0
C      1  0.4050610000000  0.4531350000000  0.7286610000000 1.0
C      1  0.5956600000000  0.5462560000000  0.2709430000000 1.0
C      1  0.4043910000000  0.5460050000000  0.7292000000000 1.0
C      1  0.6183580000000  0.3423170000000  0.3849610000000 1.0
C      1  0.3783840000000  0.3404270000000  0.6150460000000 1.0
C      1  0.6268120000000  0.6597110000000  0.3838500000000 1.0
C      1  0.3752800000000  0.6579570000000  0.6161370000000 1.0
C      1  0.6301550000000  0.3014260000000  0.6007640000000 1.0
C      1  0.3672240000000  0.2938890000000  0.3942480000000 1.0
C      1  0.6245740000000  0.7036540000000  0.6059880000000 1.0
C      1  0.3726980000000  0.6989730000000  0.4013590000000 1.0
C      1  0.4430730000000  0.4606710000000  0.2111920000000 1.0
C      1  0.5555350000000  0.4578520000000  0.7871620000000 1.0
C      1  0.4445370000000  0.5453810000000  0.2132070000000 1.0
C      1  0.5545400000000  0.5424800000000  0.7894070000000 1.0
C      1  0.7500940000000  0.5441230000000  0.3480320000000 1.0
C      1  0.2509750000000  0.5442650000000  0.6488530000000 1.0
C      1  0.7470950000000  0.4509000000000  0.3496650000000 1.0
C      1  0.2507700000000  0.4510270000000  0.6502180000000 1.0
C      1  0.4670730000000  0.6860760000000  0.6586170000000 1.0
C      1  0.5284760000000  0.6818960000000  0.3479680000000 1.0
C      1  0.4750010000000  0.3184010000000  0.6528640000000 1.0
C      1  0.5251270000000  0.3149940000000  0.3436030000000 1.0
C      1  0.3568230000000  0.3904470000000  0.4037690000000 1.0
C      1  0.6336970000000  0.3970770000000  0.5924480000000 1.0
C      1  0.3674540000000  0.6027980000000  0.4080380000000 1.0
C      1  0.6491570000000  0.6063680000000  0.5956480000000 1.0
C      1  0.6059290000000  0.4500880000000  0.4239790000000 1.0
C      1  0.3898510000000  0.4463520000000  0.5754700000000 1.0
C      1  0.6125580000000  0.5550360000000  0.4250260000000 1.0
C      1  0.3943500000000  0.5519870000000  0.5758170000000 1.0
C      1  0.6690470000000  0.5911460000000  0.3101180000000 1.0
C      1  0.3323240000000  0.5894810000000  0.6876340000000 1.0
C      1  0.6641560000000  0.4076580000000  0.3119020000000 1.0
C      1  0.3328920000000  0.4065250000000  0.6889030000000 1.0
C      1  0.7033630000000  0.3992820000000  0.4384120000000 1.0
C      1  0.2926700000000  0.3973740000000  0.5625200000000 1.0
C      1  0.7114070000000  0.6001840000000  0.4358270000000 1.0
C      1  0.2942660000000  0.5973880000000  0.5607130000000 1.0
C      1  0.4975790000000  0.5969950000000  0.7201620000000 1.0
C      1  0.5035580000000  0.5938970000000  0.2847000000000 1.0
C      1  0.4985890000000  0.4074830000000  0.7152750000000 1.0
C      1  0.4991490000000  0.4057780000000  0.2808880000000 1.0
C      1  0.4568330000000  0.7308530000000  0.3765610000000 1.0
C      1  0.5390130000000  0.7317980000000  0.6266880000000 1.0
C      1  0.4529690000000  0.2657360000000  0.3704060000000 1.0
C      1  0.5467230000000  0.2686070000000  0.6262350000000 1.0
C      1  0.5154350000000  0.5438930000000  0.4509410000000 1.0
C      1  0.4952250000000  0.5679390000000  0.5504320000000 1.0
C      1  0.5054190000000  0.4369730000000  0.4501430000000 1.0
C      1  0.4871110000000  0.4601990000000  0.5501640000000 1.0
C      1  0.5480520000000  0.4273850000000  0.6214330000000 1.0
C      1  0.4453450000000  0.4163950000000  0.3748840000000 1.0
C      1  0.5544890000000  0.5920800000000  0.6257490000000 1.0
C      1  0.4543830000000  0.5750450000000  0.3788220000000 1.0
C      1  0.3174360000000  0.5453680000000  0.4674090000000 1.0
C      1  0.6910520000000  0.5484540000000  0.5321340000000 1.0
C      1  0.3130160000000  0.4485740000000  0.4669010000000 1.0
C      1  0.6842450000000  0.4521650000000  0.5316000000000 1.0
END
