TITL C-3036482-790-1177 -0.0301123925780698 3375 -325.942434186848 0 0 60 (C2) n - 1
REM
REM in /home/bkarasulu/work/CARBON/AIRSS/Generating-Clusters/REBO/Higher-Symm/Only-C60
REM
REM
REM
REM
REM
REM ./C.cell (a2850807a9bf4ad07a5b6933b78d9264)
REM AIRSS Version 0.9.1 bugfix July 2018 build 013d7b7c2542+ Fri, 06 Jul 2018 19:26:36 +0100
REM compiler GCC version 9.2.1 20190827 (Red Hat 9.2.1-1)
REM options -cpp -mtune=generic -march=x86-64 -g -O0 -fpre-include=/usr/include/finclude/math-vector-fortran.h
REM seed 63111182 498923166 867313803 -1096632627 -335822191 599448565 -326657395 -363875688 651506094 2007222974 294198512 -849197998 954084149 956410759 -495841158 1826503739 1305879518 -1864670224 -1600391919 -1136378590 2111326489 1757311096 -1603885105 493379378 -50350368 -821163778 2120560435 1688905891 -1981057531 2042141895 -428347050 -1249124551 -1934215830
REM
CELL 1.54180   15.00000   15.00000   15.00000   90.00000   90.00000   90.00000
LATT -1
SFAC C  
C      1  0.5883700000000  0.3651660000000  0.3439830000000 1.0
C      1  0.6464190000000  0.4409530000000  0.3183170000000 1.0
C      1  0.6517230000000  0.5392910000000  0.3434320000000 1.0
C      1  0.5905610000000  0.6165700000000  0.3199860000000 1.0
C      1  0.5043850000000  0.6555350000000  0.3532860000000 1.0
C      1  0.4113920000000  0.6345850000000  0.3449200000000 1.0
C      1  0.3543710000000  0.5581560000000  0.3168830000000 1.0
C      1  0.3481650000000  0.4605060000000  0.3434290000000 1.0
C      1  0.4085690000000  0.3829650000000  0.3196680000000 1.0
C      1  0.4951370000000  0.3442150000000  0.3530010000000 1.0
C      1  0.5114210000000  0.6474810000000  0.5266200000000 1.0
C      1  0.4041500000000  0.6269450000000  0.5106510000000 1.0
C      1  0.3338610000000  0.5578970000000  0.4783180000000 1.0
C      1  0.3425000000000  0.4614560000000  0.5202020000000 1.0
C      1  0.3941730000000  0.3779810000000  0.4817570000000 1.0
C      1  0.4884930000000  0.3531820000000  0.5263010000000 1.0
C      1  0.5967720000000  0.3737630000000  0.5097080000000 1.0
C      1  0.6667390000000  0.4427410000000  0.4787650000000 1.0
C      1  0.6575610000000  0.5388810000000  0.5209750000000 1.0
C      1  0.6056480000000  0.6223260000000  0.4820780000000 1.0
C      1  0.6355090000000  0.6652950000000  0.4008340000000 1.0
C      1  0.5150110000000  0.7084190000000  0.4364450000000 1.0
C      1  0.3720690000000  0.6772350000000  0.4243640000000 1.0
C      1  0.2881040000000  0.5745320000000  0.3956030000000 1.0
C      1  0.2922880000000  0.4442820000000  0.4229300000000 1.0
C      1  0.3641950000000  0.3346410000000  0.4010830000000 1.0
C      1  0.4851150000000  0.2919880000000  0.4362250000000 1.0
C      1  0.6266940000000  0.3214750000000  0.4239150000000 1.0
C      1  0.7132860000000  0.4261540000000  0.3960940000000 1.0
C      1  0.7079310000000  0.5561600000000  0.4233000000000 1.0
C      1  0.3421110000000  0.5673840000000  0.7449880000000 1.0
C      1  0.2422620000000  0.4490330000000  0.6435400000000 1.0
C      1  0.3596110000000  0.3567240000000  0.7423260000000 1.0
C      1  0.4995740000000  0.2536990000000  0.6767900000000 1.0
C      1  0.5836500000000  0.2852990000000  0.6607150000000 1.0
C      1  0.6577390000000  0.4322560000000  0.7444970000000 1.0
C      1  0.7577170000000  0.5506120000000  0.6437530000000 1.0
C      1  0.6406180000000  0.6435590000000  0.7423670000000 1.0
C      1  0.5005340000000  0.7466230000000  0.6769380000000 1.0
C      1  0.4165020000000  0.7146930000000  0.6614790000000 1.0
C      1  0.3283250000000  0.7578910000000  0.4265100000000 1.0
C      1  0.2009340000000  0.5949570000000  0.3843350000000 1.0
C      1  0.2046120000000  0.4162490000000  0.4207590000000 1.0
C      1  0.3095420000000  0.2632510000000  0.3933550000000 1.0
C      1  0.4757190000000  0.2007500000000  0.4423750000000 1.0
C      1  0.6683390000000  0.2397780000000  0.4260420000000 1.0
C      1  0.8004260000000  0.4053200000000  0.3851510000000 1.0
C      1  0.7954370000000  0.5838550000000  0.4208900000000 1.0
C      1  0.6902520000000  0.7365030000000  0.3929670000000 1.0
C      1  0.5247500000000  0.7997760000000  0.4419390000000 1.0
C      1  0.3343420000000  0.4621900000000  0.6202910000000 1.0
C      1  0.3899510000000  0.3877870000000  0.6647510000000 1.0
C      1  0.4696070000000  0.3459400000000  0.6280580000000 1.0
C      1  0.5866200000000  0.3771930000000  0.6130710000000 1.0
C      1  0.6336890000000  0.4484500000000  0.6605390000000 1.0
C      1  0.6656060000000  0.5378130000000  0.6207730000000 1.0
C      1  0.6103870000000  0.6126080000000  0.6647540000000 1.0
C      1  0.5306160000000  0.6544930000000  0.6282770000000 1.0
C      1  0.4136740000000  0.6229640000000  0.6138080000000 1.0
C      1  0.3662400000000  0.5515750000000  0.6608870000000 1.0
END
