TITL C-3036481-494-1014 -0.00367231161541987 3375 -345.200511464161 0 0 60 (C1) n - 1
REM
REM in /home/bkarasulu/work/CARBON/AIRSS/Generating-Clusters/REBO/Higher-Symm/Only-C60
REM
REM
REM
REM
REM
REM ./C.cell (a2850807a9bf4ad07a5b6933b78d9264)
REM AIRSS Version 0.9.1 bugfix July 2018 build 013d7b7c2542+ Fri, 06 Jul 2018 19:26:36 +0100
REM compiler GCC version 9.2.1 20190827 (Red Hat 9.2.1-1)
REM options -cpp -mtune=generic -march=x86-64 -g -O0 -fpre-include=/usr/include/finclude/math-vector-fortran.h
REM seed 1497932065 -1253816883 601976508 1081767980 16757689 -1575947124 1801837561 1727308925 262480390 593315665 -1181479455 1745738486 -1436148189 202041456 -1835289114 643865923 -1081814621 1851476226 -983166306 813473945 1882189765 294967869 -1502543232 1052551321 1456977494 353077862 -243631306 -990862487 1973748585 -1416693606 -28564601 395470849 2129507429
REM
CELL 1.54180   15.00000   15.00000   15.00000   90.00000   90.00000   90.00000
LATT -1
SFAC C  
C      1  0.2353690000000  0.5534910000000  0.5467190000000 1.0
C      1  0.2356460000000  0.4328240000000  0.5230610000000 1.0
C      1  0.2362020000000  0.5136150000000  0.4303430000000 1.0
C      1  0.7624620000000  0.5528620000000  0.5474130000000 1.0
C      1  0.7627130000000  0.4324750000000  0.5220740000000 1.0
C      1  0.7632390000000  0.5146330000000  0.4305450000000 1.0
C      1  0.2753870000000  0.4452690000000  0.6128990000000 1.0
C      1  0.2770390000000  0.4299890000000  0.3966780000000 1.0
C      1  0.2756050000000  0.6250060000000  0.4914270000000 1.0
C      1  0.7212780000000  0.4436360000000  0.6111330000000 1.0
C      1  0.7228820000000  0.4315170000000  0.3951950000000 1.0
C      1  0.7214920000000  0.6244790000000  0.4928280000000 1.0
C      1  0.3076250000000  0.2833830000000  0.5047770000000 1.0
C      1  0.3086820000000  0.6047720000000  0.3108910000000 1.0
C      1  0.3066400000000  0.6121190000000  0.6857630000000 1.0
C      1  0.6884500000000  0.2842680000000  0.5002700000000 1.0
C      1  0.6895580000000  0.6070480000000  0.3122460000000 1.0
C      1  0.6875440000000  0.6083150000000  0.6862060000000 1.0
C      1  0.2641190000000  0.6051520000000  0.3936560000000 1.0
C      1  0.2630420000000  0.5397920000000  0.6444840000000 1.0
C      1  0.2642230000000  0.3552070000000  0.4624400000000 1.0
C      1  0.7342660000000  0.6064390000000  0.3949220000000 1.0
C      1  0.7332480000000  0.5375080000000  0.6445700000000 1.0
C      1  0.7343570000000  0.3557930000000  0.4600930000000 1.0
C      1  0.3607820000000  0.3935820000000  0.6326490000000 1.0
C      1  0.3628760000000  0.4395250000000  0.3429150000000 1.0
C      1  0.3607880000000  0.6677540000000  0.5269290000000 1.0
C      1  0.6355370000000  0.3924570000000  0.6284790000000 1.0
C      1  0.6375820000000  0.4413040000000  0.3412580000000 1.0
C      1  0.6355550000000  0.6653370000000  0.5279180000000 1.0
C      1  0.5572860000000  0.7261370000000  0.3744110000000 1.0
C      1  0.5583880000000  0.4950310000000  0.7580240000000 1.0
C      1  0.5579700000000  0.2780980000000  0.3643170000000 1.0
C      1  0.4669240000000  0.7195390000000  0.3833660000000 1.0
C      1  0.4679010000000  0.4922390000000  0.7486570000000 1.0
C      1  0.4677420000000  0.2892800000000  0.3695610000000 1.0
C      1  0.4395940000000  0.3845870000000  0.3917970000000 1.0
C      1  0.4376590000000  0.6536250000000  0.4551610000000 1.0
C      1  0.4372390000000  0.4632860000000  0.6561170000000 1.0
C      1  0.5611770000000  0.3827020000000  0.3866260000000 1.0
C      1  0.5593630000000  0.6547810000000  0.4541820000000 1.0
C      1  0.5589340000000  0.4610910000000  0.6564710000000 1.0
C      1  0.5647530000000  0.4383360000000  0.4747960000000 1.0
C      1  0.5648370000000  0.5508920000000  0.4579790000000 1.0
C      1  0.5644810000000  0.5092070000000  0.5639440000000 1.0
C      1  0.4316130000000  0.4386710000000  0.4790720000000 1.0
C      1  0.4316310000000  0.5505990000000  0.4586490000000 1.0
C      1  0.4313150000000  0.5122830000000  0.5657150000000 1.0
C      1  0.3682070000000  0.5390250000000  0.2911610000000 1.0
C      1  0.3657720000000  0.6628600000000  0.6390270000000 1.0
C      1  0.3662450000000  0.2988750000000  0.5724450000000 1.0
C      1  0.6305790000000  0.5412660000000  0.2912330000000 1.0
C      1  0.6281590000000  0.6586230000000  0.6394200000000 1.0
C      1  0.6285720000000  0.2992890000000  0.5668790000000 1.0
C      1  0.4475220000000  0.6166440000000  0.5822030000000 1.0
C      1  0.4476720000000  0.3715010000000  0.5608760000000 1.0
C      1  0.4492440000000  0.5132150000000  0.3606620000000 1.0
C      1  0.5477100000000  0.6129940000000  0.5796320000000 1.0
C      1  0.5478520000000  0.3736470000000  0.5572030000000 1.0
C      1  0.5494640000000  0.5121240000000  0.3596340000000 1.0
END
