TITL C-3036483-1610-87 -4.93547074781111e-06 3375 -345.213710105109 0 0 60 (C5) n - 1
REM
REM in /home/bkarasulu/work/CARBON/AIRSS/Generating-Clusters/REBO/Higher-Symm/Only-C60
REM
REM
REM
REM
REM
REM ./C.cell (a2850807a9bf4ad07a5b6933b78d9264)
REM AIRSS Version 0.9.1 bugfix July 2018 build 013d7b7c2542+ Fri, 06 Jul 2018 19:26:36 +0100
REM compiler GCC version 9.2.1 20190827 (Red Hat 9.2.1-1)
REM options -cpp -mtune=generic -march=x86-64 -g -O0 -fpre-include=/usr/include/finclude/math-vector-fortran.h
REM seed -2043585002 1624571762 -653821886 -138457632 -531208411 -2134647717 -1624117138 -420087736 -62213081 340930668 1803189426 293938031 -857844074 -917389914 -1288254767 -430967416 568594279 -1635014132 -764851964 -1166463 -663239289 -1526233128 -1093576921 1655323292 -527429694 -29111506 -1382694555 649100775 1603730935 -893525439 1732036268 1840100818 261546359
REM
CELL 1.54180   15.00000   15.00000   15.00000   90.00000   90.00000   90.00000
LATT -1
SFAC C  
C      1  0.3509930000000  0.6791470000000  0.5486330000000 1.0
C      1  0.6243320000000  0.6970720000000  0.5486460000000 1.0
C      1  0.7258450000000  0.4426500000000  0.5486530000000 1.0
C      1  0.5152450000000  0.2674840000000  0.5486440000000 1.0
C      1  0.2835740000000  0.4136480000000  0.5486310000000 1.0
C      1  0.5842720000000  0.4738890000000  0.3616710000000 1.0
C      1  0.5012140000000  0.4117890000000  0.3616670000000 1.0
C      1  0.4164870000000  0.4715930000000  0.3616630000000 1.0
C      1  0.4471820000000  0.5706530000000  0.3616630000000 1.0
C      1  0.5508790000000  0.5720720000000  0.3616680000000 1.0
C      1  0.5761360000000  0.5383170000000  0.7398950000000 1.0
C      1  0.5599590000000  0.4394200000000  0.7398940000000 1.0
C      1  0.4609040000000  0.4242450000000  0.7398900000000 1.0
C      1  0.4158620000000  0.5137630000000  0.7398870000000 1.0
C      1  0.4870790000000  0.5842630000000  0.7398900000000 1.0
C      1  0.3636300000000  0.4531050000000  0.4504080000000 1.0
C      1  0.4132620000000  0.6152070000000  0.4504090000000 1.0
C      1  0.5827660000000  0.6180960000000  0.4504180000000 1.0
C      1  0.6378940000000  0.4577800000000  0.4504220000000 1.0
C      1  0.5024600000000  0.3558110000000  0.4504160000000 1.0
C      1  0.3440320000000  0.5352160000000  0.6763710000000 1.0
C      1  0.4852890000000  0.6592090000000  0.6763780000000 1.0
C      1  0.6468640000000  0.5631820000000  0.6763860000000 1.0
C      1  0.6054660000000  0.3798410000000  0.6763850000000 1.0
C      1  0.4183050000000  0.3625570000000  0.6763760000000 1.0
C      1  0.5619740000000  0.6446840000000  0.6167020000000 1.0
C      1  0.6567490000000  0.4857640000000  0.6167070000000 1.0
C      1  0.5348940000000  0.3465190000000  0.6167020000000 1.0
C      1  0.3648090000000  0.4193810000000  0.6166930000000 1.0
C      1  0.3815450000000  0.6036570000000  0.6166930000000 1.0
C      1  0.2859630000000  0.5186560000000  0.5805600000000 1.0
C      1  0.4515990000000  0.7093230000000  0.5805670000000 1.0
C      1  0.6841180000000  0.6107130000000  0.5805790000000 1.0
C      1  0.6621870000000  0.3591020000000  0.5805800000000 1.0
C      1  0.4161130000000  0.3022080000000  0.5805680000000 1.0
C      1  0.6096520000000  0.3087330000000  0.5136970000000 1.0
C      1  0.3519780000000  0.3366100000000  0.5136840000000 1.0
C      1  0.2988650000000  0.5902860000000  0.5136790000000 1.0
C      1  0.5237130000000  0.7191900000000  0.5136900000000 1.0
C      1  0.7157900000000  0.5451810000000  0.5137000000000 1.0
C      1  0.4969310000000  0.6823840000000  0.4135760000000 1.0
C      1  0.6725130000000  0.5592830000000  0.4135850000000 1.0
C      1  0.6096940000000  0.3542530000000  0.4135840000000 1.0
C      1  0.3952880000000  0.3506400000000  0.4135730000000 1.0
C      1  0.3255960000000  0.5534360000000  0.4135680000000 1.0
C      1  0.5836210000000  0.5483860000000  0.2528490000000 1.0
C      1  0.5718680000000  0.4354350000000  0.2528490000000 1.0
C      1  0.4608130000000  0.4117080000000  0.2528440000000 1.0
C      1  0.4039300000000  0.5099950000000  0.2528400000000 1.0
C      1  0.4798290000000  0.5944670000000  0.2528430000000 1.0
C      1  0.4417590000000  0.5667970000000  0.5381030000000 1.0
C      1  0.5455290000000  0.5760300000000  0.5381080000000 1.0
C      1  0.5863760000000  0.4801930000000  0.5381110000000 1.0
C      1  0.5078520000000  0.4117290000000  0.5381070000000 1.0
C      1  0.4184740000000  0.4652530000000  0.5381030000000 1.0
C      1  0.3210340000000  0.5462340000000  0.3075090000000 1.0
C      1  0.4886750000000  0.6845010000000  0.3075170000000 1.0
C      1  0.6719790000000  0.5677930000000  0.3075260000000 1.0
C      1  0.6176270000000  0.3573950000000  0.3075250000000 1.0
C      1  0.4007310000000  0.3440710000000  0.3075150000000 1.0
END
