TITL C-3036482-790-185 -2.19257466043289e-06 3375 -320.335213104654 0 0 60 (C1) n - 1
REM
REM in /home/bkarasulu/work/CARBON/AIRSS/Generating-Clusters/REBO/Higher-Symm/Only-C60
REM
REM
REM
REM
REM
REM ./C.cell (a2850807a9bf4ad07a5b6933b78d9264)
REM AIRSS Version 0.9.1 bugfix July 2018 build 013d7b7c2542+ Fri, 06 Jul 2018 19:26:36 +0100
REM compiler GCC version 9.2.1 20190827 (Red Hat 9.2.1-1)
REM options -cpp -mtune=generic -march=x86-64 -g -O0 -fpre-include=/usr/include/finclude/math-vector-fortran.h
REM seed 177560654 1422078945 -1232965030 175466552 -40280308 -2002300312 1300103439 539586476 1264253288 -2139311584 1351847047 -1263804948 1222576694 34073986 1929990035 386966566 -906100770 600517521 -778920133 -753637578 -1233060719 115714264 -1948885852 1278845834 1185225556 -1075058353 254543871 -676449478 2035602491 -1120444040 -51014440 -236220520 -1301981915
REM
CELL 1.54180   15.00000   15.00000   15.00000   90.00000   90.00000   90.00000
LATT -1
SFAC C  
C      1  0.6695500000000  0.6144080000000  0.6819070000000 1.0
C      1  0.3323070000000  0.6081960000000  0.3327710000000 1.0
C      1  0.3550880000000  0.6137680000000  0.6776570000000 1.0
C      1  0.6464760000000  0.6051320000000  0.3377460000000 1.0
C      1  0.5455020000000  0.4187430000000  0.3277840000000 1.0
C      1  0.4554190000000  0.4274580000000  0.6681370000000 1.0
C      1  0.4544890000000  0.4357620000000  0.3152580000000 1.0
C      1  0.5464930000000  0.4418960000000  0.6828220000000 1.0
C      1  0.3567910000000  0.3961400000000  0.6412810000000 1.0
C      1  0.6444350000000  0.3841240000000  0.3491090000000 1.0
C      1  0.6403720000000  0.4010900000000  0.6515240000000 1.0
C      1  0.3592570000000  0.3923790000000  0.3381100000000 1.0
C      1  0.6581150000000  0.5101290000000  0.6613370000000 1.0
C      1  0.3435160000000  0.5026410000000  0.3433940000000 1.0
C      1  0.3498420000000  0.5066010000000  0.6575750000000 1.0
C      1  0.6511840000000  0.4961570000000  0.3475310000000 1.0
C      1  0.5722380000000  0.6475610000000  0.6629020000000 1.0
C      1  0.4298910000000  0.6424520000000  0.3493180000000 1.0
C      1  0.4651410000000  0.6328000000000  0.6715870000000 1.0
C      1  0.5368260000000  0.6238040000000  0.3426810000000 1.0
C      1  0.6374780000000  0.2957540000000  0.6457720000000 1.0
C      1  0.3633010000000  0.2861500000000  0.3316030000000 1.0
C      1  0.3519740000000  0.2922070000000  0.6278140000000 1.0
C      1  0.6463640000000  0.2783590000000  0.3490900000000 1.0
C      1  0.6001180000000  0.3080560000000  0.4483620000000 1.0
C      1  0.4013000000000  0.3325400000000  0.5335090000000 1.0
C      1  0.4022390000000  0.3121620000000  0.4345990000000 1.0
C      1  0.5953910000000  0.3326200000000  0.5470020000000 1.0
C      1  0.5539190000000  0.5238980000000  0.4343860000000 1.0
C      1  0.4463550000000  0.5410930000000  0.5702760000000 1.0
C      1  0.4504390000000  0.5287250000000  0.4376340000000 1.0
C      1  0.5505350000000  0.5457240000000  0.5688940000000 1.0
C      1  0.5778230000000  0.6338970000000  0.4468830000000 1.0
C      1  0.4221650000000  0.6521690000000  0.5709100000000 1.0
C      1  0.4258700000000  0.6371810000000  0.4622070000000 1.0
C      1  0.5768590000000  0.6564220000000  0.5547460000000 1.0
C      1  0.5496400000000  0.7659320000000  0.5551950000000 1.0
C      1  0.4468390000000  0.7442890000000  0.4262610000000 1.0
C      1  0.4471240000000  0.7470420000000  0.5344750000000 1.0
C      1  0.5498140000000  0.7369770000000  0.4523310000000 1.0
C      1  0.3369820000000  0.5397930000000  0.4470780000000 1.0
C      1  0.6645850000000  0.5568190000000  0.5617550000000 1.0
C      1  0.6668590000000  0.5359920000000  0.4497070000000 1.0
C      1  0.3324510000000  0.5552840000000  0.5600560000000 1.0
C      1  0.2463290000000  0.6272800000000  0.5552990000000 1.0
C      1  0.7426060000000  0.6094780000000  0.4678360000000 1.0
C      1  0.7452430000000  0.6356800000000  0.5559060000000 1.0
C      1  0.2557520000000  0.6085740000000  0.4655810000000 1.0
C      1  0.5923010000000  0.4455250000000  0.5576670000000 1.0
C      1  0.4036970000000  0.4253680000000  0.4380810000000 1.0
C      1  0.4033670000000  0.4440550000000  0.5474280000000 1.0
C      1  0.6004250000000  0.4214530000000  0.4484880000000 1.0
C      1  0.5405160000000  0.2604970000000  0.6120290000000 1.0
C      1  0.4580070000000  0.2442050000000  0.3672790000000 1.0
C      1  0.4507330000000  0.2575690000000  0.6026880000000 1.0
C      1  0.5481040000000  0.2402860000000  0.3755900000000 1.0
C      1  0.5524870000000  0.5232650000000  0.2966560000000 1.0
C      1  0.4492190000000  0.5281990000000  0.7098630000000 1.0
C      1  0.4413820000000  0.5424270000000  0.2976320000000 1.0
C      1  0.5604760000000  0.5458160000000  0.7110000000000 1.0
END
