TITL C-986973-6940-1091 1.33045149914552e-05 3375 -352.068598065793 0 0 60 (C1) n - 1
REM
REM in /home/bkarasulu/work/CARBON/AIRSS/Generating-Clusters/REBO/Higher-Symm/Only-C60
REM
REM
REM
REM
REM
REM ./C.cell (a2850807a9bf4ad07a5b6933b78d9264)
REM AIRSS Version 0.9.1 bugfix July 2018 build 013d7b7c2542+ Fri, 06 Jul 2018 19:26:36 +0100
REM compiler GCC version 9.2.1 20190827 (Red Hat 9.2.1-1)
REM options -cpp -mtune=generic -march=x86-64 -g -O0 -fpre-include=/usr/include/finclude/math-vector-fortran.h
REM seed -1289516027 74253942 -1768841939 964852793 260171210 -1721656389 863747280 1852677737 -624860272 1821896351 2021780885 246896218 -1031294658 -1246773153 1352365806 1880608245 81305498 800173881 -1265505562 1966956558 -355382618 1185592663 -2136624396 652219595 1285233883 1099432364 -1831120121 -385429811 912969758 352371041 -1463872408 1529975073 603528329
REM
CELL 1.54180   15.00000   15.00000   15.00000   90.00000   90.00000   90.00000
LATT -1
SFAC C  
C      1  0.4468250000000  0.3770110000000  0.6541980000000 1.0
C      1  0.5606500000000  0.3694220000000  0.6600650000000 1.0
C      1  0.3632930000000  0.5522220000000  0.2570400000000 1.0
C      1  0.6283600000000  0.5462010000000  0.2669660000000 1.0
C      1  0.4594350000000  0.5146750000000  0.7348190000000 1.0
C      1  0.5537550000000  0.5259620000000  0.7464180000000 1.0
C      1  0.4042590000000  0.6355570000000  0.3518330000000 1.0
C      1  0.5927940000000  0.6373780000000  0.3570840000000 1.0
C      1  0.7332220000000  0.5189020000000  0.5581110000000 1.0
C      1  0.2749450000000  0.5174130000000  0.5520700000000 1.0
C      1  0.5638560000000  0.6216470000000  0.6543130000000 1.0
C      1  0.4591740000000  0.6178210000000  0.6445390000000 1.0
C      1  0.5502240000000  0.6087340000000  0.5480770000000 1.0
C      1  0.4417210000000  0.6056430000000  0.5373570000000 1.0
C      1  0.5929340000000  0.3071690000000  0.5757080000000 1.0
C      1  0.4108270000000  0.3064690000000  0.5746500000000 1.0
C      1  0.4546390000000  0.2495100000000  0.4986020000000 1.0
C      1  0.5545370000000  0.2408480000000  0.5077980000000 1.0
C      1  0.5430860000000  0.7155210000000  0.4146150000000 1.0
C      1  0.4515600000000  0.7156500000000  0.4109510000000 1.0
C      1  0.6146770000000  0.3723750000000  0.4206550000000 1.0
C      1  0.3692400000000  0.3700880000000  0.4179510000000 1.0
C      1  0.5467370000000  0.4782320000000  0.6414860000000 1.0
C      1  0.4422800000000  0.4872300000000  0.6237170000000 1.0
C      1  0.2958020000000  0.4319530000000  0.5881220000000 1.0
C      1  0.7056630000000  0.4347440000000  0.5906720000000 1.0
C      1  0.6507010000000  0.5905060000000  0.6817030000000 1.0
C      1  0.3672640000000  0.5878840000000  0.6723380000000 1.0
C      1  0.7210120000000  0.5928740000000  0.6163790000000 1.0
C      1  0.2978330000000  0.5921490000000  0.6061960000000 1.0
C      1  0.3392340000000  0.3702920000000  0.5229360000000 1.0
C      1  0.6593170000000  0.3780020000000  0.5238200000000 1.0
C      1  0.3964190000000  0.4789460000000  0.4252070000000 1.0
C      1  0.6009480000000  0.4835120000000  0.4409320000000 1.0
C      1  0.3581390000000  0.5008180000000  0.7257270000000 1.0
C      1  0.6511740000000  0.5003860000000  0.7300930000000 1.0
C      1  0.4128430000000  0.5068100000000  0.5237000000000 1.0
C      1  0.5829350000000  0.5092140000000  0.5417830000000 1.0
C      1  0.7261690000000  0.5328040000000  0.4612180000000 1.0
C      1  0.2744530000000  0.5308700000000  0.4542390000000 1.0
C      1  0.6991590000000  0.4439220000000  0.3984950000000 1.0
C      1  0.2950200000000  0.4453660000000  0.3846050000000 1.0
C      1  0.5475840000000  0.4025700000000  0.5318110000000 1.0
C      1  0.4509190000000  0.4003850000000  0.5232080000000 1.0
C      1  0.3413930000000  0.4189530000000  0.6739890000000 1.0
C      1  0.6613890000000  0.4214480000000  0.6757050000000 1.0
C      1  0.4414060000000  0.3011580000000  0.4090780000000 1.0
C      1  0.5472090000000  0.2984140000000  0.4178010000000 1.0
C      1  0.4431940000000  0.4838330000000  0.2546580000000 1.0
C      1  0.5395070000000  0.4866540000000  0.2754620000000 1.0
C      1  0.5520590000000  0.5382910000000  0.3751770000000 1.0
C      1  0.4467960000000  0.5330970000000  0.3587540000000 1.0
C      1  0.3059670000000  0.5465200000000  0.3381500000000 1.0
C      1  0.6874970000000  0.5432310000000  0.3469910000000 1.0
C      1  0.6011970000000  0.6689700000000  0.4849950000000 1.0
C      1  0.3916490000000  0.6690090000000  0.4788600000000 1.0
C      1  0.3135430000000  0.6253400000000  0.4184770000000 1.0
C      1  0.6812550000000  0.6245550000000  0.4258390000000 1.0
C      1  0.4534270000000  0.6165710000000  0.2553470000000 1.0
C      1  0.5468930000000  0.6182680000000  0.2585100000000 1.0
END
