TITL C-986978-6805-623 0.0223859691515302 3375 -327.659114878942 0 0 60 (C2v) n - 1
REM
REM in /home/bkarasulu/work/CARBON/AIRSS/Generating-Clusters/REBO/Higher-Symm/Only-C60
REM
REM
REM
REM
REM
REM ./C.cell (a2850807a9bf4ad07a5b6933b78d9264)
REM AIRSS Version 0.9.1 bugfix July 2018 build 013d7b7c2542+ Fri, 06 Jul 2018 19:26:36 +0100
REM compiler GCC version 9.2.1 20190827 (Red Hat 9.2.1-1)
REM options -cpp -mtune=generic -march=x86-64 -g -O0 -fpre-include=/usr/include/finclude/math-vector-fortran.h
REM seed 2071993757 1006942536 -107788136 -831939787 -564946818 -1044169999 -784266429 -2097904672 -1797869661 -1992179549 -76018878 908860413 -105453510 -107265260 -1357294803 1656672248 -1196562767 611641429 -19229718 -1982973628 1515884902 174742899 -1281241453 -2056515863 145170226 932424337 2018496268 1329792903 -2138223922 -548445622 -680838696 -308146884 1144109175
REM
CELL 1.54180   15.00000   15.00000   15.00000   90.00000   90.00000   90.00000
LATT -1
SFAC C  
C      1  0.5076760000000  0.5909870000000  0.4476150000000 1.0
C      1  0.5076760000000  0.4090130000000  0.5523850000000 1.0
C      1  0.5076760000000  0.5909870000000  0.5523850000000 1.0
C      1  0.5076760000000  0.4090130000000  0.4476150000000 1.0
C      1  0.6911710000000  0.4432500000000  0.3951820000000 1.0
C      1  0.6911710000000  0.5567500000000  0.6048180000000 1.0
C      1  0.6911710000000  0.4432500000000  0.6048180000000 1.0
C      1  0.6911710000000  0.5567500000000  0.3951820000000 1.0
C      1  0.4257890000000  0.4473440000000  0.6002430000000 1.0
C      1  0.4257890000000  0.5526560000000  0.3997570000000 1.0
C      1  0.4257890000000  0.4473440000000  0.3997570000000 1.0
C      1  0.4257890000000  0.5526560000000  0.6002430000000 1.0
C      1  0.5299780000000  0.3079810000000  0.5817020000000 1.0
C      1  0.5299780000000  0.6920190000000  0.4182980000000 1.0
C      1  0.5299780000000  0.3079810000000  0.4182980000000 1.0
C      1  0.5299780000000  0.6920190000000  0.5817020000000 1.0
C      1  0.5663510000000  0.5893650000000  0.2829570000000 1.0
C      1  0.5663510000000  0.4106350000000  0.7170430000000 1.0
C      1  0.5663510000000  0.5893650000000  0.7170430000000 1.0
C      1  0.5663510000000  0.4106350000000  0.2829570000000 1.0
C      1  0.5786510000000  0.4485730000000  0.3864060000000 1.0
C      1  0.5786510000000  0.5514270000000  0.6135940000000 1.0
C      1  0.5786510000000  0.4485730000000  0.6135940000000 1.0
C      1  0.5786510000000  0.5514270000000  0.3864060000000 1.0
C      1  0.3137720000000  0.4427120000000  0.4181350000000 1.0
C      1  0.3137720000000  0.5572880000000  0.5818650000000 1.0
C      1  0.3137720000000  0.4427120000000  0.5818650000000 1.0
C      1  0.3137720000000  0.5572880000000  0.4181350000000 1.0
C      1  0.6208170000000  0.7125360000000  0.5533420000000 1.0
C      1  0.6208170000000  0.2874640000000  0.4466580000000 1.0
C      1  0.6208170000000  0.7125360000000  0.4466580000000 1.0
C      1  0.6208170000000  0.2874640000000  0.5533420000000 1.0
C      1  0.6645240000000  0.4086560000000  0.7064170000000 1.0
C      1  0.6645240000000  0.5913440000000  0.2935830000000 1.0
C      1  0.6645240000000  0.4086560000000  0.2935830000000 1.0
C      1  0.6645240000000  0.5913440000000  0.7064170000000 1.0
C      1  0.3847370000000  0.6307490000000  0.6645030000000 1.0
C      1  0.3847370000000  0.3692510000000  0.3354970000000 1.0
C      1  0.3847370000000  0.6307490000000  0.3354970000000 1.0
C      1  0.3847370000000  0.3692510000000  0.6645030000000 1.0
C      1  0.4444780000000  0.2715100000000  0.5500580000000 1.0
C      1  0.4444780000000  0.7284900000000  0.4499420000000 1.0
C      1  0.4444780000000  0.2715100000000  0.4499420000000 1.0
C      1  0.4444780000000  0.7284900000000  0.5500580000000 1.0
C      1  0.3582880000000  0.6588030000000  0.4434870000000 1.0
C      1  0.3582880000000  0.3411970000000  0.5565130000000 1.0
C      1  0.3582880000000  0.6588030000000  0.5565130000000 1.0
C      1  0.3582880000000  0.3411970000000  0.4434870000000 1.0
C      1  0.7000480000000  0.3580590000000  0.5496480000000 1.0
C      1  0.7000480000000  0.6419410000000  0.4503520000000 1.0
C      1  0.7000480000000  0.3580590000000  0.4503520000000 1.0
C      1  0.7000480000000  0.6419410000000  0.5496480000000 1.0
C      1  0.2117480000000  0.5531990000000  0.4486070000000 1.0
C      1  0.2117480000000  0.4468010000000  0.5513930000000 1.0
C      1  0.2117480000000  0.5531990000000  0.5513930000000 1.0
C      1  0.2117480000000  0.4468010000000  0.4486070000000 1.0
C      1  0.5019710000000  0.5462020000000  0.2304760000000 1.0
C      1  0.5019710000000  0.4537980000000  0.7695240000000 1.0
C      1  0.5019710000000  0.5462020000000  0.7695240000000 1.0
C      1  0.5019710000000  0.4537980000000  0.2304760000000 1.0
END
