TITL C-986975-4297-97 0.00484781655246592 3375 -349.145687139675 0 0 60 (C1) n - 1
REM
REM in /home/bkarasulu/work/CARBON/AIRSS/Generating-Clusters/REBO/Higher-Symm/Only-C60
REM
REM
REM
REM
REM
REM ./C.cell (a2850807a9bf4ad07a5b6933b78d9264)
REM AIRSS Version 0.9.1 bugfix July 2018 build 013d7b7c2542+ Fri, 06 Jul 2018 19:26:36 +0100
REM compiler GCC version 9.2.1 20190827 (Red Hat 9.2.1-1)
REM options -cpp -mtune=generic -march=x86-64 -g -O0 -fpre-include=/usr/include/finclude/math-vector-fortran.h
REM seed 1979834455 221274462 426724672 320042889 1888696333 1303545815 1181136544 -782728625 1139433833 1942671771 -1210012663 1175559814 -1795472720 278207807 -1836381903 -767291278 -1264474559 -750056087 -1227201114 -463808769 -1588235776 -2131578373 -1751112320 2059854474 120286720 -1307790467 -1542153946 924205458 -874459535 472115042 1767942710 -2107630311 -241912652
REM
CELL 1.54180   15.00000   15.00000   15.00000   90.00000   90.00000   90.00000
LATT -1
SFAC C  
C      1  0.4433090000000  0.4846970000000  0.2952830000000 1.0
C      1  0.4442900000000  0.6735870000000  0.6044110000000 1.0
C      1  0.4433070000000  0.3250540000000  0.6181870000000 1.0
C      1  0.6744270000000  0.5454280000000  0.4187330000000 1.0
C      1  0.6776080000000  0.5430150000000  0.5886770000000 1.0
C      1  0.6761140000000  0.3960930000000  0.5015380000000 1.0
C      1  0.6305440000000  0.4092800000000  0.6629650000000 1.0
C      1  0.6255800000000  0.3995280000000  0.3496080000000 1.0
C      1  0.6286990000000  0.6771290000000  0.4973940000000 1.0
C      1  0.6403840000000  0.5021830000000  0.6644320000000 1.0
C      1  0.6369950000000  0.3516440000000  0.4288600000000 1.0
C      1  0.6369990000000  0.6315120000000  0.4163990000000 1.0
C      1  0.5959170000000  0.1915150000000  0.4615870000000 1.0
C      1  0.5930030000000  0.6840670000000  0.2623920000000 1.0
C      1  0.5911820000000  0.6066150000000  0.7897280000000 1.0
C      1  0.5170190000000  0.4558440000000  0.4024690000000 1.0
C      1  0.5217890000000  0.6003180000000  0.5183170000000 1.0
C      1  0.5225520000000  0.4273960000000  0.5870230000000 1.0
C      1  0.4731750000000  0.6972090000000  0.3801690000000 1.0
C      1  0.4699870000000  0.5117980000000  0.7242000000000 1.0
C      1  0.4732010000000  0.2853060000000  0.3955750000000 1.0
C      1  0.3364440000000  0.5443400000000  0.6345900000000 1.0
C      1  0.3667950000000  0.3804720000000  0.4889800000000 1.0
C      1  0.3697710000000  0.5674020000000  0.4118780000000 1.0
C      1  0.4504690000000  0.7522310000000  0.5366970000000 1.0
C      1  0.4527970000000  0.3485120000000  0.7189760000000 1.0
C      1  0.4490940000000  0.3852500000000  0.2642360000000 1.0
C      1  0.6380810000000  0.6260960000000  0.5773580000000 1.0
C      1  0.6386880000000  0.3633580000000  0.5799850000000 1.0
C      1  0.6345080000000  0.4937380000000  0.3530690000000 1.0
C      1  0.5385140000000  0.3188700000000  0.5566860000000 1.0
C      1  0.5374200000000  0.5381640000000  0.3261100000000 1.0
C      1  0.5416750000000  0.6256660000000  0.6280150000000 1.0
C      1  0.4027950000000  0.4338120000000  0.7317870000000 1.0
C      1  0.4004670000000  0.3318170000000  0.3350950000000 1.0
C      1  0.4015430000000  0.7216960000000  0.4542380000000 1.0
C      1  0.3456930000000  0.3986650000000  0.3886300000000 1.0
C      1  0.3472210000000  0.6405170000000  0.4824830000000 1.0
C      1  0.3390560000000  0.4450050000000  0.6544460000000 1.0
C      1  0.4622400000000  0.3738010000000  0.4469090000000 1.0
C      1  0.4635370000000  0.6066440000000  0.4279860000000 1.0
C      1  0.4522670000000  0.5049310000000  0.6197800000000 1.0
C      1  0.5618150000000  0.2795630000000  0.4584490000000 1.0
C      1  0.5602230000000  0.6429350000000  0.3409730000000 1.0
C      1  0.5621860000000  0.5624330000000  0.7122670000000 1.0
C      1  0.3701240000000  0.4897520000000  0.3593170000000 1.0
C      1  0.3645300000000  0.6208900000000  0.5792720000000 1.0
C      1  0.3688090000000  0.3792350000000  0.5834690000000 1.0
C      1  0.5393940000000  0.7148530000000  0.5181690000000 1.0
C      1  0.5416930000000  0.3781280000000  0.6902020000000 1.0
C      1  0.5375230000000  0.3915000000000  0.3073980000000 1.0
C      1  0.3995470000000  0.5042410000000  0.5251770000000 1.0
C      1  0.0485501000000  0.4925760000000  0.4903480000000 1.0
C      1  0.2241710000000  0.4970130000000  0.5026270000000 1.0
C      1  0.8146750000000  0.4948960000000  0.5010250000000 1.0
C      1  0.3124500000000  0.5000460000000  0.5113070000000 1.0
C      1  0.1356980000000  0.4946250000000  0.4962070000000 1.0
C      1  0.7119990000000  0.4947650000000  0.5025040000000 1.0
C      1  0.8997360000000  0.4953890000000  0.5009100000000 1.0
C      1  0.5059710000000  0.4944090000000  0.4990400000000 1.0
END
