TITL C-986974-580-472 -0.0235121743591234 3375 -321.912382689915 0 0 60 (Ci) n - 1
REM
REM in /home/bkarasulu/work/CARBON/AIRSS/Generating-Clusters/REBO/Higher-Symm/Only-C60
REM
REM
REM
REM
REM
REM ./C.cell (a2850807a9bf4ad07a5b6933b78d9264)
REM AIRSS Version 0.9.1 bugfix July 2018 build 013d7b7c2542+ Fri, 06 Jul 2018 19:26:36 +0100
REM compiler GCC version 9.2.1 20190827 (Red Hat 9.2.1-1)
REM options -cpp -mtune=generic -march=x86-64 -g -O0 -fpre-include=/usr/include/finclude/math-vector-fortran.h
REM seed 1874388915 1966694304 2003425837 -1099227870 335812080 -969039354 81542504 1707814015 -435424280 1109902585 472024668 -180852708 17081132 217043799 -869812373 -1022657586 -1172264277 148343716 -534365833 1862074848 1408689003 -1216212998 819163072 -25299516 -911236278 -932304087 -1103854562 3422961 1192089296 1970508521 2142661508 -178049113 2111400841
REM
CELL 1.54180   15.00000   15.00000   15.00000   90.00000   90.00000   90.00000
LATT -1
SFAC C  
C      1  0.3033230000000  0.5997080000000  0.3597160000000 1.0
C      1  0.6966800000000  0.4002920000000  0.6402840000000 1.0
C      1  0.3120770000000  0.5080650000000  0.4195740000000 1.0
C      1  0.6879250000000  0.4919360000000  0.5804220000000 1.0
C      1  0.2682580000000  0.3603830000000  0.5443740000000 1.0
C      1  0.7317430000000  0.6396220000000  0.4556280000000 1.0
C      1  0.6384980000000  0.3724240000000  0.4519370000000 1.0
C      1  0.3614910000000  0.6275670000000  0.5480790000000 1.0
C      1  0.4728780000000  0.5760060000000  0.4199720000000 1.0
C      1  0.5271210000000  0.4239890000000  0.5800240000000 1.0
C      1  0.6711160000000  0.3341630000000  0.5536100000000 1.0
C      1  0.3288980000000  0.6658300000000  0.4464290000000 1.0
C      1  0.5474950000000  0.3429050000000  0.5081910000000 1.0
C      1  0.4525210000000  0.6570890000000  0.4917940000000 1.0
C      1  0.2909000000000  0.4135180000000  0.3628900000000 1.0
C      1  0.7090950000000  0.5864850000000  0.6371100000000 1.0
C      1  0.3067770000000  0.5397970000000  0.5942490000000 1.0
C      1  0.6931970000000  0.4601720000000  0.4057310000000 1.0
C      1  0.5708460000000  0.6297260000000  0.4389830000000 1.0
C      1  0.4291640000000  0.3702700000000  0.5610200000000 1.0
C      1  0.3555950000000  0.4462760000000  0.7430940000000 1.0
C      1  0.6443430000000  0.5537100000000  0.2569780000000 1.0
C      1  0.4525260000000  0.3247620000000  0.3671130000000 1.0
C      1  0.5474780000000  0.6752380000000  0.6328830000000 1.0
C      1  0.3958250000000  0.6596590000000  0.3510970000000 1.0
C      1  0.6041950000000  0.3403290000000  0.6489020000000 1.0
C      1  0.5474000000000  0.6821010000000  0.5341430000000 1.0
C      1  0.4525970000000  0.3179020000000  0.4658550000000 1.0
C      1  0.4355390000000  0.8349420000000  0.4240370000000 1.0
C      1  0.5644610000000  0.1650600000000  0.5759620000000 1.0
C      1  0.5676780000000  0.4959540000000  0.7217160000000 1.0
C      1  0.4323400000000  0.5040490000000  0.2782790000000 1.0
C      1  0.5349570000000  0.4591210000000  0.3052880000000 1.0
C      1  0.4650570000000  0.5408740000000  0.6947410000000 1.0
C      1  0.4133810000000  0.7396610000000  0.4273480000000 1.0
C      1  0.5866230000000  0.2603400000000  0.5726490000000 1.0
C      1  0.6331890000000  0.6106000000000  0.5546780000000 1.0
C      1  0.3668060000000  0.3893960000000  0.4453220000000 1.0
C      1  0.4303330000000  0.3949330000000  0.7327230000000 1.0
C      1  0.5696210000000  0.6051100000000  0.2672310000000 1.0
C      1  0.2613520000000  0.3457720000000  0.4459700000000 1.0
C      1  0.7386480000000  0.6542270000000  0.5540300000000 1.0
C      1  0.6703620000000  0.4965540000000  0.6947110000000 1.0
C      1  0.3296430000000  0.5034420000000  0.3052830000000 1.0
C      1  0.6226060000000  0.3969010000000  0.3420020000000 1.0
C      1  0.3774380000000  0.6031410000000  0.6579670000000 1.0
C      1  0.3407160000000  0.3131880000000  0.5957630000000 1.0
C      1  0.6592820000000  0.6868110000000  0.4042380000000 1.0
C      1  0.3167770000000  0.5195420000000  0.7058420000000 1.0
C      1  0.6832160000000  0.4804320000000  0.2941570000000 1.0
C      1  0.4193840000000  0.4802080000000  0.6310920000000 1.0
C      1  0.5805920000000  0.5198000000000  0.3689210000000 1.0
C      1  0.4200950000000  0.4879000000000  0.4248120000000 1.0
C      1  0.5799060000000  0.5121080000000  0.5751950000000 1.0
C      1  0.3399200000000  0.4418440000000  0.5648470000000 1.0
C      1  0.6600890000000  0.5581510000000  0.4351510000000 1.0
C      1  0.4464520000000  0.4141470000000  0.3417840000000 1.0
C      1  0.5535510000000  0.5858440000000  0.6582280000000 1.0
C      1  0.4747790000000  0.5984620000000  0.3104960000000 1.0
C      1  0.5252450000000  0.4015630000000  0.6894540000000 1.0
END
