TITL C-986979-5873-321 7.39891092988452e-06 3375 -326.711334875808 0 0 60 (D2d) n - 1
REM
REM in /home/bkarasulu/work/CARBON/AIRSS/Generating-Clusters/REBO/Higher-Symm/Only-C60
REM
REM
REM
REM
REM
REM ./C.cell (a2850807a9bf4ad07a5b6933b78d9264)
REM AIRSS Version 0.9.1 bugfix July 2018 build 013d7b7c2542+ Fri, 06 Jul 2018 19:26:36 +0100
REM compiler GCC version 9.2.1 20190827 (Red Hat 9.2.1-1)
REM options -cpp -mtune=generic -march=x86-64 -g -O0 -fpre-include=/usr/include/finclude/math-vector-fortran.h
REM seed 1902327627 1873451999 322560152 886866652 14694584 -1769219848 -1170292276 -753300726 1094887700 -1987700209 1814894137 460588410 -1580007224 -916971710 -1917882081 -1138049179 -686627561 1449842810 1963857075 -1791738305 -509537051 1857437998 -1420477309 1334885848 1591128186 28972331 -820526291 815683053 -1658753519 2063200767 -1763927961 -1477108719 -1380102604
REM
CELL 1.54180   15.00000   15.00000   15.00000   90.00000   90.00000   90.00000
LATT -1
SFAC C  
C      1  0.2356890000000  0.3219090000000  0.4958790000000 1.0
C      1  0.2356890000000  0.6780910000000  0.5041210000000 1.0
C      1  0.7643110000000  0.3219090000000  0.5041210000000 1.0
C      1  0.7643110000000  0.6780910000000  0.4958790000000 1.0
C      1  0.2356890000000  0.4958790000000  0.3219090000000 1.0
C      1  0.2356890000000  0.5041210000000  0.6780910000000 1.0
C      1  0.7643110000000  0.5041210000000  0.3219090000000 1.0
C      1  0.7643110000000  0.4958790000000  0.6780910000000 1.0
C      1  0.3168540000000  0.4854840000000  0.3652490000000 1.0
C      1  0.3168540000000  0.5145160000000  0.6347510000000 1.0
C      1  0.6831460000000  0.4854840000000  0.6347510000000 1.0
C      1  0.6831460000000  0.5145160000000  0.3652490000000 1.0
C      1  0.3168540000000  0.3652490000000  0.4854840000000 1.0
C      1  0.3168540000000  0.6347510000000  0.5145160000000 1.0
C      1  0.6831460000000  0.6347510000000  0.4854840000000 1.0
C      1  0.6831460000000  0.3652490000000  0.5145160000000 1.0
C      1  0.3957850000000  0.3683740000000  0.5586030000000 1.0
C      1  0.3957850000000  0.6316260000000  0.4413970000000 1.0
C      1  0.6042150000000  0.3683740000000  0.4413970000000 1.0
C      1  0.6042150000000  0.6316260000000  0.5586030000000 1.0
C      1  0.3957850000000  0.5586030000000  0.3683740000000 1.0
C      1  0.3957850000000  0.4413970000000  0.6316260000000 1.0
C      1  0.6042150000000  0.4413970000000  0.3683740000000 1.0
C      1  0.6042150000000  0.5586030000000  0.6316260000000 1.0
C      1  0.3980080000000  0.3070080000000  0.4408320000000 1.0
C      1  0.3980080000000  0.6929920000000  0.5591680000000 1.0
C      1  0.6019920000000  0.3070080000000  0.5591680000000 1.0
C      1  0.6019920000000  0.6929920000000  0.4408320000000 1.0
C      1  0.3980080000000  0.4408320000000  0.3070080000000 1.0
C      1  0.3980080000000  0.5591680000000  0.6929920000000 1.0
C      1  0.6019920000000  0.5591680000000  0.3070080000000 1.0
C      1  0.6019920000000  0.4408320000000  0.6929920000000 1.0
C      1  0.5490360000000  0.5118610000000  0.7419490000000 1.0
C      1  0.5490360000000  0.4881390000000  0.2580510000000 1.0
C      1  0.4509640000000  0.5118610000000  0.2580510000000 1.0
C      1  0.4509640000000  0.4881390000000  0.7419490000000 1.0
C      1  0.5490360000000  0.7419490000000  0.5118610000000 1.0
C      1  0.5490360000000  0.2580510000000  0.4881390000000 1.0
C      1  0.4509640000000  0.2580510000000  0.5118610000000 1.0
C      1  0.4509640000000  0.7419490000000  0.4881390000000 1.0
C      1  0.4952980000000  0.6754900000000  0.4049920000000 1.0
C      1  0.4952980000000  0.3245100000000  0.5950080000000 1.0
C      1  0.5047020000000  0.6754900000000  0.5950080000000 1.0
C      1  0.5047020000000  0.3245100000000  0.4049920000000 1.0
C      1  0.4952980000000  0.4049920000000  0.6754900000000 1.0
C      1  0.4952980000000  0.5950080000000  0.3245100000000 1.0
C      1  0.5047020000000  0.5950080000000  0.6754900000000 1.0
C      1  0.5047020000000  0.4049920000000  0.3245100000000 1.0
C      1  0.4537930000000  0.5156260000000  0.5816120000000 1.0
C      1  0.4537930000000  0.4843740000000  0.4183880000000 1.0
C      1  0.5462070000000  0.5156260000000  0.4183880000000 1.0
C      1  0.5462070000000  0.4843740000000  0.5816120000000 1.0
C      1  0.4537930000000  0.5816120000000  0.5156260000000 1.0
C      1  0.4537930000000  0.4183880000000  0.4843740000000 1.0
C      1  0.5462070000000  0.4183880000000  0.5156260000000 1.0
C      1  0.5462070000000  0.5816120000000  0.4843740000000 1.0
C      1  0.3121600000000  0.4678660000000  0.4678660000000 1.0
C      1  0.3121600000000  0.5321340000000  0.5321340000000 1.0
C      1  0.6878400000000  0.4678660000000  0.5321340000000 1.0
C      1  0.6878400000000  0.5321340000000  0.4678660000000 1.0
END
