TITL C-986975-4297-237 6.86725594416973e-06 3375 -368.032845752271 0 0 60 (D3) n - 1
REM
REM in /home/bkarasulu/work/CARBON/AIRSS/Generating-Clusters/REBO/Higher-Symm/Only-C60
REM
REM
REM
REM
REM
REM ./C.cell (a2850807a9bf4ad07a5b6933b78d9264)
REM AIRSS Version 0.9.1 bugfix July 2018 build 013d7b7c2542+ Fri, 06 Jul 2018 19:26:36 +0100
REM compiler GCC version 9.2.1 20190827 (Red Hat 9.2.1-1)
REM options -cpp -mtune=generic -march=x86-64 -g -O0 -fpre-include=/usr/include/finclude/math-vector-fortran.h
REM seed 516610481 -259755582 401768498 -1212511262 727368522 -1106920797 -621740814 -793945069 -2141573861 730194134 1867022741 -1408419832 -289311349 -1862740144 -1243499579 824923051 -905161188 269596425 -1713025198 17834175 -2004200415 -1131773742 -357852352 1530238760 541861902 155375571 -781171430 -465153924 103997314 -806667026 1803110358 830670707 -1278333362
REM
CELL 1.54180   15.00000   15.00000   15.00000   90.00000   90.00000   90.00000
LATT -1
SFAC C  
C      1  0.4481570000000  0.4893250000000  0.4351320000000 1.0
C      1  0.4481570000000  0.4491610000000  0.5416790000000 1.0
C      1  0.4481570000000  0.5615150000000  0.5231890000000 1.0
C      1  0.5518430000000  0.4893250000000  0.5648680000000 1.0
C      1  0.5518430000000  0.4491610000000  0.4583210000000 1.0
C      1  0.5518430000000  0.5615150000000  0.4768110000000 1.0
C      1  0.6824570000000  0.4292410000000  0.6761060000000 1.0
C      1  0.6824580000000  0.6878910000000  0.4732280000000 1.0
C      1  0.6824590000000  0.3828670000000  0.3506720000000 1.0
C      1  0.3175430000000  0.4292410000000  0.3238940000000 1.0
C      1  0.3175420000000  0.6878910000000  0.5267720000000 1.0
C      1  0.3175410000000  0.3828670000000  0.6493280000000 1.0
C      1  0.3399390000000  0.5656030000000  0.4216880000000 1.0
C      1  0.3399390000000  0.3993800000000  0.4823410000000 1.0
C      1  0.3399380000000  0.5350180000000  0.5959680000000 1.0
C      1  0.6600610000000  0.5656030000000  0.5783120000000 1.0
C      1  0.6600610000000  0.3993800000000  0.5176590000000 1.0
C      1  0.6600620000000  0.5350180000000  0.4040320000000 1.0
C      1  0.5836090000000  0.3544300000000  0.4372090000000 1.0
C      1  0.5836080000000  0.5184070000000  0.6574640000000 1.0
C      1  0.5836090000000  0.6271650000000  0.4053280000000 1.0
C      1  0.4163910000000  0.3544300000000  0.5627910000000 1.0
C      1  0.4163920000000  0.5184070000000  0.3425360000000 1.0
C      1  0.4163910000000  0.6271650000000  0.5946720000000 1.0
C      1  0.4535110000000  0.2713240000000  0.5046080000000 1.0
C      1  0.4535100000000  0.6183280000000  0.6957350000000 1.0
C      1  0.4535130000000  0.6103480000000  0.2996570000000 1.0
C      1  0.5464890000000  0.2713240000000  0.4953920000000 1.0
C      1  0.5464900000000  0.6183280000000  0.3042650000000 1.0
C      1  0.5464870000000  0.6103480000000  0.7003430000000 1.0
C      1  0.5628550000000  0.4582930000000  0.2742010000000 1.0
C      1  0.5628540000000  0.3253030000000  0.6490180000000 1.0
C      1  0.5628540000000  0.7164020000000  0.5767830000000 1.0
C      1  0.4371450000000  0.4582930000000  0.7257990000000 1.0
C      1  0.4371460000000  0.3253030000000  0.3509820000000 1.0
C      1  0.4371460000000  0.7164020000000  0.4232170000000 1.0
C      1  0.3996510000000  0.3750160000000  0.6965760000000 1.0
C      1  0.3996510000000  0.7327340000000  0.5099480000000 1.0
C      1  0.3996520000000  0.3922490000000  0.2934720000000 1.0
C      1  0.6003490000000  0.3750160000000  0.3034240000000 1.0
C      1  0.6003490000000  0.7327340000000  0.4900520000000 1.0
C      1  0.6003480000000  0.3922490000000  0.7065280000000 1.0
C      1  0.6853190000000  0.4637850000000  0.5914690000000 1.0
C      1  0.6853200000000  0.5973220000000  0.4856310000000 1.0
C      1  0.6853210000000  0.4388950000000  0.4229040000000 1.0
C      1  0.3146810000000  0.4637850000000  0.4085310000000 1.0
C      1  0.3146800000000  0.5973220000000  0.5143690000000 1.0
C      1  0.3146790000000  0.4388950000000  0.5770960000000 1.0
C      1  0.6036990000000  0.3167820000000  0.5628300000000 1.0
C      1  0.6036980000000  0.6460220000000  0.6272580000000 1.0
C      1  0.6037000000000  0.5371960000000  0.3099140000000 1.0
C      1  0.3963010000000  0.3167820000000  0.4371700000000 1.0
C      1  0.3963020000000  0.6460220000000  0.3727420000000 1.0
C      1  0.3963000000000  0.5371960000000  0.6900860000000 1.0
C      1  0.5323700000000  0.4600980000000  0.7327630000000 1.0
C      1  0.5323720000000  0.7215310000000  0.4181740000000 1.0
C      1  0.5323710000000  0.3183690000000  0.3490630000000 1.0
C      1  0.4676300000000  0.4600980000000  0.2672370000000 1.0
C      1  0.4676280000000  0.7215310000000  0.5818260000000 1.0
C      1  0.4676290000000  0.3183690000000  0.6509370000000 1.0
END
