TITL C-986973-6940-429 -0.0136981873459468 3375 -349.82665779654 0 0 60 (C1) n - 1
REM
REM in /home/bkarasulu/work/CARBON/AIRSS/Generating-Clusters/REBO/Higher-Symm/Only-C60
REM
REM
REM
REM
REM
REM ./C.cell (a2850807a9bf4ad07a5b6933b78d9264)
REM AIRSS Version 0.9.1 bugfix July 2018 build 013d7b7c2542+ Fri, 06 Jul 2018 19:26:36 +0100
REM compiler GCC version 9.2.1 20190827 (Red Hat 9.2.1-1)
REM options -cpp -mtune=generic -march=x86-64 -g -O0 -fpre-include=/usr/include/finclude/math-vector-fortran.h
REM seed -1259606833 361713250 1638383482 1503907157 1337310552 -1020898786 2107942924 990772676 1694472987 1423120275 67939706 -1405531702 -559170874 -1976435273 -938363822 195326508 -158643132 -1997169320 -1996738738 1731514193 -1571753665 459222921 35821424 987536896 705537928 1070420720 -1784755356 -913748057 1351177740 -500201510 1582386218 -791039404 1569222695
REM
CELL 1.54180   15.00000   15.00000   15.00000   90.00000   90.00000   90.00000
LATT -1
SFAC C  
C      1  0.6180300000000  0.4796360000000  0.6104980000000 1.0
C      1  0.4888850000000  0.5271530000000  0.7083740000000 1.0
C      1  0.4294200000000  0.6662420000000  0.3732890000000 1.0
C      1  0.5665010000000  0.2376100000000  0.5486740000000 1.0
C      1  0.3270130000000  0.5150010000000  0.6562040000000 1.0
C      1  0.5440570000000  0.4057140000000  0.2867770000000 1.0
C      1  0.4410280000000  0.6962130000000  0.5023990000000 1.0
C      1  0.4993710000000  0.6941690000000  0.6538970000000 1.0
C      1  0.6246930000000  0.3704590000000  0.6411140000000 1.0
C      1  0.4238430000000  0.6903720000000  0.6033890000000 1.0
C      1  0.5621440000000  0.5886770000000  0.4973010000000 1.0
C      1  0.6078120000000  0.6242130000000  0.4152520000000 1.0
C      1  0.6401670000000  0.6671330000000  0.5720490000000 1.0
C      1  0.4591280000000  0.4340830000000  0.6035330000000 1.0
C      1  0.5019000000000  0.3791780000000  0.5140010000000 1.0
C      1  0.2896790000000  0.6248100000000  0.5158480000000 1.0
C      1  0.3450980000000  0.3329980000000  0.5149860000000 1.0
C      1  0.4380010000000  0.3039760000000  0.4581200000000 1.0
C      1  0.5796900000000  0.6433740000000  0.6435440000000 1.0
C      1  0.3641390000000  0.5096540000000  0.4955680000000 1.0
C      1  0.5976960000000  0.4820620000000  0.2856850000000 1.0
C      1  0.6029290000000  0.7266860000000  0.5085040000000 1.0
C      1  0.3367600000000  0.4048650000000  0.3293640000000 1.0
C      1  0.3413520000000  0.6171080000000  0.6083640000000 1.0
C      1  0.2963090000000  0.5067910000000  0.3544870000000 1.0
C      1  0.5570480000000  0.3744290000000  0.7252950000000 1.0
C      1  0.5591270000000  0.4776550000000  0.5182760000000 1.0
C      1  0.4686720000000  0.5669430000000  0.3460970000000 1.0
C      1  0.7308340000000  0.4462640000000  0.5262150000000 1.0
C      1  0.5278870000000  0.7219220000000  0.4579120000000 1.0
C      1  0.7110140000000  0.5887150000000  0.4370130000000 1.0
C      1  0.7132310000000  0.5219840000000  0.5875360000000 1.0
C      1  0.5485560000000  0.2930390000000  0.6201580000000 1.0
C      1  0.7067590000000  0.6055130000000  0.5420660000000 1.0
C      1  0.4062940000000  0.5966460000000  0.4597010000000 1.0
C      1  0.4924860000000  0.5848060000000  0.5614150000000 1.0
C      1  0.6052660000000  0.3613630000000  0.4722770000000 1.0
C      1  0.7100860000000  0.4807760000000  0.4369480000000 1.0
C      1  0.5268750000000  0.3357240000000  0.3646020000000 1.0
C      1  0.5426510000000  0.2705410000000  0.4495720000000 1.0
C      1  0.4346950000000  0.4143950000000  0.2739860000000 1.0
C      1  0.6744940000000  0.3713000000000  0.5469090000000 1.0
C      1  0.3421200000000  0.3278510000000  0.4010680000000 1.0
C      1  0.3248800000000  0.4226600000000  0.6501190000000 1.0
C      1  0.5636920000000  0.5897810000000  0.2948510000000 1.0
C      1  0.3441290000000  0.6930430000000  0.4435570000000 1.0
C      1  0.2832150000000  0.5497000000000  0.4390770000000 1.0
C      1  0.3793500000000  0.4228870000000  0.4541450000000 1.0
C      1  0.4295730000000  0.5210750000000  0.5713590000000 1.0
C      1  0.4610960000000  0.3256410000000  0.6290360000000 1.0
C      1  0.4845090000000  0.4282380000000  0.7103280000000 1.0
C      1  0.5358040000000  0.6814180000000  0.3557030000000 1.0
C      1  0.5709730000000  0.5531370000000  0.6686980000000 1.0
C      1  0.4572360000000  0.4217120000000  0.3860950000000 1.0
C      1  0.3947610000000  0.5115620000000  0.3076500000000 1.0
C      1  0.3618190000000  0.3439430000000  0.6117030000000 1.0
C      1  0.6258590000000  0.4414190000000  0.4092570000000 1.0
C      1  0.6615630000000  0.5575030000000  0.3398600000000 1.0
C      1  0.5305370000000  0.4954040000000  0.4086660000000 1.0
C      1  0.4072650000000  0.5728340000000  0.6916270000000 1.0
END
