TITL C-986979-5873-225 3.31291928861793e-06 3375 -353.873441059967 0 0 60 (Ci) n - 1
REM
REM in /home/bkarasulu/work/CARBON/AIRSS/Generating-Clusters/REBO/Higher-Symm/Only-C60
REM
REM
REM
REM
REM
REM ./C.cell (a2850807a9bf4ad07a5b6933b78d9264)
REM AIRSS Version 0.9.1 bugfix July 2018 build 013d7b7c2542+ Fri, 06 Jul 2018 19:26:36 +0100
REM compiler GCC version 9.2.1 20190827 (Red Hat 9.2.1-1)
REM options -cpp -mtune=generic -march=x86-64 -g -O0 -fpre-include=/usr/include/finclude/math-vector-fortran.h
REM seed 658732430 -1507507686 1069718058 -250450754 -1692869562 1817369001 118590935 1745992424 -1149278379 -1046708240 -1070513493 -1544502133 1079446701 637894194 -2124701083 1098211776 -2021991665 -1141604583 -1619957999 1792021978 -784790808 2004632924 447902685 -1837501240 2142490518 -403595757 88090510 97097087 1017593104 -1949958255 -1737214571 1457430538 1128548267
REM
CELL 1.54180   15.00000   15.00000   15.00000   90.00000   90.00000   90.00000
LATT -1
SFAC C  
C      1  0.2471630000000  0.4624930000000  0.5562630000000 1.0
C      1  0.7549430000000  0.5272200000000  0.5525010000000 1.0
C      1  0.2450580000000  0.4727790000000  0.4475010000000 1.0
C      1  0.7528370000000  0.5375090000000  0.4437400000000 1.0
C      1  0.3007540000000  0.4420420000000  0.6330270000000 1.0
C      1  0.6976040000000  0.5546270000000  0.6265560000000 1.0
C      1  0.3023960000000  0.4453710000000  0.3734470000000 1.0
C      1  0.6992470000000  0.5579610000000  0.3669750000000 1.0
C      1  0.6143510000000  0.4067790000000  0.2848580000000 1.0
C      1  0.3933990000000  0.5942790000000  0.2870380000000 1.0
C      1  0.6066010000000  0.4057160000000  0.7129600000000 1.0
C      1  0.3856490000000  0.5932250000000  0.7151420000000 1.0
C      1  0.3159490000000  0.6135640000000  0.3921680000000 1.0
C      1  0.6771190000000  0.3935860000000  0.4008860000000 1.0
C      1  0.3228810000000  0.6064160000000  0.5991140000000 1.0
C      1  0.6840520000000  0.3864340000000  0.6078310000000 1.0
C      1  0.5872980000000  0.4116690000000  0.5592830000000 1.0
C      1  0.4174420000000  0.6008370000000  0.5444840000000 1.0
C      1  0.5825580000000  0.3991620000000  0.4555170000000 1.0
C      1  0.4127030000000  0.5883320000000  0.4407180000000 1.0
C      1  0.5529180000000  0.7068270000000  0.4094260000000 1.0
C      1  0.4437980000000  0.2837720000000  0.4047320000000 1.0
C      1  0.5562030000000  0.7162260000000  0.5952650000000 1.0
C      1  0.4470810000000  0.2931780000000  0.5905690000000 1.0
C      1  0.4049510000000  0.4344590000000  0.5502190000000 1.0
C      1  0.5965740000000  0.5717640000000  0.5416650000000 1.0
C      1  0.4034260000000  0.4282360000000  0.4583370000000 1.0
C      1  0.5950490000000  0.5655410000000  0.4497830000000 1.0
C      1  0.4723170000000  0.6546310000000  0.7214400000000 1.0
C      1  0.5302900000000  0.3334150000000  0.7251840000000 1.0
C      1  0.4697120000000  0.6665770000000  0.2748140000000 1.0
C      1  0.5276820000000  0.3453740000000  0.2785600000000 1.0
C      1  0.4519360000000  0.4994470000000  0.4183960000000 1.0
C      1  0.5446460000000  0.4898700000000  0.4200650000000 1.0
C      1  0.4553540000000  0.5101300000000  0.5799370000000 1.0
C      1  0.5480640000000  0.5005520000000  0.5816050000000 1.0
C      1  0.6621360000000  0.4780190000000  0.6697850000000 1.0
C      1  0.3301090000000  0.5220860000000  0.6730830000000 1.0
C      1  0.6698910000000  0.4779180000000  0.3269180000000 1.0
C      1  0.3378610000000  0.5219770000000  0.3302140000000 1.0
C      1  0.3657620000000  0.3616890000000  0.3852080000000 1.0
C      1  0.6302970000000  0.6338450000000  0.3758410000000 1.0
C      1  0.3697010000000  0.3661560000000  0.6241630000000 1.0
C      1  0.6342390000000  0.6383110000000  0.6147940000000 1.0
C      1  0.4629540000000  0.7030340000000  0.5575690000000 1.0
C      1  0.5403100000000  0.3086540000000  0.5508640000000 1.0
C      1  0.4596900000000  0.6913480000000  0.4491320000000 1.0
C      1  0.5370470000000  0.2969650000000  0.4424280000000 1.0
C      1  0.7529830000000  0.4350080000000  0.4570440000000 1.0
C      1  0.2373680000000  0.5803710000000  0.4455290000000 1.0
C      1  0.7626330000000  0.4196280000000  0.5544710000000 1.0
C      1  0.2470170000000  0.5649930000000  0.5429570000000 1.0
C      1  0.3938000000000  0.6878760000000  0.3562700000000 1.0
C      1  0.6069090000000  0.3165090000000  0.3552780000000 1.0
C      1  0.3930910000000  0.6834940000000  0.6447200000000 1.0
C      1  0.6062010000000  0.3121200000000  0.6437260000000 1.0
C      1  0.4415580000000  0.3281380000000  0.3078080000000 1.0
C      1  0.5558180000000  0.6796150000000  0.3060490000000 1.0
C      1  0.4441830000000  0.3203810000000  0.6939490000000 1.0
C      1  0.5584420000000  0.6718650000000  0.6921910000000 1.0
END
