TITL C-986973-6940-620 0.00350139330472569 3375 -333.7640920646 0 0 60 (C5) n - 1
REM
REM in /home/bkarasulu/work/CARBON/AIRSS/Generating-Clusters/REBO/Higher-Symm/Only-C60
REM
REM
REM
REM
REM
REM ./C.cell (a2850807a9bf4ad07a5b6933b78d9264)
REM AIRSS Version 0.9.1 bugfix July 2018 build 013d7b7c2542+ Fri, 06 Jul 2018 19:26:36 +0100
REM compiler GCC version 9.2.1 20190827 (Red Hat 9.2.1-1)
REM options -cpp -mtune=generic -march=x86-64 -g -O0 -fpre-include=/usr/include/finclude/math-vector-fortran.h
REM seed 1648387726 -794093730 1213708802 -400130363 417965446 1334108259 556992383 788076380 656120693 1516041181 -510255205 -1435575177 -583432822 -389393036 304830660 1925776358 -1245319602 -284540639 950179036 -1402394748 1479422578 -1993241299 920168443 6656589 -998018012 102436782 336178822 -2023225791 157041834 819055144 1138144259 257900076 66807135
REM
CELL 1.54180   15.00000   15.00000   15.00000   90.00000   90.00000   90.00000
LATT -1
SFAC C  
C      1  0.6197040000000  0.5058130000000  0.5898690000000 1.0
C      1  0.6197310000000  0.5872850000000  0.5222370000000 1.0
C      1  0.6197350000000  0.5481410000000  0.4238290000000 1.0
C      1  0.6197250000000  0.4424650000000  0.4306850000000 1.0
C      1  0.6197070000000  0.4163040000000  0.5332910000000 1.0
C      1  0.6227080000000  0.5121050000000  0.3180360000000 1.0
C      1  0.6227000000000  0.3307020000000  0.4322420000000 1.0
C      1  0.6226950000000  0.3832600000000  0.6400560000000 1.0
C      1  0.6226840000000  0.5971420000000  0.6543030000000 1.0
C      1  0.6227050000000  0.6767830000000  0.4552940000000 1.0
C      1  0.5956090000000  0.6376240000000  0.3575820000000 1.0
C      1  0.5955840000000  0.4070920000000  0.3251080000000 1.0
C      1  0.5955940000000  0.3049640000000  0.5343300000000 1.0
C      1  0.5955970000000  0.4723890000000  0.6960910000000 1.0
C      1  0.5955880000000  0.6779630000000  0.5868630000000 1.0
C      1  0.4319160000000  0.5304590000000  0.5822230000000 1.0
C      1  0.4319410000000  0.5875590000000  0.4964840000000 1.0
C      1  0.4319470000000  0.5236570000000  0.4156700000000 1.0
C      1  0.4319290000000  0.4270580000000  0.4514710000000 1.0
C      1  0.4319090000000  0.4312640000000  0.5544090000000 1.0
C      1  0.3366880000000  0.4359110000000  0.3392940000000 1.0
C      1  0.3367040000000  0.3273320000000  0.5113020000000 1.0
C      1  0.3367110000000  0.4573820000000  0.6677050000000 1.0
C      1  0.3367040000000  0.6463130000000  0.5923490000000 1.0
C      1  0.3367090000000  0.6330660000000  0.3893770000000 1.0
C      1  0.4600490000000  0.6959680000000  0.4787560000000 1.0
C      1  0.4600510000000  0.5403660000000  0.3070930000000 1.0
C      1  0.4600350000000  0.3289810000000  0.4019760000000 1.0
C      1  0.4600280000000  0.3538730000000  0.6323730000000 1.0
C      1  0.4600210000000  0.5807500000000  0.6798850000000 1.0
C      1  0.5000810000000  0.7191310000000  0.6095300000000 1.0
C      1  0.5001080000000  0.6719520000000  0.3254030000000 1.0
C      1  0.5000920000000  0.3871000000000  0.2825380000000 1.0
C      1  0.5000970000000  0.2582910000000  0.5401800000000 1.0
C      1  0.5001020000000  0.4635260000000  0.7422730000000 1.0
C      1  0.6406240000000  0.7630750000000  0.5270230000000 1.0
C      1  0.6406150000000  0.6069950000000  0.2581170000000 1.0
C      1  0.6406130000000  0.3030460000000  0.3234830000000 1.0
C      1  0.6406520000000  0.2712780000000  0.6327570000000 1.0
C      1  0.6406460000000  0.5555860000000  0.7585410000000 1.0
C      1  0.4879200000000  0.5053400000000  0.8237850000000 1.0
C      1  0.4878790000000  0.8095620000000  0.5948860000000 1.0
C      1  0.4879660000000  0.6861040000000  0.2348890000000 1.0
C      1  0.4879050000000  0.3053810000000  0.2411430000000 1.0
C      1  0.4879410000000  0.1936620000000  0.6051150000000 1.0
C      1  0.3370540000000  0.5388130000000  0.3577920000000 1.0
C      1  0.3370400000000  0.3767230000000  0.4191540000000 1.0
C      1  0.3370190000000  0.3849580000000  0.5922970000000 1.0
C      1  0.3370170000000  0.5522270000000  0.6379400000000 1.0
C      1  0.3370430000000  0.6472830000000  0.4929470000000 1.0
C      1  0.4282450000000  0.4470080000000  0.2972610000000 1.0
C      1  0.4282520000000  0.2908000000000  0.4877450000000 1.0
C      1  0.4282560000000  0.4236870000000  0.6951630000000 1.0
C      1  0.4282410000000  0.6620320000000  0.6328890000000 1.0
C      1  0.4282540000000  0.6764810000000  0.3869240000000 1.0
C      1  0.5393950000000  0.7413070000000  0.4843610000000 1.0
C      1  0.5393750000000  0.5597160000000  0.2656890000000 1.0
C      1  0.5393750000000  0.2956050000000  0.3707980000000 1.0
C      1  0.5393950000000  0.3139260000000  0.6544850000000 1.0
C      1  0.5393880000000  0.5894340000000  0.7247060000000 1.0
END
