TITL C-986975-4297-887 3.00456672125565e-05 3375 -317.999401549129 0 0 60 (C10) n - 1
REM
REM in /home/bkarasulu/work/CARBON/AIRSS/Generating-Clusters/REBO/Higher-Symm/Only-C60
REM
REM
REM
REM
REM
REM ./C.cell (a2850807a9bf4ad07a5b6933b78d9264)
REM AIRSS Version 0.9.1 bugfix July 2018 build 013d7b7c2542+ Fri, 06 Jul 2018 19:26:36 +0100
REM compiler GCC version 9.2.1 20190827 (Red Hat 9.2.1-1)
REM options -cpp -mtune=generic -march=x86-64 -g -O0 -fpre-include=/usr/include/finclude/math-vector-fortran.h
REM seed -1736198805 -2054480744 1539152929 -2086526427 -1596343920 -1113067889 -1273381202 807693412 -610934542 -1048733215 -1554475894 -1254973115 1818616090 -475872360 1766151624 145397237 -1522787982 -822165453 1188698418 1293632455 -1533498933 2112745394 -1228135165 693765613 1472483311 -155717907 -713567183 719368867 1137954433 945325478 -1452499105 1637380794 -531681940
REM
CELL 1.54180   15.00000   15.00000   15.00000   90.00000   90.00000   90.00000
LATT -1
SFAC C  
C      1  0.4745430000000  0.3087120000000  0.3426790000000 1.0
C      1  0.3869340000000  0.3087120000000  0.3876880000000 1.0
C      1  0.3425120000000  0.3087120000000  0.4755960000000 1.0
C      1  0.3582450000000  0.3087120000000  0.5728260000000 1.0
C      1  0.4281240000000  0.3087120000000  0.6422380000000 1.0
C      1  0.5254570000000  0.3087120000000  0.6573210000000 1.0
C      1  0.6130660000000  0.3087120000000  0.6123120000000 1.0
C      1  0.6574880000000  0.3087120000000  0.5244040000000 1.0
C      1  0.6417550000000  0.3087120000000  0.4271740000000 1.0
C      1  0.5718760000000  0.3087120000000  0.3577620000000 1.0
C      1  0.4382120000000  0.4151040000000  0.3270190000000 1.0
C      1  0.3483370000000  0.4151040000000  0.3963730000000 1.0
C      1  0.3163920000000  0.4151040000000  0.5053090000000 1.0
C      1  0.3545790000000  0.4151040000000  0.6122180000000 1.0
C      1  0.4483120000000  0.4151040000000  0.6762620000000 1.0
C      1  0.5617880000000  0.4151040000000  0.6729810000000 1.0
C      1  0.6516630000000  0.4151040000000  0.6036270000000 1.0
C      1  0.6836080000000  0.4151040000000  0.4946910000000 1.0
C      1  0.6454210000000  0.4151040000000  0.3877820000000 1.0
C      1  0.5516880000000  0.4151040000000  0.3237380000000 1.0
C      1  0.7026340000000  0.5900240000000  0.6395530000000 1.0
C      1  0.7459610000000  0.5900240000000  0.4937960000000 1.0
C      1  0.6953400000000  0.5900240000000  0.3504080000000 1.0
C      1  0.5701060000000  0.5900240000000  0.2641590000000 1.0
C      1  0.4180930000000  0.5900240000000  0.2679940000000 1.0
C      1  0.2973660000000  0.5900240000000  0.3604470000000 1.0
C      1  0.2540390000000  0.5900240000000  0.5062040000000 1.0
C      1  0.3046600000000  0.5900240000000  0.6495920000000 1.0
C      1  0.4298940000000  0.5900240000000  0.7358410000000 1.0
C      1  0.5819070000000  0.5900240000000  0.7320060000000 1.0
C      1  0.5485140000000  0.5428220000000  0.6374320000000 1.0
C      1  0.6200290000000  0.5428220000000  0.5826690000000 1.0
C      1  0.6456970000000  0.5428220000000  0.4963290000000 1.0
C      1  0.6157140000000  0.5428220000000  0.4113920000000 1.0
C      1  0.5415320000000  0.5428220000000  0.3602990000000 1.0
C      1  0.4514860000000  0.5428220000000  0.3625680000000 1.0
C      1  0.3799710000000  0.5428220000000  0.4173310000000 1.0
C      1  0.3543030000000  0.5428220000000  0.5036710000000 1.0
C      1  0.3842860000000  0.5428220000000  0.5886080000000 1.0
C      1  0.4584680000000  0.5428220000000  0.6397010000000 1.0
C      1  0.2352990000000  0.4836690000000  0.5069760000000 1.0
C      1  0.2899530000000  0.4836690000000  0.6612310000000 1.0
C      1  0.4248370000000  0.4836690000000  0.7539010000000 1.0
C      1  0.5884310000000  0.4836690000000  0.7495900000000 1.0
C      1  0.7182480000000  0.4836690000000  0.6499440000000 1.0
C      1  0.7647010000000  0.4836690000000  0.4930240000000 1.0
C      1  0.7100470000000  0.4836690000000  0.3387690000000 1.0
C      1  0.5751630000000  0.4836690000000  0.2460990000000 1.0
C      1  0.4115690000000  0.4836690000000  0.2504100000000 1.0
C      1  0.2817520000000  0.4836690000000  0.3500560000000 1.0
C      1  0.6118310000000  0.6596690000000  0.6460350000000 1.0
C      1  0.6763110000000  0.6596690000000  0.5524120000000 1.0
C      1  0.6734450000000  0.6596690000000  0.4387700000000 1.0
C      1  0.6043300000000  0.6596690000000  0.3485150000000 1.0
C      1  0.4953640000000  0.6596690000000  0.3161220000000 1.0
C      1  0.3881690000000  0.6596690000000  0.3539650000000 1.0
C      1  0.3236890000000  0.6596690000000  0.4475880000000 1.0
C      1  0.3265550000000  0.6596690000000  0.5612300000000 1.0
C      1  0.3956700000000  0.6596690000000  0.6514850000000 1.0
C      1  0.5046360000000  0.6596690000000  0.6838780000000 1.0
END
