TITL C-986976-6631-420 0.0334268159722018 3375 -338.659197328854 0 0 60 (C2) n - 1
REM
REM in /home/bkarasulu/work/CARBON/AIRSS/Generating-Clusters/REBO/Higher-Symm/Only-C60
REM
REM
REM
REM
REM
REM ./C.cell (a2850807a9bf4ad07a5b6933b78d9264)
REM AIRSS Version 0.9.1 bugfix July 2018 build 013d7b7c2542+ Fri, 06 Jul 2018 19:26:36 +0100
REM compiler GCC version 9.2.1 20190827 (Red Hat 9.2.1-1)
REM options -cpp -mtune=generic -march=x86-64 -g -O0 -fpre-include=/usr/include/finclude/math-vector-fortran.h
REM seed -828214068 1365813626 -1006225193 1561754928 -983941836 693458543 -1684142679 -754898896 1151438284 1140523790 -1738709051 1345797056 -2095924650 1454759136 -1429570450 1146097205 -1669445572 -2021812729 417950232 -1002046554 492061590 -758313571 1627134205 -1205496511 -556217374 1776598803 1384880831 418983787 2001394892 -1640603338 2133483991 1330689637 -1257101994
REM
CELL 1.54180   15.00000   15.00000   15.00000   90.00000   90.00000   90.00000
LATT -1
SFAC C  
C      1  0.6134710000000  0.4952980000000  0.3802460000000 1.0
C      1  0.6134190000000  0.5046810000000  0.6197320000000 1.0
C      1  0.5656730000000  0.3693590000000  0.3170900000000 1.0
C      1  0.5656830000000  0.6306450000000  0.6829850000000 1.0
C      1  0.7049530000000  0.3785510000000  0.4234090000000 1.0
C      1  0.7049230000000  0.6214180000000  0.5766130000000 1.0
C      1  0.3564490000000  0.3222640000000  0.3632310000000 1.0
C      1  0.3564520000000  0.6777440000000  0.6367870000000 1.0
C      1  0.4924860000000  0.5030210000000  0.7725830000000 1.0
C      1  0.4924920000000  0.4970000000000  0.2274030000000 1.0
C      1  0.4806410000000  0.3595380000000  0.4184640000000 1.0
C      1  0.4807140000000  0.6404140000000  0.5815380000000 1.0
C      1  0.5872830000000  0.4415150000000  0.7821740000000 1.0
C      1  0.5872810000000  0.5585160000000  0.2177990000000 1.0
C      1  0.7213650000000  0.5284880000000  0.6045730000000 1.0
C      1  0.7213870000000  0.4715020000000  0.3953970000000 1.0
C      1  0.2214890000000  0.4791250000000  0.5410700000000 1.0
C      1  0.2214940000000  0.5208680000000  0.4589300000000 1.0
C      1  0.3654770000000  0.5958910000000  0.4985650000000 1.0
C      1  0.3654620000000  0.4040990000000  0.5014530000000 1.0
C      1  0.5472640000000  0.2630920000000  0.4816190000000 1.0
C      1  0.5472620000000  0.7369090000000  0.5183320000000 1.0
C      1  0.4361530000000  0.5781530000000  0.3203240000000 1.0
C      1  0.4361490000000  0.4218450000000  0.6796690000000 1.0
C      1  0.5919020000000  0.3625140000000  0.4916010000000 1.0
C      1  0.5918420000000  0.6374920000000  0.5083950000000 1.0
C      1  0.3004210000000  0.4496750000000  0.5764640000000 1.0
C      1  0.3004280000000  0.5503300000000  0.4235530000000 1.0
C      1  0.4527550000000  0.3592940000000  0.3143980000000 1.0
C      1  0.4527600000000  0.6406810000000  0.6855370000000 1.0
C      1  0.4487750000000  0.2623400000000  0.4794520000000 1.0
C      1  0.4488290000000  0.7376690000000  0.5205360000000 1.0
C      1  0.6352520000000  0.3370630000000  0.3680530000000 1.0
C      1  0.6352810000000  0.6629440000000  0.6320260000000 1.0
C      1  0.5166620000000  0.6115820000000  0.2893610000000 1.0
C      1  0.5166450000000  0.3884140000000  0.7106620000000 1.0
C      1  0.6891760000000  0.4206470000000  0.6096760000000 1.0
C      1  0.6891500000000  0.5793720000000  0.3903520000000 1.0
C      1  0.3427620000000  0.5162730000000  0.3358790000000 1.0
C      1  0.3427930000000  0.4837160000000  0.6641130000000 1.0
C      1  0.3629650000000  0.3122750000000  0.4573280000000 1.0
C      1  0.3630390000000  0.6877100000000  0.5426980000000 1.0
C      1  0.6891370000000  0.3697970000000  0.5239800000000 1.0
C      1  0.6889100000000  0.6301770000000  0.4760260000000 1.0
C      1  0.4148970000000  0.4562740000000  0.2695380000000 1.0
C      1  0.4148860000000  0.5437500000000  0.7304680000000 1.0
C      1  0.6243250000000  0.6094240000000  0.3123570000000 1.0
C      1  0.6243060000000  0.3905590000000  0.6876310000000 1.0
C      1  0.4471160000000  0.5381910000000  0.5543720000000 1.0
C      1  0.4470880000000  0.4618140000000  0.4456600000000 1.0
C      1  0.4337590000000  0.5578950000000  0.4230880000000 1.0
C      1  0.4337600000000  0.4421340000000  0.5768610000000 1.0
C      1  0.4905340000000  0.3708900000000  0.5310650000000 1.0
C      1  0.4905050000000  0.6291300000000  0.4689010000000 1.0
C      1  0.5816910000000  0.4683850000000  0.2866870000000 1.0
C      1  0.5816710000000  0.5316330000000  0.7132890000000 1.0
C      1  0.5569510000000  0.5381690000000  0.5400760000000 1.0
C      1  0.5570450000000  0.4618450000000  0.4599130000000 1.0
C      1  0.3282870000000  0.4063670000000  0.3174120000000 1.0
C      1  0.3282710000000  0.5936370000000  0.6826060000000 1.0
END
