TITL C-986975-4297-106 0.214871451623082 3375 -307.273391736542 0 0 60 (C1) n - 1
REM
REM in /home/bkarasulu/work/CARBON/AIRSS/Generating-Clusters/REBO/Higher-Symm/Only-C60
REM
REM
REM
REM
REM
REM ./C.cell (a2850807a9bf4ad07a5b6933b78d9264)
REM AIRSS Version 0.9.1 bugfix July 2018 build 013d7b7c2542+ Fri, 06 Jul 2018 19:26:36 +0100
REM compiler GCC version 9.2.1 20190827 (Red Hat 9.2.1-1)
REM options -cpp -mtune=generic -march=x86-64 -g -O0 -fpre-include=/usr/include/finclude/math-vector-fortran.h
REM seed -1366621379 -1398031430 286000356 850927510 968738931 1203755160 -1500249495 -232127210 -1610634230 -1336756150 -1149886673 792730595 -667635762 1424546954 775082352 1497751686 1612029754 -1689895991 1403611554 1705500588 79074583 -1211539919 1359612442 -156366274 -349943482 -2133319059 1750370888 1788070227 38546059 -317756721 1884822438 2121907649 639078306
REM
CELL 1.54180   15.00000   15.00000   15.00000   90.00000   90.00000   90.00000
LATT -1
SFAC C  
C      1  0.6094930000000  0.3323860000000  0.5711900000000 1.0
C      1  0.6256090000000  0.3316960000000  0.4591010000000 1.0
C      1  0.5477890000000  0.3298830000000  0.3770420000000 1.0
C      1  0.4348500000000  0.3309640000000  0.3857770000000 1.0
C      1  0.3713660000000  0.3328690000000  0.4798840000000 1.0
C      1  0.4058050000000  0.3325830000000  0.5879940000000 1.0
C      1  0.5116530000000  0.3327080000000  0.6287020000000 1.0
C      1  0.3273720000000  0.3092170000000  0.3564700000000 1.0
C      1  0.2815170000000  0.3111180000000  0.5456440000000 1.0
C      1  0.4011210000000  0.3094430000000  0.6989700000000 1.0
C      1  0.5954460000000  0.3091390000000  0.7015550000000 1.0
C      1  0.7190280000000  0.3103420000000  0.5512390000000 1.0
C      1  0.6785400000000  0.3106140000000  0.3608590000000 1.0
C      1  0.5044820000000  0.3107030000000  0.2741360000000 1.0
C      1  0.7417450000000  0.6161700000000  0.3809000000000 1.0
C      1  0.5554910000000  0.6185370000000  0.2488660000000 1.0
C      1  0.3519430000000  0.6182440000000  0.2838690000000 1.0
C      1  0.2279420000000  0.6167010000000  0.4953380000000 1.0
C      1  0.3299170000000  0.6186910000000  0.7091610000000 1.0
C      1  0.5589890000000  0.6177990000000  0.7646810000000 1.0
C      1  0.7453390000000  0.6175460000000  0.6183500000000 1.0
C      1  0.5749760000000  0.5638930000000  0.5935800000000 1.0
C      1  0.6231310000000  0.5747670000000  0.5016160000000 1.0
C      1  0.5855230000000  0.5913970000000  0.4048830000000 1.0
C      1  0.4795470000000  0.5900690000000  0.3949780000000 1.0
C      1  0.3851640000000  0.5812690000000  0.4447230000000 1.0
C      1  0.3903830000000  0.5803640000000  0.5505610000000 1.0
C      1  0.4740640000000  0.5678510000000  0.6156330000000 1.0
C      1  0.3570790000000  0.5429760000000  0.6737870000000 1.0
C      1  0.5489920000000  0.5414500000000  0.7221490000000 1.0
C      1  0.7057030000000  0.5411650000000  0.6003170000000 1.0
C      1  0.7061760000000  0.5377880000000  0.4010560000000 1.0
C      1  0.5469960000000  0.5377090000000  0.2896920000000 1.0
C      1  0.3793600000000  0.5376470000000  0.3194580000000 1.0
C      1  0.2705270000000  0.5396510000000  0.4958940000000 1.0
C      1  0.6266130000000  0.4982230000000  0.6608980000000 1.0
C      1  0.7032120000000  0.4996170000000  0.5007940000000 1.0
C      1  0.6293220000000  0.4966070000000  0.3414540000000 1.0
C      1  0.4622490000000  0.4935560000000  0.3003330000000 1.0
C      1  0.3236080000000  0.5000250000000  0.4059710000000 1.0
C      1  0.3170140000000  0.5011750000000  0.5833160000000 1.0
C      1  0.4521580000000  0.4991990000000  0.6965740000000 1.0
C      1  0.3194650000000  0.4028380000000  0.5807930000000 1.0
C      1  0.4510510000000  0.4015600000000  0.6924450000000 1.0
C      1  0.6222450000000  0.4008110000000  0.6584030000000 1.0
C      1  0.7003800000000  0.4017540000000  0.5031410000000 1.0
C      1  0.6278720000000  0.4008050000000  0.3451280000000 1.0
C      1  0.4627970000000  0.4009480000000  0.3034690000000 1.0
C      1  0.3239640000000  0.4018920000000  0.4058390000000 1.0
C      1  0.4023670000000  0.6895490000000  0.5191160000000 1.0
C      1  0.4537020000000  0.6754800000000  0.6194490000000 1.0
C      1  0.5672320000000  0.6717990000000  0.6058290000000 1.0
C      1  0.5981280000000  0.6865380000000  0.4965930000000 1.0
C      1  0.5822370000000  0.6993770000000  0.3877800000000 1.0
C      1  0.4828780000000  0.6978580000000  0.3588590000000 1.0
C      1  0.3940540000000  0.6893510000000  0.4115740000000 1.0
C      1  0.5023260000000  0.4396410000000  0.5025440000000 1.0
C      1  0.5008900000000  0.3530590000000  0.4981970000000 1.0
C      1  0.4996240000000  0.5248250000000  0.4815320000000 1.0
C      1  0.5039520000000  0.7352100000000  0.5367760000000 1.0
END
