TITL C-986976-6631-345 -3.13646535471142e-06 3375 -346.888669759831 0 0 60 (C1) n - 1
REM
REM in /home/bkarasulu/work/CARBON/AIRSS/Generating-Clusters/REBO/Higher-Symm/Only-C60
REM
REM
REM
REM
REM
REM ./C.cell (a2850807a9bf4ad07a5b6933b78d9264)
REM AIRSS Version 0.9.1 bugfix July 2018 build 013d7b7c2542+ Fri, 06 Jul 2018 19:26:36 +0100
REM compiler GCC version 9.2.1 20190827 (Red Hat 9.2.1-1)
REM options -cpp -mtune=generic -march=x86-64 -g -O0 -fpre-include=/usr/include/finclude/math-vector-fortran.h
REM seed -2064495039 314540424 1700165813 597590958 -332760325 -1728556141 1827571828 -1780682045 -1081187641 -2008623187 -1121979765 -327334393 1756487836 -1519618626 -195521129 1535712958 -698115090 -1492723874 -160382184 616905194 1848285027 1133905935 -1783474667 -11103599 -1881985875 -714261468 1483017455 -1258604237 -1079160578 -779437276 1404742709 589836707 -105852102
REM
CELL 1.54180   15.00000   15.00000   15.00000   90.00000   90.00000   90.00000
LATT -1
SFAC C  
C      1  0.4754160000000  0.6164630000000  0.3081820000000 1.0
C      1  0.6121450000000  0.4594890000000  0.3074750000000 1.0
C      1  0.4071580000000  0.4241760000000  0.3106770000000 1.0
C      1  0.3908730000000  0.4196550000000  0.6290830000000 1.0
C      1  0.4894330000000  0.6306350000000  0.6367030000000 1.0
C      1  0.6117280000000  0.4356760000000  0.6437710000000 1.0
C      1  0.4692970000000  0.2778450000000  0.5957400000000 1.0
C      1  0.3331260000000  0.6535860000000  0.6035890000000 1.0
C      1  0.7091020000000  0.5685470000000  0.5998640000000 1.0
C      1  0.6190050000000  0.6607970000000  0.5758340000000 1.0
C      1  0.5929540000000  0.3128070000000  0.5710640000000 1.0
C      1  0.2936230000000  0.5314310000000  0.5755370000000 1.0
C      1  0.4399160000000  0.5091860000000  0.3793510000000 1.0
C      1  0.5372490000000  0.5423510000000  0.3813830000000 1.0
C      1  0.5383750000000  0.4102200000000  0.3765040000000 1.0
C      1  0.3388750000000  0.3981290000000  0.3768210000000 1.0
C      1  0.4905510000000  0.6883250000000  0.3721680000000 1.0
C      1  0.6709490000000  0.4161180000000  0.3800820000000 1.0
C      1  0.3885030000000  0.3798110000000  0.5021440000000 1.0
C      1  0.4396380000000  0.6472710000000  0.4902800000000 1.0
C      1  0.6602450000000  0.4893650000000  0.4984120000000 1.0
C      1  0.2970200000000  0.6156470000000  0.5050170000000 1.0
C      1  0.6943400000000  0.6197250000000  0.5056480000000 1.0
C      1  0.5190810000000  0.2749400000000  0.4952660000000 1.0
C      1  0.5579300000000  0.6630870000000  0.4309050000000 1.0
C      1  0.6047270000000  0.3763690000000  0.4549980000000 1.0
C      1  0.3232140000000  0.4718950000000  0.4313090000000 1.0
C      1  0.5421040000000  0.6835390000000  0.5272810000000 1.0
C      1  0.6667050000000  0.3796780000000  0.5380980000000 1.0
C      1  0.3099060000000  0.4528960000000  0.5289170000000 1.0
C      1  0.3745040000000  0.3152750000000  0.4201630000000 1.0
C      1  0.4010250000000  0.7106760000000  0.4120650000000 1.0
C      1  0.7316440000000  0.4885800000000  0.4152050000000 1.0
C      1  0.5380560000000  0.5514090000000  0.2490330000000 1.0
C      1  0.5217580000000  0.4380410000000  0.2475260000000 1.0
C      1  0.4311980000000  0.5093290000000  0.2468620000000 1.0
C      1  0.4059730000000  0.5357640000000  0.7290740000000 1.0
C      1  0.5801170000000  0.5637810000000  0.7343260000000 1.0
C      1  0.5142340000000  0.3977090000000  0.7259630000000 1.0
C      1  0.6260320000000  0.5682410000000  0.3209740000000 1.0
C      1  0.4844470000000  0.3481900000000  0.3085220000000 1.0
C      1  0.3725850000000  0.5764530000000  0.3205520000000 1.0
C      1  0.3312140000000  0.5679290000000  0.6700060000000 1.0
C      1  0.6386920000000  0.6090940000000  0.6684590000000 1.0
C      1  0.5373990000000  0.3242050000000  0.6625520000000 1.0
C      1  0.5397570000000  0.4506170000000  0.5749120000000 1.0
C      1  0.4333150000000  0.4886780000000  0.5638490000000 1.0
C      1  0.5201880000000  0.5592810000000  0.5696690000000 1.0
C      1  0.4035170000000  0.5405170000000  0.4770710000000 1.0
C      1  0.5782870000000  0.5601860000000  0.4802170000000 1.0
C      1  0.4971350000000  0.4054590000000  0.4821240000000 1.0
C      1  0.3883430000000  0.3272980000000  0.5927940000000 1.0
C      1  0.4245960000000  0.6810410000000  0.5896470000000 1.0
C      1  0.7043260000000  0.4648160000000  0.5999610000000 1.0
C      1  0.4255970000000  0.4396660000000  0.7161240000000 1.0
C      1  0.4862870000000  0.5924190000000  0.7245540000000 1.0
C      1  0.5887970000000  0.4672030000000  0.7349600000000 1.0
C      1  0.3318340000000  0.6315920000000  0.4117080000000 1.0
C      1  0.6924470000000  0.5851650000000  0.4119420000000 1.0
C      1  0.4735070000000  0.2917270000000  0.4070840000000 1.0
END
