TITL C-986974-580-167 5.48600009511834e-05 3375 -353.722369389266 0 0 60 (C1) n - 1
REM
REM in /home/bkarasulu/work/CARBON/AIRSS/Generating-Clusters/REBO/Higher-Symm/Only-C60
REM
REM
REM
REM
REM
REM ./C.cell (a2850807a9bf4ad07a5b6933b78d9264)
REM AIRSS Version 0.9.1 bugfix July 2018 build 013d7b7c2542+ Fri, 06 Jul 2018 19:26:36 +0100
REM compiler GCC version 9.2.1 20190827 (Red Hat 9.2.1-1)
REM options -cpp -mtune=generic -march=x86-64 -g -O0 -fpre-include=/usr/include/finclude/math-vector-fortran.h
REM seed -1899763956 -2052507451 1259714326 88555386 -499761276 -1371518542 -1060960779 -711262511 -513063576 -709969807 -2095847068 -137781123 1389990851 846031871 -1986489589 1946044552 -1910061688 1396252031 -18479798 -157575381 -1073689929 1413121146 -206084630 1502919389 44943686 -491078927 897968685 291660087 -429960 1208161081 -1671777356 -1111890151 1946730972
REM
CELL 1.54180   15.00000   15.00000   15.00000   90.00000   90.00000   90.00000
LATT -1
SFAC C  
C      1  0.5601210000000  0.2750860000000  0.4555320000000 1.0
C      1  0.5594940000000  0.2733210000000  0.5522130000000 1.0
C      1  0.6875620000000  0.4906410000000  0.5418990000000 1.0
C      1  0.7050070000000  0.4671990000000  0.4325140000000 1.0
C      1  0.3926700000000  0.5307950000000  0.2832330000000 1.0
C      1  0.3890400000000  0.5293940000000  0.7239600000000 1.0
C      1  0.1382780000000  0.3954690000000  0.4555310000000 1.0
C      1  0.1380650000000  0.3946350000000  0.5460300000000 1.0
C      1  0.2836970000000  0.5481010000000  0.5569060000000 1.0
C      1  0.2837620000000  0.5492150000000  0.4486190000000 1.0
C      1  0.5292320000000  0.6158460000000  0.6674190000000 1.0
C      1  0.5349420000000  0.6135450000000  0.3389370000000 1.0
C      1  0.6438750000000  0.6256740000000  0.3670350000000 1.0
C      1  0.6369030000000  0.6311850000000  0.6353860000000 1.0
C      1  0.5410080000000  0.7831570000000  0.5869920000000 1.0
C      1  0.5456480000000  0.7783120000000  0.4235670000000 1.0
C      1  0.4465690000000  0.5075420000000  0.4263700000000 1.0
C      1  0.4425640000000  0.5068720000000  0.5809940000000 1.0
C      1  0.6985650000000  0.5958630000000  0.5512210000000 1.0
C      1  0.7068490000000  0.5800520000000  0.4458220000000 1.0
C      1  0.6716730000000  0.3375120000000  0.3322520000000 1.0
C      1  0.6734500000000  0.3328620000000  0.6776650000000 1.0
C      1  0.7360330000000  0.4874340000000  0.7030370000000 1.0
C      1  0.7398810000000  0.4847400000000  0.2886390000000 1.0
C      1  0.5908710000000  0.4482970000000  0.5750500000000 1.0
C      1  0.5924860000000  0.4545780000000  0.4421180000000 1.0
C      1  0.4555400000000  0.4143510000000  0.5529580000000 1.0
C      1  0.4574570000000  0.4148680000000  0.4543140000000 1.0
C      1  0.3323820000000  0.4628760000000  0.3150040000000 1.0
C      1  0.3297770000000  0.4609910000000  0.6911090000000 1.0
C      1  0.6221080000000  0.3471140000000  0.4208430000000 1.0
C      1  0.6217130000000  0.3428100000000  0.5898710000000 1.0
C      1  0.3686710000000  0.3736500000000  0.6800410000000 1.0
C      1  0.3706520000000  0.3754140000000  0.3265250000000 1.0
C      1  0.4487760000000  0.7738390000000  0.5563330000000 1.0
C      1  0.4518730000000  0.7705230000000  0.4495950000000 1.0
C      1  0.7194400000000  0.3968710000000  0.2842480000000 1.0
C      1  0.7207070000000  0.3995320000000  0.7165350000000 1.0
C      1  0.4669240000000  0.2599650000000  0.5830070000000 1.0
C      1  0.4683460000000  0.2611330000000  0.4230430000000 1.0
C      1  0.2636720000000  0.4869860000000  0.6243260000000 1.0
C      1  0.2647580000000  0.4888720000000  0.3801960000000 1.0
C      1  0.1886960000000  0.4315330000000  0.6110970000000 1.0
C      1  0.1893770000000  0.4335280000000  0.3914890000000 1.0
C      1  0.4620170000000  0.5552550000000  0.3437490000000 1.0
C      1  0.4577190000000  0.5555910000000  0.6632840000000 1.0
C      1  0.4298670000000  0.3442700000000  0.6135030000000 1.0
C      1  0.4315620000000  0.3454910000000  0.3929460000000 1.0
C      1  0.7230400000000  0.5568760000000  0.3357210000000 1.0
C      1  0.7166070000000  0.5593940000000  0.6573360000000 1.0
C      1  0.5679860000000  0.7135720000000  0.6422600000000 1.0
C      1  0.5749100000000  0.7085290000000  0.3705530000000 1.0
C      1  0.5210910000000  0.6110780000000  0.5084490000000 1.0
C      1  0.4229960000000  0.2229570000000  0.5023110000000 1.0
C      1  0.5520990000000  0.5217650000000  0.5065870000000 1.0
C      1  0.4332660000000  0.6762280000000  0.5054130000000 1.0
C      1  0.5933690000000  0.8037150000000  0.5059270000000 1.0
C      1  0.4054820000000  0.5461670000000  0.5027550000000 1.0
C      1  0.6830720000000  0.3826990000000  0.5067990000000 1.0
C      1  0.3410950000000  0.6305950000000  0.5036360000000 1.0
END
