TITL C-986974-580-929 2.14076995774895e-06 3375 -347.832399436139 0 0 60 (C1) n - 1
REM
REM in /home/bkarasulu/work/CARBON/AIRSS/Generating-Clusters/REBO/Higher-Symm/Only-C60
REM
REM
REM
REM
REM
REM ./C.cell (a2850807a9bf4ad07a5b6933b78d9264)
REM AIRSS Version 0.9.1 bugfix July 2018 build 013d7b7c2542+ Fri, 06 Jul 2018 19:26:36 +0100
REM compiler GCC version 9.2.1 20190827 (Red Hat 9.2.1-1)
REM options -cpp -mtune=generic -march=x86-64 -g -O0 -fpre-include=/usr/include/finclude/math-vector-fortran.h
REM seed 1824753399 1348293390 231984193 -1156773939 1389649903 527581416 2107831079 -1051241272 -1554299403 -1308696032 -1690685524 -1003088427 -691018440 831800 -1362623256 -727719025 1394961495 -1454704072 -1265737874 -1562089761 571713058 1361131354 -1697093106 -1685466360 -580062620 1927158999 588795464 2128667857 -14852122 -1860118283 437361216 -431203474 1729013530
REM
CELL 1.54180   15.00000   15.00000   15.00000   90.00000   90.00000   90.00000
LATT -1
SFAC C  
C      1  0.6412940000000  0.5970850000000  0.6436390000000 1.0
C      1  0.3578940000000  0.4149320000000  0.6547510000000 1.0
C      1  0.3488880000000  0.3580640000000  0.4169880000000 1.0
C      1  0.6496050000000  0.6586570000000  0.4120100000000 1.0
C      1  0.3580150000000  0.4865680000000  0.4988670000000 1.0
C      1  0.6432590000000  0.5224030000000  0.4945150000000 1.0
C      1  0.5281930000000  0.3943640000000  0.4930160000000 1.0
C      1  0.4897480000000  0.6054470000000  0.4878060000000 1.0
C      1  0.5199480000000  0.3527070000000  0.3861060000000 1.0
C      1  0.4841250000000  0.6567820000000  0.3857510000000 1.0
C      1  0.6760850000000  0.3763750000000  0.4405040000000 1.0
C      1  0.3265020000000  0.6348600000000  0.4437350000000 1.0
C      1  0.3689390000000  0.5972230000000  0.2958350000000 1.0
C      1  0.6377380000000  0.4109590000000  0.2913470000000 1.0
C      1  0.5858520000000  0.7311220000000  0.5535450000000 1.0
C      1  0.4159350000000  0.2644250000000  0.5481440000000 1.0
C      1  0.5295670000000  0.6064030000000  0.2948330000000 1.0
C      1  0.4697970000000  0.4003100000000  0.2960860000000 1.0
C      1  0.2561240000000  0.4709440000000  0.5234690000000 1.0
C      1  0.7462940000000  0.5368750000000  0.5281660000000 1.0
C      1  0.5837700000000  0.5479630000000  0.5628240000000 1.0
C      1  0.4156860000000  0.4569910000000  0.5678250000000 1.0
C      1  0.3337720000000  0.3333990000000  0.5791710000000 1.0
C      1  0.7263260000000  0.6291610000000  0.5878010000000 1.0
C      1  0.4385970000000  0.3400250000000  0.6273540000000 1.0
C      1  0.5634390000000  0.6670840000000  0.6183300000000 1.0
C      1  0.4646630000000  0.7160330000000  0.5021670000000 1.0
C      1  0.5210090000000  0.2822260000000  0.5139740000000 1.0
C      1  0.6823940000000  0.3674360000000  0.5361350000000 1.0
C      1  0.3140790000000  0.6434070000000  0.5394250000000 1.0
C      1  0.3993250000000  0.5040360000000  0.3372830000000 1.0
C      1  0.6138760000000  0.5091330000000  0.3261940000000 1.0
C      1  0.3829540000000  0.6610130000000  0.3636770000000 1.0
C      1  0.6207630000000  0.3503430000000  0.3605070000000 1.0
C      1  0.4357550000000  0.5597630000000  0.6688980000000 1.0
C      1  0.5632060000000  0.4488700000000  0.6711980000000 1.0
C      1  0.6095060000000  0.3171320000000  0.5686030000000 1.0
C      1  0.3899460000000  0.6931360000000  0.5725630000000 1.0
C      1  0.5285500000000  0.3774120000000  0.6067270000000 1.0
C      1  0.4709980000000  0.6261010000000  0.5995190000000 1.0
C      1  0.5648980000000  0.7074220000000  0.4480740000000 1.0
C      1  0.4341640000000  0.3073000000000  0.4446960000000 1.0
C      1  0.7066880000000  0.4488860000000  0.5855180000000 1.0
C      1  0.2883170000000  0.5577530000000  0.5869200000000 1.0
C      1  0.6507190000000  0.4847340000000  0.6578200000000 1.0
C      1  0.3469650000000  0.5245700000000  0.6587830000000 1.0
C      1  0.7123870000000  0.6344600000000  0.4775190000000 1.0
C      1  0.2905940000000  0.3725710000000  0.4950290000000 1.0
C      1  0.3619310000000  0.5445380000000  0.4248550000000 1.0
C      1  0.6442550000000  0.4676820000000  0.4190640000000 1.0
C      1  0.6307740000000  0.6139840000000  0.3294660000000 1.0
C      1  0.3683070000000  0.4027210000000  0.3339510000000 1.0
C      1  0.5130310000000  0.5004120000000  0.4613170000000 1.0
C      1  0.4977790000000  0.5052960000000  0.8105250000000 1.0
C      1  0.5057630000000  0.5008270000000  0.1617340000000 1.0
C      1  0.4976990000000  0.5002070000000  0.5672860000000 1.0
C      1  0.5025900000000  0.5023150000000  0.2541320000000 1.0
C      1  0.4991360000000  0.5049400000000  0.7172190000000 1.0
C      1  0.5086020000000  0.5010240000000  0.3674870000000 1.0
C      1  0.4965090000000  0.5056310000000  0.8978730000000 1.0
END
