TITL C-986975-4297-732 -5.0492193270225e-06 3375 -328.718627969057 0 0 60 (Td) n - 1
REM
REM in /home/bkarasulu/work/CARBON/AIRSS/Generating-Clusters/REBO/Higher-Symm/Only-C60
REM
REM
REM
REM
REM
REM ./C.cell (a2850807a9bf4ad07a5b6933b78d9264)
REM AIRSS Version 0.9.1 bugfix July 2018 build 013d7b7c2542+ Fri, 06 Jul 2018 19:26:36 +0100
REM compiler GCC version 9.2.1 20190827 (Red Hat 9.2.1-1)
REM options -cpp -mtune=generic -march=x86-64 -g -O0 -fpre-include=/usr/include/finclude/math-vector-fortran.h
REM seed 864736604 517315612 -472056761 1262274897 159941343 1758558301 -191839033 -2077478242 -1465373781 136671380 -258924055 -250985449 -807000498 -1230737125 -663949538 -1821241398 279535346 -1975447750 242614707 651190143 -384637552 806780695 260729936 636180632 1575370171 357101624 -301545372 -1879614351 1405733981 852290406 -1965005029 -1017353711 -2144935986
REM
CELL 1.54180   15.00000   15.00000   15.00000   90.00000   90.00000   90.00000
LATT -1
SFAC C  
C      1  0.4702800000000  0.3941500000000  0.3205850000000 1.0
C      1  0.3941500000000  0.3205850000000  0.4702800000000 1.0
C      1  0.3205850000000  0.4702800000000  0.3941500000000 1.0
C      1  0.4702800000000  0.6058500000000  0.6794150000000 1.0
C      1  0.5297200000000  0.3941500000000  0.6794150000000 1.0
C      1  0.5297200000000  0.6058500000000  0.3205850000000 1.0
C      1  0.3941500000000  0.6794150000000  0.5297200000000 1.0
C      1  0.6058500000000  0.3205850000000  0.5297200000000 1.0
C      1  0.6058500000000  0.6794150000000  0.4702800000000 1.0
C      1  0.3205850000000  0.5297200000000  0.6058500000000 1.0
C      1  0.6794150000000  0.4702800000000  0.6058500000000 1.0
C      1  0.6794150000000  0.5297200000000  0.3941500000000 1.0
C      1  0.4702800000000  0.3205850000000  0.3941500000000 1.0
C      1  0.3941500000000  0.4702800000000  0.3205850000000 1.0
C      1  0.3205850000000  0.3941500000000  0.4702800000000 1.0
C      1  0.4702800000000  0.6794150000000  0.6058500000000 1.0
C      1  0.5297200000000  0.6794150000000  0.3941500000000 1.0
C      1  0.5297200000000  0.3205850000000  0.6058500000000 1.0
C      1  0.3941500000000  0.5297200000000  0.6794150000000 1.0
C      1  0.6058500000000  0.5297200000000  0.3205850000000 1.0
C      1  0.6058500000000  0.4702800000000  0.6794150000000 1.0
C      1  0.3205850000000  0.6058500000000  0.5297200000000 1.0
C      1  0.6794150000000  0.6058500000000  0.4702800000000 1.0
C      1  0.6794150000000  0.3941500000000  0.5297200000000 1.0
C      1  0.4251900000000  0.4982640000000  0.7804960000000 1.0
C      1  0.4982640000000  0.7804960000000  0.4251900000000 1.0
C      1  0.7804960000000  0.4251900000000  0.4982640000000 1.0
C      1  0.4251900000000  0.5017360000000  0.2195040000000 1.0
C      1  0.5748100000000  0.4982640000000  0.2195040000000 1.0
C      1  0.5748100000000  0.5017360000000  0.7804960000000 1.0
C      1  0.4982640000000  0.2195040000000  0.5748100000000 1.0
C      1  0.5017360000000  0.7804960000000  0.5748100000000 1.0
C      1  0.5017360000000  0.2195040000000  0.4251900000000 1.0
C      1  0.7804960000000  0.5748100000000  0.5017360000000 1.0
C      1  0.2195040000000  0.4251900000000  0.5017360000000 1.0
C      1  0.2195040000000  0.5748100000000  0.4982640000000 1.0
C      1  0.4251900000000  0.7804960000000  0.4982640000000 1.0
C      1  0.4982640000000  0.4251900000000  0.7804960000000 1.0
C      1  0.7804960000000  0.4982640000000  0.4251900000000 1.0
C      1  0.4251900000000  0.2195040000000  0.5017360000000 1.0
C      1  0.5748100000000  0.2195040000000  0.4982640000000 1.0
C      1  0.5748100000000  0.7804960000000  0.5017360000000 1.0
C      1  0.4982640000000  0.5748100000000  0.2195040000000 1.0
C      1  0.5017360000000  0.5748100000000  0.7804960000000 1.0
C      1  0.5017360000000  0.4251900000000  0.2195040000000 1.0
C      1  0.7804960000000  0.5017360000000  0.5748100000000 1.0
C      1  0.2195040000000  0.5017360000000  0.4251900000000 1.0
C      1  0.2195040000000  0.4982640000000  0.5748100000000 1.0
C      1  0.4324630000000  0.5675370000000  0.3522670000000 1.0
C      1  0.5675370000000  0.3522670000000  0.4324630000000 1.0
C      1  0.3522670000000  0.4324630000000  0.5675370000000 1.0
C      1  0.4324630000000  0.4324630000000  0.6477330000000 1.0
C      1  0.5675370000000  0.5675370000000  0.6477330000000 1.0
C      1  0.5675370000000  0.4324630000000  0.3522670000000 1.0
C      1  0.4324630000000  0.6477330000000  0.4324630000000 1.0
C      1  0.3522670000000  0.5675370000000  0.4324630000000 1.0
C      1  0.6477330000000  0.4324630000000  0.4324630000000 1.0
C      1  0.6477330000000  0.5675370000000  0.5675370000000 1.0
C      1  0.4324630000000  0.3522670000000  0.5675370000000 1.0
C      1  0.5675370000000  0.6477330000000  0.5675370000000 1.0
END
