TITL C-986978-6805-119 -1.28936470441449e-05 3375 -360.446597185929 0 0 60 (C2) n - 1
REM
REM in /home/bkarasulu/work/CARBON/AIRSS/Generating-Clusters/REBO/Higher-Symm/Only-C60
REM
REM
REM
REM
REM
REM ./C.cell (a2850807a9bf4ad07a5b6933b78d9264)
REM AIRSS Version 0.9.1 bugfix July 2018 build 013d7b7c2542+ Fri, 06 Jul 2018 19:26:36 +0100
REM compiler GCC version 9.2.1 20190827 (Red Hat 9.2.1-1)
REM options -cpp -mtune=generic -march=x86-64 -g -O0 -fpre-include=/usr/include/finclude/math-vector-fortran.h
REM seed 122405255 -2061114001 88712579 -452954882 -564220526 -519263330 275789435 2060899003 -463974746 -1475519711 -822741720 -1758751517 -696532445 66524330 1818951179 -619959891 687122961 -1847696694 1367550247 -1995393961 1824585906 1917246053 19160935 -742527202 1255651093 1476857924 1711149245 -1882142163 880740253 1228607952 1578407674 944200033 410901785
REM
CELL 1.54180   15.00000   15.00000   15.00000   90.00000   90.00000   90.00000
LATT -1
SFAC C  
C      1  0.7159020000000  0.6159800000000  0.5473440000000 1.0
C      1  0.3838960000000  0.7169900000000  0.5478470000000 1.0
C      1  0.2840980000000  0.3840200000000  0.5473440000000 1.0
C      1  0.6161040000000  0.2830100000000  0.5478470000000 1.0
C      1  0.3545280000000  0.4760370000000  0.6458520000000 1.0
C      1  0.5261070000000  0.3441320000000  0.6472260000000 1.0
C      1  0.6454720000000  0.5239630000000  0.6458520000000 1.0
C      1  0.4738940000000  0.6558680000000  0.6472260000000 1.0
C      1  0.7180400000000  0.5122100000000  0.5354890000000 1.0
C      1  0.4869100000000  0.7191200000000  0.5313880000000 1.0
C      1  0.2819600000000  0.4877900000000  0.5354890000000 1.0
C      1  0.5130900000000  0.2808800000000  0.5313880000000 1.0
C      1  0.4320940000000  0.5029520000000  0.7244180000000 1.0
C      1  0.4944860000000  0.4119800000000  0.7324030000000 1.0
C      1  0.5679060000000  0.4970480000000  0.7244180000000 1.0
C      1  0.5055140000000  0.5880200000000  0.7324030000000 1.0
C      1  0.6979020000000  0.4286330000000  0.6111170000000 1.0
C      1  0.5709830000000  0.7002470000000  0.6064470000000 1.0
C      1  0.3020980000000  0.5713670000000  0.6111170000000 1.0
C      1  0.4290170000000  0.2997530000000  0.6064470000000 1.0
C      1  0.6782410000000  0.3498160000000  0.5317700000000 1.0
C      1  0.6501680000000  0.6784880000000  0.5282800000000 1.0
C      1  0.3217590000000  0.6501840000000  0.5317700000000 1.0
C      1  0.3498320000000  0.3215110000000  0.5282800000000 1.0
C      1  0.4038960000000  0.3825640000000  0.6757900000000 1.0
C      1  0.6137520000000  0.4033930000000  0.6794770000000 1.0
C      1  0.5961040000000  0.6174360000000  0.6757900000000 1.0
C      1  0.3862480000000  0.5966070000000  0.6794770000000 1.0
C      1  0.6143270000000  0.6775420000000  0.4387040000000 1.0
C      1  0.3206670000000  0.6150620000000  0.4420140000000 1.0
C      1  0.3856730000000  0.3224580000000  0.4387040000000 1.0
C      1  0.6793330000000  0.3849380000000  0.4420140000000 1.0
C      1  0.2873630000000  0.5228870000000  0.4377210000000 1.0
C      1  0.4777520000000  0.2881220000000  0.4336130000000 1.0
C      1  0.7126370000000  0.4771130000000  0.4377200000000 1.0
C      1  0.5222480000000  0.7118780000000  0.4336130000000 1.0
C      1  0.4045890000000  0.4398910000000  0.5541500000000 1.0
C      1  0.5591300000000  0.4027730000000  0.5580200000000 1.0
C      1  0.5954110000000  0.5601090000000  0.5541500000000 1.0
C      1  0.4408700000000  0.5972270000000  0.5580200000000 1.0
C      1  0.6099770000000  0.4671600000000  0.5206270000000 1.0
C      1  0.5308390000000  0.6105080000000  0.5180620000000 1.0
C      1  0.3900230000000  0.5328400000000  0.5206270000000 1.0
C      1  0.4691610000000  0.3894920000000  0.5180620000000 1.0
C      1  0.3293350000000  0.4755800000000  0.3642950000000 1.0
C      1  0.5264860000000  0.3332490000000  0.3631090000000 1.0
C      1  0.6706650000000  0.5244200000000  0.3642950000000 1.0
C      1  0.4735140000000  0.6667510000000  0.3631090000000 1.0
C      1  0.3841550000000  0.6273720000000  0.3661430000000 1.0
C      1  0.3742260000000  0.3889250000000  0.3657940000000 1.0
C      1  0.6158450000000  0.3726280000000  0.3661430000000 1.0
C      1  0.6257740000000  0.6110750000000  0.3657940000000 1.0
C      1  0.4246820000000  0.5273880000000  0.2349790000000 1.0
C      1  0.4773320000000  0.4376680000000  0.2386010000000 1.0
C      1  0.5753180000000  0.4726120000000  0.2349790000000 1.0
C      1  0.5226680000000  0.5623320000000  0.2386010000000 1.0
C      1  0.5435100000000  0.6203980000000  0.3103940000000 1.0
C      1  0.3691340000000  0.5473190000000  0.3089260000000 1.0
C      1  0.4564900000000  0.3796020000000  0.3103940000000 1.0
C      1  0.6308650000000  0.4526810000000  0.3089250000000 1.0
END
