TITL C-986978-6805-264 -2.65566015914753e-06 3375 -349.941910197326 0 0 60 (C1) n - 1
REM
REM in /home/bkarasulu/work/CARBON/AIRSS/Generating-Clusters/REBO/Higher-Symm/Only-C60
REM
REM
REM
REM
REM
REM ./C.cell (a2850807a9bf4ad07a5b6933b78d9264)
REM AIRSS Version 0.9.1 bugfix July 2018 build 013d7b7c2542+ Fri, 06 Jul 2018 19:26:36 +0100
REM compiler GCC version 9.2.1 20190827 (Red Hat 9.2.1-1)
REM options -cpp -mtune=generic -march=x86-64 -g -O0 -fpre-include=/usr/include/finclude/math-vector-fortran.h
REM seed 850583124 256262051 -1405967736 -732137230 228831447 -945132712 -447412566 -636194229 1073097144 -834243629 -284358317 930723033 1543659539 1891113345 -327155841 -302766856 802057187 718413155 -1853767854 -695422964 1571660514 -603260823 -1271839564 -1734979918 -1105370029 477007429 -2096357344 145095323 576632555 -1122262556 1796743202 -1637391655 -935309115
REM
CELL 1.54180   15.00000   15.00000   15.00000   90.00000   90.00000   90.00000
LATT -1
SFAC C  
C      1  0.5674090000000  0.3876590000000  0.6314900000000 1.0
C      1  0.6624770000000  0.4922890000000  0.3249060000000 1.0
C      1  0.3097240000000  0.6436550000000  0.5160850000000 1.0
C      1  0.6834700000000  0.3811490000000  0.5568890000000 1.0
C      1  0.6036840000000  0.5593000000000  0.2814440000000 1.0
C      1  0.3951040000000  0.5855540000000  0.2790000000000 1.0
C      1  0.3509590000000  0.5502960000000  0.4899700000000 1.0
C      1  0.7424460000000  0.5571840000000  0.5457370000000 1.0
C      1  0.6381420000000  0.5954730000000  0.6571620000000 1.0
C      1  0.4574590000000  0.6096360000000  0.3595940000000 1.0
C      1  0.5870540000000  0.4514010000000  0.7201360000000 1.0
C      1  0.4493550000000  0.5549800000000  0.2078710000000 1.0
C      1  0.4491140000000  0.2729600000000  0.5547490000000 1.0
C      1  0.4797640000000  0.2494030000000  0.4528100000000 1.0
C      1  0.6357180000000  0.3012590000000  0.5571320000000 1.0
C      1  0.5723150000000  0.5577840000000  0.7175920000000 1.0
C      1  0.6846260000000  0.4129210000000  0.4661460000000 1.0
C      1  0.3002720000000  0.3900740000000  0.4178340000000 1.0
C      1  0.3022260000000  0.3930360000000  0.5178100000000 1.0
C      1  0.3064240000000  0.4726360000000  0.3717090000000 1.0
C      1  0.5077710000000  0.5811600000000  0.4496790000000 1.0
C      1  0.3750540000000  0.7228350000000  0.5431890000000 1.0
C      1  0.4177340000000  0.2581960000000  0.3598610000000 1.0
C      1  0.3848600000000  0.3367790000000  0.4222490000000 1.0
C      1  0.5242750000000  0.4312990000000  0.2882780000000 1.0
C      1  0.4127070000000  0.4517470000000  0.6673070000000 1.0
C      1  0.4853920000000  0.5966260000000  0.7108600000000 1.0
C      1  0.4041140000000  0.5179640000000  0.3955770000000 1.0
C      1  0.5205010000000  0.7225950000000  0.6198900000000 1.0
C      1  0.5577360000000  0.5525020000000  0.5293030000000 1.0
C      1  0.4461010000000  0.4107700000000  0.5824030000000 1.0
C      1  0.3080490000000  0.4822470000000  0.5526520000000 1.0
C      1  0.4359620000000  0.6055330000000  0.5342080000000 1.0
C      1  0.5523410000000  0.7089130000000  0.4225060000000 1.0
C      1  0.7043540000000  0.6027290000000  0.4765350000000 1.0
C      1  0.5994560000000  0.6253350000000  0.5748220000000 1.0
C      1  0.5793230000000  0.7222880000000  0.5297720000000 1.0
C      1  0.6125300000000  0.4082720000000  0.3158050000000 1.0
C      1  0.5413750000000  0.4657100000000  0.5582760000000 1.0
C      1  0.7072680000000  0.5334400000000  0.6307250000000 1.0
C      1  0.6144230000000  0.3522100000000  0.4032770000000 1.0
C      1  0.3706730000000  0.3355300000000  0.5551600000000 1.0
C      1  0.4762680000000  0.4555980000000  0.7323430000000 1.0
C      1  0.3208550000000  0.6620400000000  0.6216380000000 1.0
C      1  0.3294870000000  0.5877700000000  0.6840320000000 1.0
C      1  0.5603880000000  0.3113650000000  0.4885350000000 1.0
C      1  0.5086020000000  0.3260100000000  0.3677520000000 1.0
C      1  0.6728010000000  0.4395720000000  0.6455950000000 1.0
C      1  0.6425390000000  0.6406780000000  0.4276670000000 1.0
C      1  0.5296900000000  0.5128140000000  0.2344950000000 1.0
C      1  0.7099490000000  0.4876650000000  0.4094810000000 1.0
C      1  0.3989120000000  0.5933290000000  0.7510320000000 1.0
C      1  0.4659320000000  0.4323920000000  0.3799860000000 1.0
C      1  0.4712070000000  0.3813050000000  0.4812920000000 1.0
C      1  0.5156350000000  0.3004060000000  0.6135820000000 1.0
C      1  0.3134540000000  0.5432020000000  0.3012900000000 1.0
C      1  0.3328510000000  0.4995010000000  0.6444040000000 1.0
C      1  0.5678490000000  0.6303330000000  0.3430540000000 1.0
C      1  0.4701230000000  0.7083170000000  0.4975970000000 1.0
C      1  0.4737170000000  0.6443770000000  0.6278260000000 1.0
END
