TITL C-986974-580-481 -3.79814612064677e-05 3375 -353.335387059326 0 0 60 (C1) n - 1
REM
REM in /home/bkarasulu/work/CARBON/AIRSS/Generating-Clusters/REBO/Higher-Symm/Only-C60
REM
REM
REM
REM
REM
REM ./C.cell (a2850807a9bf4ad07a5b6933b78d9264)
REM AIRSS Version 0.9.1 bugfix July 2018 build 013d7b7c2542+ Fri, 06 Jul 2018 19:26:36 +0100
REM compiler GCC version 9.2.1 20190827 (Red Hat 9.2.1-1)
REM options -cpp -mtune=generic -march=x86-64 -g -O0 -fpre-include=/usr/include/finclude/math-vector-fortran.h
REM seed -415327403 140881469 313215247 -1128166511 -962454514 -1638468349 -2098344198 -1291220456 -1398924001 -2091892136 -1461125141 2076686838 -1910475639 -595990811 1148374275 134898966 631411572 144000889 -278572852 -100087286 1951511675 -153887826 598896598 -1971013326 29929627 -1108941531 662832478 -1402796207 -938131614 532871970 1734018951 965005593 -1846351797
REM
CELL 1.54180   15.00000   15.00000   15.00000   90.00000   90.00000   90.00000
LATT -1
SFAC C  
C      1  0.4317370000000  0.5053840000000  0.3213850000000 1.0
C      1  0.7219240000000  0.4714840000000  0.5633700000000 1.0
C      1  0.3523710000000  0.4783420000000  0.6634070000000 1.0
C      1  0.4383410000000  0.4828940000000  0.6983080000000 1.0
C      1  0.7168410000000  0.4754100000000  0.4688950000000 1.0
C      1  0.3473460000000  0.4695520000000  0.3525540000000 1.0
C      1  0.5869710000000  0.7021870000000  0.5491070000000 1.0
C      1  0.4201010000000  0.6928840000000  0.5456960000000 1.0
C      1  0.4958470000000  0.7085990000000  0.3922700000000 1.0
C      1  0.5841860000000  0.6972890000000  0.4489390000000 1.0
C      1  0.4166010000000  0.7070510000000  0.4418250000000 1.0
C      1  0.5038660000000  0.7179940000000  0.5984880000000 1.0
C      1  0.5126980000000  0.6750730000000  0.3039900000000 1.0
C      1  0.6618730000000  0.6612710000000  0.6036340000000 1.0
C      1  0.3217920000000  0.6648590000000  0.5816030000000 1.0
C      1  0.5071470000000  0.6923690000000  0.6874780000000 1.0
C      1  0.6739700000000  0.6747720000000  0.3972110000000 1.0
C      1  0.3359700000000  0.6732590000000  0.4036610000000 1.0
C      1  0.6489210000000  0.4972320000000  0.6485210000000 1.0
C      1  0.2979490000000  0.4959080000000  0.5637950000000 1.0
C      1  0.5894300000000  0.5101110000000  0.2929100000000 1.0
C      1  0.6770860000000  0.5041440000000  0.3652350000000 1.0
C      1  0.2902920000000  0.4945080000000  0.4500430000000 1.0
C      1  0.5503290000000  0.5090090000000  0.7061420000000 1.0
C      1  0.4975960000000  0.2695270000000  0.3951620000000 1.0
C      1  0.5860410000000  0.2551360000000  0.5421280000000 1.0
C      1  0.4153390000000  0.2656770000000  0.5489530000000 1.0
C      1  0.4967510000000  0.2661720000000  0.5971120000000 1.0
C      1  0.5852460000000  0.2577540000000  0.4479960000000 1.0
C      1  0.4186690000000  0.2618090000000  0.4438060000000 1.0
C      1  0.4075190000000  0.5527690000000  0.4601750000000 1.0
C      1  0.5580770000000  0.5925970000000  0.4104850000000 1.0
C      1  0.5247250000000  0.5600760000000  0.5924560000000 1.0
C      1  0.4267060000000  0.5861930000000  0.5595380000000 1.0
C      1  0.5974840000000  0.5836640000000  0.5164370000000 1.0
C      1  0.4584470000000  0.5774680000000  0.3826410000000 1.0
C      1  0.5076320000000  0.4059800000000  0.7184630000000 1.0
C      1  0.3069030000000  0.3917160000000  0.4115650000000 1.0
C      1  0.6674900000000  0.4043480000000  0.4069290000000 1.0
C      1  0.5103330000000  0.4580410000000  0.2880080000000 1.0
C      1  0.3084560000000  0.3972100000000  0.6099920000000 1.0
C      1  0.6685200000000  0.3949140000000  0.6146360000000 1.0
C      1  0.5805630000000  0.6124540000000  0.2797140000000 1.0
C      1  0.6400970000000  0.5990740000000  0.6672930000000 1.0
C      1  0.2823750000000  0.5951730000000  0.5368420000000 1.0
C      1  0.5567350000000  0.6185830000000  0.7183140000000 1.0
C      1  0.6673890000000  0.6076590000000  0.3359660000000 1.0
C      1  0.2825350000000  0.6040840000000  0.4378940000000 1.0
C      1  0.5291340000000  0.3264520000000  0.6770710000000 1.0
C      1  0.3316470000000  0.3164230000000  0.4594040000000 1.0
C      1  0.6121390000000  0.3357500000000  0.3886670000000 1.0
C      1  0.5178360000000  0.3578900000000  0.3297630000000 1.0
C      1  0.3276510000000  0.3197560000000  0.5646300000000 1.0
C      1  0.6160210000000  0.3199020000000  0.6185010000000 1.0
C      1  0.4158840000000  0.4472620000000  0.4641430000000 1.0
C      1  0.5645000000000  0.4847620000000  0.4334000000000 1.0
C      1  0.5262880000000  0.4455480000000  0.5928580000000 1.0
C      1  0.4338200000000  0.4713350000000  0.5603160000000 1.0
C      1  0.5963300000000  0.4720660000000  0.5255160000000 1.0
C      1  0.4935350000000  0.4231920000000  0.4147590000000 1.0
END
