TITL C-986976-6631-853 -5.75089741728193e-06 3375 -357.978623736956 0 0 60 (D3h) n - 1
REM
REM in /home/bkarasulu/work/CARBON/AIRSS/Generating-Clusters/REBO/Higher-Symm/Only-C60
REM
REM
REM
REM
REM
REM ./C.cell (a2850807a9bf4ad07a5b6933b78d9264)
REM AIRSS Version 0.9.1 bugfix July 2018 build 013d7b7c2542+ Fri, 06 Jul 2018 19:26:36 +0100
REM compiler GCC version 9.2.1 20190827 (Red Hat 9.2.1-1)
REM options -cpp -mtune=generic -march=x86-64 -g -O0 -fpre-include=/usr/include/finclude/math-vector-fortran.h
REM seed -1569763946 -1756691960 -885691039 478821950 546687514 -1908113850 -890326739 -225930795 442763219 -1100715026 1802826454 867806533 682994953 2077532420 1885914705 451791083 -921397771 -2074722195 -651718132 1554301196 676376172 -113453413 -193642788 1915883294 1620566895 -1427705328 1140097272 447226102 -1166283795 -585459132 -1266317078 1536759740 1705377802
REM
CELL 1.54180   15.00000   15.00000   15.00000   90.00000   90.00000   90.00000
LATT -1
SFAC C  
C      1  0.5543270000000  0.4430960000000  0.7622190000000 1.0
C      1  0.6999650000000  0.4434940000000  0.3234250000000 1.0
C      1  0.2480030000000  0.4383130000000  0.4159670000000 1.0
C      1  0.5543270000000  0.5569040000000  0.7622190000000 1.0
C      1  0.6999650000000  0.5565060000000  0.3234250000000 1.0
C      1  0.2480030000000  0.5616870000000  0.4159670000000 1.0
C      1  0.4456730000000  0.4430960000000  0.7622190000000 1.0
C      1  0.3000350000000  0.4434940000000  0.3234250000000 1.0
C      1  0.7519970000000  0.4383130000000  0.4159670000000 1.0
C      1  0.4456730000000  0.5569040000000  0.7622190000000 1.0
C      1  0.3000350000000  0.5565060000000  0.3234250000000 1.0
C      1  0.7519970000000  0.5616870000000  0.4159670000000 1.0
C      1  0.8026370000000  0.6040080000000  0.5032970000000 1.0
C      1  0.3529010000000  0.6042080000000  0.2349590000000 1.0
C      1  0.3425910000000  0.6044120000000  0.7596980000000 1.0
C      1  0.8026370000000  0.3959920000000  0.5032970000000 1.0
C      1  0.3529010000000  0.3957920000000  0.2349590000000 1.0
C      1  0.3425910000000  0.3955880000000  0.7596980000000 1.0
C      1  0.1973630000000  0.6040080000000  0.5032970000000 1.0
C      1  0.6470990000000  0.6042080000000  0.2349590000000 1.0
C      1  0.6574090000000  0.6044120000000  0.7596980000000 1.0
C      1  0.1973630000000  0.3959920000000  0.5032970000000 1.0
C      1  0.6470990000000  0.3957920000000  0.2349590000000 1.0
C      1  0.6574090000000  0.3955880000000  0.7596980000000 1.0
C      1  0.4544700000000  0.4097910000000  0.5797300000000 1.0
C      1  0.5911430000000  0.4100030000000  0.5000470000000 1.0
C      1  0.4541210000000  0.4096510000000  0.4210940000000 1.0
C      1  0.4544700000000  0.5902090000000  0.5797300000000 1.0
C      1  0.5911430000000  0.5899970000000  0.5000470000000 1.0
C      1  0.4541210000000  0.5903490000000  0.4210940000000 1.0
C      1  0.5455300000000  0.4097910000000  0.5797300000000 1.0
C      1  0.4088570000000  0.4100030000000  0.5000470000000 1.0
C      1  0.5458790000000  0.4096510000000  0.4210940000000 1.0
C      1  0.5455300000000  0.5902090000000  0.5797300000000 1.0
C      1  0.4088570000000  0.5899970000000  0.5000470000000 1.0
C      1  0.5458790000000  0.5903490000000  0.4210940000000 1.0
C      1  0.3044550000000  0.4035890000000  0.6651240000000 1.0
C      1  0.7409060000000  0.4036440000000  0.5855050000000 1.0
C      1  0.4541630000000  0.4033560000000  0.2486370000000 1.0
C      1  0.3044550000000  0.5964110000000  0.6651240000000 1.0
C      1  0.7409060000000  0.5963560000000  0.5855050000000 1.0
C      1  0.4541630000000  0.5966440000000  0.2486370000000 1.0
C      1  0.6955450000000  0.4035890000000  0.6651240000000 1.0
C      1  0.2590940000000  0.4036440000000  0.5855050000000 1.0
C      1  0.5458370000000  0.4033560000000  0.2486370000000 1.0
C      1  0.6955450000000  0.5964110000000  0.6651240000000 1.0
C      1  0.2590940000000  0.5963560000000  0.5855050000000 1.0
C      1  0.5458370000000  0.5966440000000  0.2486370000000 1.0
C      1  0.3182320000000  0.4483340000000  0.5035450000000 1.0
C      1  0.5946930000000  0.4475260000000  0.6562710000000 1.0
C      1  0.5878430000000  0.4475200000000  0.3404800000000 1.0
C      1  0.3182320000000  0.5516660000000  0.5035450000000 1.0
C      1  0.5946930000000  0.5524740000000  0.6562710000000 1.0
C      1  0.5878430000000  0.5524800000000  0.3404800000000 1.0
C      1  0.6817680000000  0.4483340000000  0.5035450000000 1.0
C      1  0.4053070000000  0.4475260000000  0.6562710000000 1.0
C      1  0.4121570000000  0.4475200000000  0.3404800000000 1.0
C      1  0.6817680000000  0.5516660000000  0.5035450000000 1.0
C      1  0.4053070000000  0.5524740000000  0.6562710000000 1.0
C      1  0.4121570000000  0.5524800000000  0.3404800000000 1.0
END
