TITL C-986976-6631-602 3.22798761752017e-06 3375 -347.874315881525 0 0 60 (D2) n - 1
REM
REM in /home/bkarasulu/work/CARBON/AIRSS/Generating-Clusters/REBO/Higher-Symm/Only-C60
REM
REM
REM
REM
REM
REM ./C.cell (a2850807a9bf4ad07a5b6933b78d9264)
REM AIRSS Version 0.9.1 bugfix July 2018 build 013d7b7c2542+ Fri, 06 Jul 2018 19:26:36 +0100
REM compiler GCC version 9.2.1 20190827 (Red Hat 9.2.1-1)
REM options -cpp -mtune=generic -march=x86-64 -g -O0 -fpre-include=/usr/include/finclude/math-vector-fortran.h
REM seed 447020403 1233678336 -996171355 -37293900 1348144336 -846327279 -1538597597 1927001831 -1772153864 357112049 -1499972886 255225988 523660551 -1282960881 2135980738 -1520430395 356403125 1420157659 693144287 333197060 -939170953 636693966 1804728526 1049464479 -882683972 -808907011 -807552960 409347810 1901444722 1415721559 -1291493230 218969179 -661718118
REM
CELL 1.54180   15.00000   15.00000   15.00000   90.00000   90.00000   90.00000
LATT -1
SFAC C  
C      1  0.3067810000000  0.3663760000000  0.6242310000000 1.0
C      1  0.6932200000000  0.3663770000000  0.3757710000000 1.0
C      1  0.3067780000000  0.6336210000000  0.3757710000000 1.0
C      1  0.6932200000000  0.6336260000000  0.6242260000000 1.0
C      1  0.4654420000000  0.3287950000000  0.5857930000000 1.0
C      1  0.5345600000000  0.3287950000000  0.4142100000000 1.0
C      1  0.4654390000000  0.6712040000000  0.4142070000000 1.0
C      1  0.5345590000000  0.6712060000000  0.5857900000000 1.0
C      1  0.7342130000000  0.5460930000000  0.6378870000000 1.0
C      1  0.2657870000000  0.5460870000000  0.3621120000000 1.0
C      1  0.7342110000000  0.4539100000000  0.3621100000000 1.0
C      1  0.2657890000000  0.4539090000000  0.6378910000000 1.0
C      1  0.2814300000000  0.5154500000000  0.5546500000000 1.0
C      1  0.7185690000000  0.5154530000000  0.4453500000000 1.0
C      1  0.2814300000000  0.4845460000000  0.4453530000000 1.0
C      1  0.7185700000000  0.4845510000000  0.5546480000000 1.0
C      1  0.4368510000000  0.3066510000000  0.4146760000000 1.0
C      1  0.5631520000000  0.3066540000000  0.5853270000000 1.0
C      1  0.4368500000000  0.6933480000000  0.5853250000000 1.0
C      1  0.5631480000000  0.6933470000000  0.4146710000000 1.0
C      1  0.5417200000000  0.4194820000000  0.4738060000000 1.0
C      1  0.4582810000000  0.4194820000000  0.5261960000000 1.0
C      1  0.5417200000000  0.5805180000000  0.5261940000000 1.0
C      1  0.4582790000000  0.5805170000000  0.4738050000000 1.0
C      1  0.7050080000000  0.5032120000000  0.2787040000000 1.0
C      1  0.2949920000000  0.5032120000000  0.7212960000000 1.0
C      1  0.7050110000000  0.4967910000000  0.7212930000000 1.0
C      1  0.2949890000000  0.4967840000000  0.2787070000000 1.0
C      1  0.3080050000000  0.3257940000000  0.5305240000000 1.0
C      1  0.6919980000000  0.3257960000000  0.4694790000000 1.0
C      1  0.3080020000000  0.6742030000000  0.4694790000000 1.0
C      1  0.6919960000000  0.6742070000000  0.5305180000000 1.0
C      1  0.4021720000000  0.2967330000000  0.5018990000000 1.0
C      1  0.5978310000000  0.2967350000000  0.4981040000000 1.0
C      1  0.4021690000000  0.7032650000000  0.4981020000000 1.0
C      1  0.5978280000000  0.7032670000000  0.5018940000000 1.0
C      1  0.5999150000000  0.3701000000000  0.3419100000000 1.0
C      1  0.4000860000000  0.3701010000000  0.6580920000000 1.0
C      1  0.5999160000000  0.6299020000000  0.6580880000000 1.0
C      1  0.4000830000000  0.6298970000000  0.3419090000000 1.0
C      1  0.3890970000000  0.6575540000000  0.6582660000000 1.0
C      1  0.6109010000000  0.6575540000000  0.3417300000000 1.0
C      1  0.3890970000000  0.3424430000000  0.3417350000000 1.0
C      1  0.6109050000000  0.3424480000000  0.6582670000000 1.0
C      1  0.5995610000000  0.5248600000000  0.6893950000000 1.0
C      1  0.4004380000000  0.5248550000000  0.3106060000000 1.0
C      1  0.5995600000000  0.4751420000000  0.3106050000000 1.0
C      1  0.4004410000000  0.4751430000000  0.6893970000000 1.0
C      1  0.3668860000000  0.4176780000000  0.2931470000000 1.0
C      1  0.6331150000000  0.4176840000000  0.7068530000000 1.0
C      1  0.3668880000000  0.5823190000000  0.7068540000000 1.0
C      1  0.6331110000000  0.5823190000000  0.2931440000000 1.0
C      1  0.6131230000000  0.5200750000000  0.5838400000000 1.0
C      1  0.3868770000000  0.5200710000000  0.4161600000000 1.0
C      1  0.6131220000000  0.4799270000000  0.4161590000000 1.0
C      1  0.3868780000000  0.4799270000000  0.5838420000000 1.0
C      1  0.6493730000000  0.5807980000000  0.4951180000000 1.0
C      1  0.3506260000000  0.5807960000000  0.5048820000000 1.0
C      1  0.6493740000000  0.4192040000000  0.5048810000000 1.0
C      1  0.3506270000000  0.4192020000000  0.4951210000000 1.0
END
