TITL C-986973-6940-719 -7.99032352703851e-07 3375 -359.523659644189 0 0 60 (Th) n - 1
REM
REM in /home/bkarasulu/work/CARBON/AIRSS/Generating-Clusters/REBO/Higher-Symm/Only-C60
REM
REM
REM
REM
REM
REM ./C.cell (a2850807a9bf4ad07a5b6933b78d9264)
REM AIRSS Version 0.9.1 bugfix July 2018 build 013d7b7c2542+ Fri, 06 Jul 2018 19:26:36 +0100
REM compiler GCC version 9.2.1 20190827 (Red Hat 9.2.1-1)
REM options -cpp -mtune=generic -march=x86-64 -g -O0 -fpre-include=/usr/include/finclude/math-vector-fortran.h
REM seed -1952002079 2079665324 1031178864 -755751392 1025052025 -88598823 217874923 -373294007 1472314816 261889901 -877489946 1529944085 110786314 1171267553 1779476906 747529847 666627868 -228120033 -1536072502 -851313031 -1937133414 1067293477 -1592336770 -592926908 -335704359 -1158222562 79021129 -1599122159 -600982304 -1866267314 1419610342 -1305621788 275895428
REM
CELL 1.54180   15.00000   15.00000   15.00000   90.00000   90.00000   90.00000
LATT -1
SFAC C  
C      1  0.2932060000000  0.5440300000000  0.4264310000000 1.0
C      1  0.4264310000000  0.2932060000000  0.5440300000000 1.0
C      1  0.5440290000000  0.4264310000000  0.2932060000000 1.0
C      1  0.7067940000000  0.4559700000000  0.4264310000000 1.0
C      1  0.7067940000000  0.5440300000000  0.5735690000000 1.0
C      1  0.2932060000000  0.4559700000000  0.5735690000000 1.0
C      1  0.5735690000000  0.7067940000000  0.5440300000000 1.0
C      1  0.5735690000000  0.2932060000000  0.4559700000000 1.0
C      1  0.4264310000000  0.7067940000000  0.4559710000000 1.0
C      1  0.4559700000000  0.5735690000000  0.2932070000000 1.0
C      1  0.4559710000000  0.4264310000000  0.7067940000000 1.0
C      1  0.5440300000000  0.5735690000000  0.7067940000000 1.0
C      1  0.2932060000000  0.5440300000000  0.5735690000000 1.0
C      1  0.4264310000000  0.2932060000000  0.4559700000000 1.0
C      1  0.5440300000000  0.4264310000000  0.7067930000000 1.0
C      1  0.7067940000000  0.4559700000000  0.5735690000000 1.0
C      1  0.7067940000000  0.5440300000000  0.4264310000000 1.0
C      1  0.2932060000000  0.4559700000000  0.4264310000000 1.0
C      1  0.5735690000000  0.7067940000000  0.4559700000000 1.0
C      1  0.5735690000000  0.2932060000000  0.5440290000000 1.0
C      1  0.4264310000000  0.7067940000000  0.5440300000000 1.0
C      1  0.4559710000000  0.5735690000000  0.7067940000000 1.0
C      1  0.4559700000000  0.4264310000000  0.2932060000000 1.0
C      1  0.5440290000000  0.5735690000000  0.2932060000000 1.0
C      1  0.6692060000000  0.4133530000000  0.3348810000000 1.0
C      1  0.3348810000000  0.6692060000000  0.4133530000000 1.0
C      1  0.4133530000000  0.3348810000000  0.6692060000000 1.0
C      1  0.3307940000000  0.5866470000000  0.3348810000000 1.0
C      1  0.3307940000000  0.4133530000000  0.6651190000000 1.0
C      1  0.6692060000000  0.5866470000000  0.6651190000000 1.0
C      1  0.6651190000000  0.3307940000000  0.4133530000000 1.0
C      1  0.6651190000000  0.6692060000000  0.5866470000000 1.0
C      1  0.3348810000000  0.3307940000000  0.5866470000000 1.0
C      1  0.5866470000000  0.6651190000000  0.6692060000000 1.0
C      1  0.5866470000000  0.3348810000000  0.3307940000000 1.0
C      1  0.4133530000000  0.6651190000000  0.3307940000000 1.0
C      1  0.6692060000000  0.4133530000000  0.6651190000000 1.0
C      1  0.3348810000000  0.6692060000000  0.5866470000000 1.0
C      1  0.4133530000000  0.3348810000000  0.3307940000000 1.0
C      1  0.3307940000000  0.5866470000000  0.6651190000000 1.0
C      1  0.3307940000000  0.4133530000000  0.3348810000000 1.0
C      1  0.6692060000000  0.5866470000000  0.3348810000000 1.0
C      1  0.6651190000000  0.3307940000000  0.5866470000000 1.0
C      1  0.6651190000000  0.6692060000000  0.4133530000000 1.0
C      1  0.3348810000000  0.3307940000000  0.4133530000000 1.0
C      1  0.5866470000000  0.6651190000000  0.3307940000000 1.0
C      1  0.5866470000000  0.3348810000000  0.6692060000000 1.0
C      1  0.4133530000000  0.6651190000000  0.6692060000000 1.0
C      1  0.6248050000000  0.5000000000000  0.2827210000000 1.0
C      1  0.3751950000000  0.5000000000000  0.7172790000000 1.0
C      1  0.5000000000000  0.2827210000000  0.6248050000000 1.0
C      1  0.2827210000000  0.6248050000000  0.5000000000000 1.0
C      1  0.5000000000000  0.7172790000000  0.6248050000000 1.0
C      1  0.5000000000000  0.2827210000000  0.3751950000000 1.0
C      1  0.5000000000000  0.7172790000000  0.3751950000000 1.0
C      1  0.3751950000000  0.5000000000000  0.2827210000000 1.0
C      1  0.7172790000000  0.3751950000000  0.5000000000000 1.0
C      1  0.7172790000000  0.6248050000000  0.5000000000000 1.0
C      1  0.2827210000000  0.3751950000000  0.5000000000000 1.0
C      1  0.6248050000000  0.5000000000000  0.7172790000000 1.0
END
