TITL C-986976-6631-407 7.31480004974244e-07 3375 -319.33411288135 0 0 60 (C5) n - 1
REM
REM in /home/bkarasulu/work/CARBON/AIRSS/Generating-Clusters/REBO/Higher-Symm/Only-C60
REM
REM
REM
REM
REM
REM ./C.cell (a2850807a9bf4ad07a5b6933b78d9264)
REM AIRSS Version 0.9.1 bugfix July 2018 build 013d7b7c2542+ Fri, 06 Jul 2018 19:26:36 +0100
REM compiler GCC version 9.2.1 20190827 (Red Hat 9.2.1-1)
REM options -cpp -mtune=generic -march=x86-64 -g -O0 -fpre-include=/usr/include/finclude/math-vector-fortran.h
REM seed 1548279055 -1750121524 1214605515 -512621218 -2026562247 1497350673 1394817142 -1917904109 -1914999589 -53279187 -1614356593 -1428334964 -1151581877 383884518 1341797144 -1926118900 -2124335605 -824521826 -2006216852 1462415020 639275047 1403494569 17602651 659488302 864732814 1827075645 1701881655 -1128970882 1659272298 278561652 -1294541818 2013734836 1371165947
REM
CELL 1.54180   15.00000   15.00000   15.00000   90.00000   90.00000   90.00000
LATT -1
SFAC C  
C      1  0.2483390000000  0.3476910000000  0.5056510000000 1.0
C      1  0.4168580000000  0.3476560000000  0.2624250000000 1.0
C      1  0.7002560000000  0.3476340000000  0.3475350000000 1.0
C      1  0.7068860000000  0.3476560000000  0.6433630000000 1.0
C      1  0.4275860000000  0.3476910000000  0.7410840000000 1.0
C      1  0.5661210000000  0.5873010000000  0.5604070000000 1.0
C      1  0.4629820000000  0.5873130000000  0.5815390000000 1.0
C      1  0.4110130000000  0.5873120000000  0.4899780000000 1.0
C      1  0.4820330000000  0.5872990000000  0.4122580000000 1.0
C      1  0.5778950000000  0.5872920000000  0.4557860000000 1.0
C      1  0.5383150000000  0.6967460000000  0.5789390000000 1.0
C      1  0.4367650000000  0.6967550000000  0.5608050000000 1.0
C      1  0.4226300000000  0.6967480000000  0.4586210000000 1.0
C      1  0.5154450000000  0.6967360000000  0.4136010000000 1.0
C      1  0.5869420000000  0.6967340000000  0.4879620000000 1.0
C      1  0.2529100000000  0.4452800000000  0.6684990000000 1.0
C      1  0.2633930000000  0.4452520000000  0.3170810000000 1.0
C      1  0.6008510000000  0.4452110000000  0.2184570000000 1.0
C      1  0.7989290000000  0.4452130000000  0.5089220000000 1.0
C      1  0.5838890000000  0.4452560000000  0.7870630000000 1.0
C      1  0.7083900000000  0.6300560000000  0.5580230000000 1.0
C      1  0.5092130000000  0.6300870000000  0.7161020000000 1.0
C      1  0.2973210000000  0.6300980000000  0.5755220000000 1.0
C      1  0.3655430000000  0.6300730000000  0.3305590000000 1.0
C      1  0.6195980000000  0.6300470000000  0.3197440000000 1.0
C      1  0.4392940000000  0.3558580000000  0.4307870000000 1.0
C      1  0.5470670000000  0.3558470000000  0.4208980000000 1.0
C      1  0.5897750000000  0.3558500000000  0.5203400000000 1.0
C      1  0.5083980000000  0.3558630000000  0.5916870000000 1.0
C      1  0.4153950000000  0.3558680000000  0.5363410000000 1.0
C      1  0.7196500000000  0.6258700000000  0.4743360000000 1.0
C      1  0.5922830000000  0.6258990000000  0.7009510000000 1.0
C      1  0.3374010000000  0.6259210000000  0.6498450000000 1.0
C      1  0.3072430000000  0.6259040000000  0.3916450000000 1.0
C      1  0.5434860000000  0.6258730000000  0.2831750000000 1.0
C      1  0.6652610000000  0.5602550000000  0.3988780000000 1.0
C      1  0.6472410000000  0.5602740000000  0.6259150000000 1.0
C      1  0.4257480000000  0.5603000000000  0.6789360000000 1.0
C      1  0.3068760000000  0.5602970000000  0.4846670000000 1.0
C      1  0.4549040000000  0.5602690000000  0.3115820000000 1.0
C      1  0.7688950000000  0.4036560000000  0.6064480000000 1.0
C      1  0.4818560000000  0.4036980000000  0.7886430000000 1.0
C      1  0.2198780000000  0.4037080000000  0.5719530000000 1.0
C      1  0.3450060000000  0.4036720000000  0.2558370000000 1.0
C      1  0.6843180000000  0.4036400000000  0.2771560000000 1.0
C      1  0.4135720000000  0.3824670000000  0.6436670000000 1.0
C      1  0.3366570000000  0.3824610000000  0.4622150000000 1.0
C      1  0.4854600000000  0.3824370000000  0.3329930000000 1.0
C      1  0.6543410000000  0.3824280000000  0.4345810000000 1.0
C      1  0.6099120000000  0.3824460000000  0.6265880000000 1.0
C      1  0.5214080000000  0.4705540000000  0.2954990000000 1.0
C      1  0.7011080000000  0.4705490000000  0.4571700000000 1.0
C      1  0.6028790000000  0.4705750000000  0.6780340000000 1.0
C      1  0.3624710000000  0.4705970000000  0.6528640000000 1.0
C      1  0.3121190000000  0.4705840000000  0.4164440000000 1.0
C      1  0.5026660000000  0.4942650000000  0.7257820000000 1.0
C      1  0.2860920000000  0.4942750000000  0.5723070000000 1.0
C      1  0.3651310000000  0.4942480000000  0.3189060000000 1.0
C      1  0.6305530000000  0.4942220000000  0.3157720000000 1.0
C      1  0.7155550000000  0.4942320000000  0.5672350000000 1.0
END
