TITL C-986976-6631-49 0.000709460960099249 3375 -358.355126054924 0 0 60 (C1) n - 1
REM
REM in /home/bkarasulu/work/CARBON/AIRSS/Generating-Clusters/REBO/Higher-Symm/Only-C60
REM
REM
REM
REM
REM
REM ./C.cell (a2850807a9bf4ad07a5b6933b78d9264)
REM AIRSS Version 0.9.1 bugfix July 2018 build 013d7b7c2542+ Fri, 06 Jul 2018 19:26:36 +0100
REM compiler GCC version 9.2.1 20190827 (Red Hat 9.2.1-1)
REM options -cpp -mtune=generic -march=x86-64 -g -O0 -fpre-include=/usr/include/finclude/math-vector-fortran.h
REM seed -1413567245 -870484632 211227434 -1451344375 -796709877 1460980526 1642148407 -700003919 -2080303300 -384479768 980317474 -953296867 -2126692832 1420485187 703332076 -1705271382 379479142 -1832751370 -710005492 -1104196150 -1102116879 1757005282 220437683 -753530874 2076713633 1669153599 -136518044 -466678704 -1044417436 1297143974 -2104097232 617031285 1755535694
REM
CELL 1.54180   15.00000   15.00000   15.00000   90.00000   90.00000   90.00000
LATT -1
SFAC C  
C      1  0.4772350000000  0.5381670000000  0.2010090000000 1.0
C      1  0.4825410000000  0.7566630000000  0.3438610000000 1.0
C      1  0.4847380000000  0.7814750000000  0.6056160000000 1.0
C      1  0.4808590000000  0.5959830000000  0.7868250000000 1.0
C      1  0.4808970000000  0.3352290000000  0.7521920000000 1.0
C      1  0.4835750000000  0.2018560000000  0.5332270000000 1.0
C      1  0.4811340000000  0.2853670000000  0.2890410000000 1.0
C      1  0.3899190000000  0.4652190000000  0.3232370000000 1.0
C      1  0.3932830000000  0.6159290000000  0.3613620000000 1.0
C      1  0.3987000000000  0.6780820000000  0.5050890000000 1.0
C      1  0.3983110000000  0.6056190000000  0.6417980000000 1.0
C      1  0.3942810000000  0.4537820000000  0.6722700000000 1.0
C      1  0.3922240000000  0.3353550000000  0.5712380000000 1.0
C      1  0.3905190000000  0.3410400000000  0.4161940000000 1.0
C      1  0.4846680000000  0.4862230000000  0.6289740000000 1.0
C      1  0.4827630000000  0.3890000000000  0.5701680000000 1.0
C      1  0.4811790000000  0.3749560000000  0.4573830000000 1.0
C      1  0.4794700000000  0.4549990000000  0.3768250000000 1.0
C      1  0.4819080000000  0.5676480000000  0.3892790000000 1.0
C      1  0.4889030000000  0.6279650000000  0.4821160000000 1.0
C      1  0.4898180000000  0.5927300000000  0.5897690000000 1.0
C      1  0.3231010000000  0.4719570000000  0.6073280000000 1.0
C      1  0.3211080000000  0.3978710000000  0.5449630000000 1.0
C      1  0.3197140000000  0.4013860000000  0.4481280000000 1.0
C      1  0.3192750000000  0.4793540000000  0.3902000000000 1.0
C      1  0.3217170000000  0.5736050000000  0.4140710000000 1.0
C      1  0.3257980000000  0.6121890000000  0.5028550000000 1.0
C      1  0.3260670000000  0.5667520000000  0.5881170000000 1.0
C      1  0.6484540000000  0.4969850000000  0.6270210000000 1.0
C      1  0.6467620000000  0.4117050000000  0.5780180000000 1.0
C      1  0.6462610000000  0.3909230000000  0.4795110000000 1.0
C      1  0.6439670000000  0.4499370000000  0.3981250000000 1.0
C      1  0.6448530000000  0.5476840000000  0.3880310000000 1.0
C      1  0.6587790000000  0.6218060000000  0.4704050000000 1.0
C      1  0.6608360000000  0.5976130000000  0.5819650000000 1.0
C      1  0.5552880000000  0.5468140000000  0.7659620000000 1.0
C      1  0.5568720000000  0.3232910000000  0.7021670000000 1.0
C      1  0.5603420000000  0.2355830000000  0.4958300000000 1.0
C      1  0.5571500000000  0.3366290000000  0.2917170000000 1.0
C      1  0.5531040000000  0.5705990000000  0.2409630000000 1.0
C      1  0.5574590000000  0.7471210000000  0.3959040000000 1.0
C      1  0.5590310000000  0.7343260000000  0.6313800000000 1.0
C      1  0.4128250000000  0.7568160000000  0.5544990000000 1.0
C      1  0.4096700000000  0.6187560000000  0.7340160000000 1.0
C      1  0.4075760000000  0.3884040000000  0.7384420000000 1.0
C      1  0.4067880000000  0.2427870000000  0.5623640000000 1.0
C      1  0.4044520000000  0.2887040000000  0.3392990000000 1.0
C      1  0.4037830000000  0.4956260000000  0.2354240000000 1.0
C      1  0.4090880000000  0.7034310000000  0.3305160000000 1.0
C      1  0.5757360000000  0.6464430000000  0.6159530000000 1.0
C      1  0.5716800000000  0.5015160000000  0.6853120000000 1.0
C      1  0.5721620000000  0.3591020000000  0.6164230000000 1.0
C      1  0.5732040000000  0.3244730000000  0.4672520000000 1.0
C      1  0.5704000000000  0.4150020000000  0.3420270000000 1.0
C      1  0.5699050000000  0.5751740000000  0.3334640000000 1.0
C      1  0.5747780000000  0.6806610000000  0.4553910000000 1.0
C      1  0.4227520000000  0.4892320000000  0.4933880000000 1.0
C      1  0.5951400000000  0.5108320000000  0.5058800000000 1.0
C      1  0.5096620000000  0.4977670000000  0.4989010000000 1.0
C      1  0.6968480000000  0.5199840000000  0.5061860000000 1.0
END
