TITL C-986977-940-90 -0.0140901696732325 3375 -347.891366009826 0 0 60 (C1) n - 1
REM
REM in /home/bkarasulu/work/CARBON/AIRSS/Generating-Clusters/REBO/Higher-Symm/Only-C60
REM
REM
REM
REM
REM
REM ./C.cell (a2850807a9bf4ad07a5b6933b78d9264)
REM AIRSS Version 0.9.1 bugfix July 2018 build 013d7b7c2542+ Fri, 06 Jul 2018 19:26:36 +0100
REM compiler GCC version 9.2.1 20190827 (Red Hat 9.2.1-1)
REM options -cpp -mtune=generic -march=x86-64 -g -O0 -fpre-include=/usr/include/finclude/math-vector-fortran.h
REM seed -2058975987 435846961 573236063 -1345143587 1812696353 -1568030483 -1013270522 356269236 -14625967 -1829866108 -2029839477 -1816914975 1216685905 1515207275 1911523092 -283019868 -812514166 -1641078326 1877512926 -1324108565 1825858640 412590324 1954854698 882589494 376902281 -5113631 -658807173 6623778 1420217458 -1403413061 520990857 1823666798 -1142776786
REM
CELL 1.54180   15.00000   15.00000   15.00000   90.00000   90.00000   90.00000
LATT -1
SFAC C  
C      1  0.6174230000000  0.7131800000000  0.4596930000000 1.0
C      1  0.6181130000000  0.4282030000000  0.7048890000000 1.0
C      1  0.6178560000000  0.3583860000000  0.3352810000000 1.0
C      1  0.3348660000000  0.5059180000000  0.4390280000000 1.0
C      1  0.3340790000000  0.5472090000000  0.5400750000000 1.0
C      1  0.3336610000000  0.4392910000000  0.5243080000000 1.0
C      1  0.5025760000000  0.6111560000000  0.2525910000000 1.0
C      1  0.5016810000000  0.6589170000000  0.7193080000000 1.0
C      1  0.5025360000000  0.2301280000000  0.5281040000000 1.0
C      1  0.4353020000000  0.4147020000000  0.5422220000000 1.0
C      1  0.4362250000000  0.5041350000000  0.4079870000000 1.0
C      1  0.4352190000000  0.5775210000000  0.5521220000000 1.0
C      1  0.5263690000000  0.7397080000000  0.4578920000000 1.0
C      1  0.5272710000000  0.4160720000000  0.7292480000000 1.0
C      1  0.5270290000000  0.3431370000000  0.3126380000000 1.0
C      1  0.6458340000000  0.6775960000000  0.5463190000000 1.0
C      1  0.6464090000000  0.3711050000000  0.6305730000000 1.0
C      1  0.6460220000000  0.4513100000000  0.3228760000000 1.0
C      1  0.3122040000000  0.3440830000000  0.3925850000000 1.0
C      1  0.3133710000000  0.6758780000000  0.4144440000000 1.0
C      1  0.3130790000000  0.4849400000000  0.6909730000000 1.0
C      1  0.3081010000000  0.6215860000000  0.3427730000000 1.0
C      1  0.3071080000000  0.5729720000000  0.6756910000000 1.0
C      1  0.3073360000000  0.3099600000000  0.4752710000000 1.0
C      1  0.7042260000000  0.4778980000000  0.3944870000000 1.0
C      1  0.7043150000000  0.6025110000000  0.5335160000000 1.0
C      1  0.7045070000000  0.4199500000000  0.5717900000000 1.0
C      1  0.4994480000000  0.5237420000000  0.6078890000000 1.0
C      1  0.4992640000000  0.3944620000000  0.4669730000000 1.0
C      1  0.4994140000000  0.5803770000000  0.4255310000000 1.0
C      1  0.4148750000000  0.7063160000000  0.5761080000000 1.0
C      1  0.4160870000000  0.3291780000000  0.6416210000000 1.0
C      1  0.4147290000000  0.4652900000000  0.2830870000000 1.0
C      1  0.6420640000000  0.3277730000000  0.4237430000000 1.0
C      1  0.6417670000000  0.6519480000000  0.3889520000000 1.0
C      1  0.6420600000000  0.5202130000000  0.6872250000000 1.0
C      1  0.5632480000000  0.6086390000000  0.3436770000000 1.0
C      1  0.5633410000000  0.5810310000000  0.6727340000000 1.0
C      1  0.5635950000000  0.3097720000000  0.4838650000000 1.0
C      1  0.7018640000000  0.4017260000000  0.4694670000000 1.0
C      1  0.7018070000000  0.5755600000000  0.4300900000000 1.0
C      1  0.7018830000000  0.5229570000000  0.6003420000000 1.0
C      1  0.5830360000000  0.5120400000000  0.2873380000000 1.0
C      1  0.5827690000000  0.6778080000000  0.6165750000000 1.0
C      1  0.5836140000000  0.3098350000000  0.5956890000000 1.0
C      1  0.4626850000000  0.4313640000000  0.6486380000000 1.0
C      1  0.4623100000000  0.4050070000000  0.3657840000000 1.0
C      1  0.4620420000000  0.6618090000000  0.4845530000000 1.0
C      1  0.3272140000000  0.6406970000000  0.5977830000000 1.0
C      1  0.3287080000000  0.3409970000000  0.5733140000000 1.0
C      1  0.3289520000000  0.5205910000000  0.3307950000000 1.0
C      1  0.4876250000000  0.7213510000000  0.6422510000000 1.0
C      1  0.4891580000000  0.2649770000000  0.6210130000000 1.0
C      1  0.4880820000000  0.5134940000000  0.2364490000000 1.0
C      1  0.3333700000000  0.6937800000000  0.4979300000000 1.0
C      1  0.3339170000000  0.4031050000000  0.6677460000000 1.0
C      1  0.3324180000000  0.4072100000000  0.3356560000000 1.0
C      1  0.5953730000000  0.5472090000000  0.4575530000000 1.0
C      1  0.5952920000000  0.5130790000000  0.5625570000000 1.0
C      1  0.5952670000000  0.4392120000000  0.4803850000000 1.0
END
