TITL C-986975-4297-50 5.50157544801975e-07 3375 -324.85201067303 0 0 60 (C2) n - 1
REM
REM in /home/bkarasulu/work/CARBON/AIRSS/Generating-Clusters/REBO/Higher-Symm/Only-C60
REM
REM
REM
REM
REM
REM ./C.cell (a2850807a9bf4ad07a5b6933b78d9264)
REM AIRSS Version 0.9.1 bugfix July 2018 build 013d7b7c2542+ Fri, 06 Jul 2018 19:26:36 +0100
REM compiler GCC version 9.2.1 20190827 (Red Hat 9.2.1-1)
REM options -cpp -mtune=generic -march=x86-64 -g -O0 -fpre-include=/usr/include/finclude/math-vector-fortran.h
REM seed -731748338 -1725552162 1793386756 1202385825 1825933935 -1186487889 -862648734 -1352212046 -1093779407 241624076 -1935028567 1906927114 2116946020 2003966045 -62125496 239416348 1921606923 -666881348 162556092 -813129883 -1172701464 -168655935 734903506 1663435070 53474145 -1783431299 -926321950 573916783 243762271 -1083346719 -937956500 1287208690 -1551930961
REM
CELL 1.54180   15.00000   15.00000   15.00000   90.00000   90.00000   90.00000
LATT -1
SFAC C  
C      1  0.3657260000000  0.4481380000000  0.3729260000000 1.0
C      1  0.3710050000000  0.4471960000000  0.6328180000000 1.0
C      1  0.6342740000000  0.4481380000000  0.6270740000000 1.0
C      1  0.6289950000000  0.4471960000000  0.3671820000000 1.0
C      1  0.4766600000000  0.5082420000000  0.5620100000000 1.0
C      1  0.5719210000000  0.5096390000000  0.5267650000000 1.0
C      1  0.5233400000000  0.5082420000000  0.4379900000000 1.0
C      1  0.4280790000000  0.5096390000000  0.4732350000000 1.0
C      1  0.5531970000000  0.6344900000000  0.6248100000000 1.0
C      1  0.6314150000000  0.6329730000000  0.4444830000000 1.0
C      1  0.4468030000000  0.6344900000000  0.3751900000000 1.0
C      1  0.3685850000000  0.6329730000000  0.5555170000000 1.0
C      1  0.3363150000000  0.5291740000000  0.5661160000000 1.0
C      1  0.5646450000000  0.5304400000000  0.6580070000000 1.0
C      1  0.6636850000000  0.5291740000000  0.4338840000000 1.0
C      1  0.4353550000000  0.5304400000000  0.3419930000000 1.0
C      1  0.4672370000000  0.4715050000000  0.6625990000000 1.0
C      1  0.6720940000000  0.4716560000000  0.5318100000000 1.0
C      1  0.5327630000000  0.4715050000000  0.3374010000000 1.0
C      1  0.3279060000000  0.4716560000000  0.4681900000000 1.0
C      1  0.4268470000000  0.6859720000000  0.2771050000000 1.0
C      1  0.2688010000000  0.6823810000000  0.5726680000000 1.0
C      1  0.5731530000000  0.6859720000000  0.7228950000000 1.0
C      1  0.7311990000000  0.6823810000000  0.4273320000000 1.0
C      1  0.7298630000000  0.6565520000000  0.5801520000000 1.0
C      1  0.5786120000000  0.6560980000000  0.2708400000000 1.0
C      1  0.2701370000000  0.6565520000000  0.4198480000000 1.0
C      1  0.4213880000000  0.6560980000000  0.7291600000000 1.0
C      1  0.5362520000000  0.2960100000000  0.7002720000000 1.0
C      1  0.7016200000000  0.2940060000000  0.4634880000000 1.0
C      1  0.4637480000000  0.2960100000000  0.2997280000000 1.0
C      1  0.2983800000000  0.2940060000000  0.5365120000000 1.0
C      1  0.4399890000000  0.6281820000000  0.6426730000000 1.0
C      1  0.6440130000000  0.6289540000000  0.5584110000000 1.0
C      1  0.5600110000000  0.6281820000000  0.3573270000000 1.0
C      1  0.3559870000000  0.6289540000000  0.4415890000000 1.0
C      1  0.5452390000000  0.4042220000000  0.6853250000000 1.0
C      1  0.6900590000000  0.4026410000000  0.4540830000000 1.0
C      1  0.4547610000000  0.4042220000000  0.3146750000000 1.0
C      1  0.3099410000000  0.4026410000000  0.5459170000000 1.0
C      1  0.6265100000000  0.2379140000000  0.5040300000000 1.0
C      1  0.5041840000000  0.2387340000000  0.3739760000000 1.0
C      1  0.3734900000000  0.2379140000000  0.4959700000000 1.0
C      1  0.4958160000000  0.2387340000000  0.6260240000000 1.0
C      1  0.4273980000000  0.7245290000000  0.5303700000000 1.0
C      1  0.5255390000000  0.7220440000000  0.5611430000000 1.0
C      1  0.5726020000000  0.7245290000000  0.4696300000000 1.0
C      1  0.4744610000000  0.7220440000000  0.4388570000000 1.0
C      1  0.4088980000000  0.2529430000000  0.4118280000000 1.0
C      1  0.4113740000000  0.2529170000000  0.5910460000000 1.0
C      1  0.5911020000000  0.2529430000000  0.5881720000000 1.0
C      1  0.5886260000000  0.2529170000000  0.4089540000000 1.0
C      1  0.5045850000000  0.6907530000000  0.2259220000000 1.0
C      1  0.2213260000000  0.6886250000000  0.4926360000000 1.0
C      1  0.4954150000000  0.6907530000000  0.7740780000000 1.0
C      1  0.7786740000000  0.6886250000000  0.5073640000000 1.0
C      1  0.6298310000000  0.3369730000000  0.6487030000000 1.0
C      1  0.6503090000000  0.3360980000000  0.3702510000000 1.0
C      1  0.3701690000000  0.3369730000000  0.3512970000000 1.0
C      1  0.3496910000000  0.3360980000000  0.6297490000000 1.0
END
