TITL C-986979-5873-307 -9.7595921138142e-07 3375 -334.379824714404 0 0 60 (Ci) n - 1
REM
REM in /home/bkarasulu/work/CARBON/AIRSS/Generating-Clusters/REBO/Higher-Symm/Only-C60
REM
REM
REM
REM
REM
REM ./C.cell (a2850807a9bf4ad07a5b6933b78d9264)
REM AIRSS Version 0.9.1 bugfix July 2018 build 013d7b7c2542+ Fri, 06 Jul 2018 19:26:36 +0100
REM compiler GCC version 9.2.1 20190827 (Red Hat 9.2.1-1)
REM options -cpp -mtune=generic -march=x86-64 -g -O0 -fpre-include=/usr/include/finclude/math-vector-fortran.h
REM seed -1703511550 1262271840 -1298702017 -765872617 93717369 -1548890259 284748313 -1467106649 -1979453880 -1996119439 440379922 -422333846 -776288210 -2002754992 473021272 1597137781 1725127484 1182016417 -857871592 -460278731 511666732 371914678 789840640 2041570386 -1830661893 3157997 -1876126361 -2111384222 941682258 -428017377 664406258 -1292219996 324140902
REM
CELL 1.54180   15.00000   15.00000   15.00000   90.00000   90.00000   90.00000
LATT -1
SFAC C  
C      1  0.2799870000000  0.5063330000000  0.4077470000000 1.0
C      1  0.7200130000000  0.4936670000000  0.5922530000000 1.0
C      1  0.4094420000000  0.7276120000000  0.3362090000000 1.0
C      1  0.5905580000000  0.2723880000000  0.6637910000000 1.0
C      1  0.6174940000000  0.2647810000000  0.5636320000000 1.0
C      1  0.3825060000000  0.7352190000000  0.4363680000000 1.0
C      1  0.4526200000000  0.3922130000000  0.6628390000000 1.0
C      1  0.5473800000000  0.6077870000000  0.3371610000000 1.0
C      1  0.4309730000000  0.6559080000000  0.6621150000000 1.0
C      1  0.5690270000000  0.3440920000000  0.3378850000000 1.0
C      1  0.4642120000000  0.3630350000000  0.3627690000000 1.0
C      1  0.5357880000000  0.6369650000000  0.6372310000000 1.0
C      1  0.6309300000000  0.5995010000000  0.4135990000000 1.0
C      1  0.3690700000000  0.4004990000000  0.5864010000000 1.0
C      1  0.6700200000000  0.3856740000000  0.4575540000000 1.0
C      1  0.3299800000000  0.6143260000000  0.5424460000000 1.0
C      1  0.5542130000000  0.4920560000000  0.4028250000000 1.0
C      1  0.4457870000000  0.5079440000000  0.5971750000000 1.0
C      1  0.4208850000000  0.2648470000000  0.4997030000000 1.0
C      1  0.5791150000000  0.7351530000000  0.5002970000000 1.0
C      1  0.3642000000000  0.6450370000000  0.2967210000000 1.0
C      1  0.6358000000000  0.3549630000000  0.7032790000000 1.0
C      1  0.3794330000000  0.5906800000000  0.6199110000000 1.0
C      1  0.6205670000000  0.4093200000000  0.3800890000000 1.0
C      1  0.7009920000000  0.3921430000000  0.6244440000000 1.0
C      1  0.2990080000000  0.6078570000000  0.3755560000000 1.0
C      1  0.4374790000000  0.4791330000000  0.2710570000000 1.0
C      1  0.5625210000000  0.5208670000000  0.7289430000000 1.0
C      1  0.6281500000000  0.5292030000000  0.3236140000000 1.0
C      1  0.3718500000000  0.4707970000000  0.6763860000000 1.0
C      1  0.6428240000000  0.5798510000000  0.6879450000000 1.0
C      1  0.3571760000000  0.4201490000000  0.3120550000000 1.0
C      1  0.5630530000000  0.3825040000000  0.5367340000000 1.0
C      1  0.4369470000000  0.6174960000000  0.4632660000000 1.0
C      1  0.6408580000000  0.4606340000000  0.5282250000000 1.0
C      1  0.3591420000000  0.5393660000000  0.4717750000000 1.0
C      1  0.5289240000000  0.3464140000000  0.6248260000000 1.0
C      1  0.4710760000000  0.6535860000000  0.3751740000000 1.0
C      1  0.6102140000000  0.4554740000000  0.6568070000000 1.0
C      1  0.3897860000000  0.5445260000000  0.3431930000000 1.0
C      1  0.4727700000000  0.4842880000000  0.7271570000000 1.0
C      1  0.5272300000000  0.5157120000000  0.2728430000000 1.0
C      1  0.4665490000000  0.7206560000000  0.5012350000000 1.0
C      1  0.5334510000000  0.2793440000000  0.4987650000000 1.0
C      1  0.7700230000000  0.5615100000000  0.6087780000000 1.0
C      1  0.2299770000000  0.4384900000000  0.3912220000000 1.0
C      1  0.3608850000000  0.3401950000000  0.4991780000000 1.0
C      1  0.6391150000000  0.6598050000000  0.5008220000000 1.0
C      1  0.6401990000000  0.6240720000000  0.5906530000000 1.0
C      1  0.3598010000000  0.3759280000000  0.4093470000000 1.0
C      1  0.4517780000000  0.7366900000000  0.6098780000000 1.0
C      1  0.5482220000000  0.2633100000000  0.3901220000000 1.0
C      1  0.3143910000000  0.6691680000000  0.4580840000000 1.0
C      1  0.6856090000000  0.3308320000000  0.5419160000000 1.0
C      1  0.5832240000000  0.5393000000000  0.4955060000000 1.0
C      1  0.4167760000000  0.4607000000000  0.5044940000000 1.0
C      1  0.5470640000000  0.5302950000000  0.5976630000000 1.0
C      1  0.4529360000000  0.4697050000000  0.4023370000000 1.0
C      1  0.5546650000000  0.7428170000000  0.5979790000000 1.0
C      1  0.4453350000000  0.2571830000000  0.4020210000000 1.0
END
