TITL C-986979-5873-866 -0.0196286219852492 3375 -347.4359148701 0 0 60 (C1) n - 1
REM
REM in /home/bkarasulu/work/CARBON/AIRSS/Generating-Clusters/REBO/Higher-Symm/Only-C60
REM
REM
REM
REM
REM
REM ./C.cell (a2850807a9bf4ad07a5b6933b78d9264)
REM AIRSS Version 0.9.1 bugfix July 2018 build 013d7b7c2542+ Fri, 06 Jul 2018 19:26:36 +0100
REM compiler GCC version 9.2.1 20190827 (Red Hat 9.2.1-1)
REM options -cpp -mtune=generic -march=x86-64 -g -O0 -fpre-include=/usr/include/finclude/math-vector-fortran.h
REM seed -1483840866 -986649538 976001903 1934050389 1494259829 545025207 -1488294103 -249302828 1763522932 1087557420 -66152693 807867500 -1704141386 -2104240959 458553464 -602080488 1734101303 1908909933 1928658315 565656812 887678501 -1061568463 -980277522 632261920 -1329085725 1898098908 -1027778005 198571754 1431865047 2017325767 -1206657649 -234646969 -309772144
REM
CELL 1.54180   15.00000   15.00000   15.00000   90.00000   90.00000   90.00000
LATT -1
SFAC C  
C      1  0.5923670000000  0.4719960000000  0.4510940000000 1.0
C      1  0.5014110000000  0.4403160000000  0.5955090000000 1.0
C      1  0.4187870000000  0.4552600000000  0.4462230000000 1.0
C      1  0.5923100000000  0.4665790000000  0.5490650000000 1.0
C      1  0.5051780000000  0.4525930000000  0.3980770000000 1.0
C      1  0.4136960000000  0.4363470000000  0.5482930000000 1.0
C      1  0.4921880000000  0.4845760000000  0.2993220000000 1.0
C      1  0.6917390000000  0.4817520000000  0.5834650000000 1.0
C      1  0.3381410000000  0.4630840000000  0.6178730000000 1.0
C      1  0.4902130000000  0.4738990000000  0.6940210000000 1.0
C      1  0.6891100000000  0.4871220000000  0.4119950000000 1.0
C      1  0.3400690000000  0.4819850000000  0.3810090000000 1.0
C      1  0.3518070000000  0.8128480000000  0.4399520000000 1.0
C      1  0.6182860000000  0.8198280000000  0.4098500000000 1.0
C      1  0.5255620000000  0.8023510000000  0.6215730000000 1.0
C      1  0.3557000000000  0.7959480000000  0.5297500000000 1.0
C      1  0.6115030000000  0.8146340000000  0.5938920000000 1.0
C      1  0.5337950000000  0.8116900000000  0.3767290000000 1.0
C      1  0.4909610000000  0.7185480000000  0.3918180000000 1.0
C      1  0.5966860000000  0.7162820000000  0.5485520000000 1.0
C      1  0.4006880000000  0.7052200000000  0.5543870000000 1.0
C      1  0.4869340000000  0.7084740000000  0.6003290000000 1.0
C      1  0.5985790000000  0.7195590000000  0.4484420000000 1.0
C      1  0.4029250000000  0.7169650000000  0.4333850000000 1.0
C      1  0.6163690000000  0.3749900000000  0.6059990000000 1.0
C      1  0.3460060000000  0.3456020000000  0.5564730000000 1.0
C      1  0.5254110000000  0.3568240000000  0.3475250000000 1.0
C      1  0.6147100000000  0.3774210000000  0.4023020000000 1.0
C      1  0.3501350000000  0.3701630000000  0.4521720000000 1.0
C      1  0.5248710000000  0.3493100000000  0.6537600000000 1.0
C      1  0.7353480000000  0.4033120000000  0.5440380000000 1.0
C      1  0.3468150000000  0.3971430000000  0.6879390000000 1.0
C      1  0.4331710000000  0.4203740000000  0.2600690000000 1.0
C      1  0.7377170000000  0.4109500000000  0.4426430000000 1.0
C      1  0.3491610000000  0.4082810000000  0.3170440000000 1.0
C      1  0.4350060000000  0.4092870000000  0.7370930000000 1.0
C      1  0.3519370000000  0.3045910000000  0.3628360000000 1.0
C      1  0.6819980000000  0.3132800000000  0.4616670000000 1.0
C      1  0.4381730000000  0.3012640000000  0.7013230000000 1.0
C      1  0.3378700000000  0.2921320000000  0.6530920000000 1.0
C      1  0.6925440000000  0.3034840000000  0.5711370000000 1.0
C      1  0.4395600000000  0.3129880000000  0.2964220000000 1.0
C      1  0.5817230000000  0.2785260000000  0.5562040000000 1.0
C      1  0.3984920000000  0.2463520000000  0.5676220000000 1.0
C      1  0.4758190000000  0.2678600000000  0.3958840000000 1.0
C      1  0.5718780000000  0.2826250000000  0.4476100000000 1.0
C      1  0.3924940000000  0.2647440000000  0.4619120000000 1.0
C      1  0.4931090000000  0.2504980000000  0.6133310000000 1.0
C      1  0.3136420000000  0.5702590000000  0.3961340000000 1.0
C      1  0.6990410000000  0.5747230000000  0.3813260000000 1.0
C      1  0.5140570000000  0.5644620000000  0.6998560000000 1.0
C      1  0.3100870000000  0.5510920000000  0.6064100000000 1.0
C      1  0.7014930000000  0.5709910000000  0.6105120000000 1.0
C      1  0.5154170000000  0.5748790000000  0.2907120000000 1.0
C      1  0.6356560000000  0.6418680000000  0.3858540000000 1.0
C      1  0.5431140000000  0.6337830000000  0.6437620000000 1.0
C      1  0.3427150000000  0.6363300000000  0.4561890000000 1.0
C      1  0.6352700000000  0.6358790000000  0.6069480000000 1.0
C      1  0.5448080000000  0.6435890000000  0.3471280000000 1.0
C      1  0.3357480000000  0.6222870000000  0.5544720000000 1.0
END
