TITL C-986979-5873-383 -4.80126458083745e-06 3375 -326.910186073147 0 0 60 (C1) n - 1
REM
REM in /home/bkarasulu/work/CARBON/AIRSS/Generating-Clusters/REBO/Higher-Symm/Only-C60
REM
REM
REM
REM
REM
REM ./C.cell (a2850807a9bf4ad07a5b6933b78d9264)
REM AIRSS Version 0.9.1 bugfix July 2018 build 013d7b7c2542+ Fri, 06 Jul 2018 19:26:36 +0100
REM compiler GCC version 9.2.1 20190827 (Red Hat 9.2.1-1)
REM options -cpp -mtune=generic -march=x86-64 -g -O0 -fpre-include=/usr/include/finclude/math-vector-fortran.h
REM seed 694438929 2110448693 -2126493094 237666562 1458241345 -2002486574 -1001786015 -1820118181 -407854173 1584736489 -1790366124 -2081470566 -233816482 -671009403 1972942936 429160308 1146391323 1164003648 -1174495412 -1176571219 -895918418 -586355431 -391781447 -2131937934 -1936062150 -1265718975 -1251793297 -407288183 1417200494 -275001081 1043649902 -1038232878 265238577
REM
CELL 1.54180   15.00000   15.00000   15.00000   90.00000   90.00000   90.00000
LATT -1
SFAC C  
C      1  0.4067680000000  0.5529340000000  0.5102940000000 1.0
C      1  0.4174890000000  0.4613380000000  0.5096570000000 1.0
C      1  0.5825180000000  0.5353590000000  0.5015890000000 1.0
C      1  0.5954880000000  0.4467970000000  0.4830530000000 1.0
C      1  0.7383920000000  0.5448090000000  0.4525140000000 1.0
C      1  0.7398990000000  0.4804630000000  0.5464060000000 1.0
C      1  0.2646410000000  0.5054910000000  0.4527170000000 1.0
C      1  0.2632450000000  0.4636830000000  0.5583290000000 1.0
C      1  0.3094170000000  0.5764290000000  0.5111650000000 1.0
C      1  0.3249210000000  0.3978850000000  0.4986480000000 1.0
C      1  0.6726280000000  0.5896190000000  0.5169830000000 1.0
C      1  0.6925240000000  0.4236500000000  0.4762240000000 1.0
C      1  0.6478280000000  0.4992430000000  0.2736850000000 1.0
C      1  0.6400080000000  0.5002230000000  0.7168110000000 1.0
C      1  0.3541630000000  0.4835860000000  0.2956300000000 1.0
C      1  0.3501710000000  0.5290240000000  0.7256920000000 1.0
C      1  0.5492900000000  0.6052660000000  0.5633510000000 1.0
C      1  0.5423720000000  0.3770010000000  0.4465970000000 1.0
C      1  0.4518630000000  0.6231180000000  0.5623620000000 1.0
C      1  0.4545320000000  0.3738560000000  0.4844390000000 1.0
C      1  0.5617270000000  0.6197790000000  0.3599900000000 1.0
C      1  0.5523150000000  0.3791290000000  0.6287270000000 1.0
C      1  0.4547190000000  0.5916130000000  0.3657880000000 1.0
C      1  0.4467590000000  0.4057530000000  0.6422220000000 1.0
C      1  0.6295480000000  0.2699730000000  0.5210100000000 1.0
C      1  0.6391680000000  0.7163390000000  0.4771000000000 1.0
C      1  0.3557030000000  0.3034510000000  0.5394650000000 1.0
C      1  0.3742340000000  0.7156660000000  0.4489810000000 1.0
C      1  0.3293210000000  0.5337850000000  0.6160480000000 1.0
C      1  0.3460060000000  0.4477360000000  0.3986170000000 1.0
C      1  0.6578180000000  0.5259080000000  0.6102620000000 1.0
C      1  0.6728340000000  0.4845990000000  0.3822880000000 1.0
C      1  0.4523840000000  0.4874980000000  0.3839100000000 1.0
C      1  0.4405070000000  0.5098440000000  0.6315620000000 1.0
C      1  0.5625760000000  0.5140330000000  0.3725970000000 1.0
C      1  0.5513190000000  0.4848420000000  0.6204700000000 1.0
C      1  0.5387420000000  0.6691410000000  0.6525460000000 1.0
C      1  0.5441920000000  0.3379430000000  0.3436160000000 1.0
C      1  0.4278350000000  0.6931230000000  0.6484100000000 1.0
C      1  0.4336080000000  0.3124450000000  0.3441230000000 1.0
C      1  0.6543040000000  0.3438240000000  0.6032720000000 1.0
C      1  0.6642010000000  0.6518080000000  0.3871450000000 1.0
C      1  0.3435860000000  0.3649290000000  0.6350220000000 1.0
C      1  0.3521700000000  0.6405040000000  0.3671490000000 1.0
C      1  0.4391930000000  0.5960840000000  0.7028260000000 1.0
C      1  0.4432190000000  0.4127680000000  0.3001730000000 1.0
C      1  0.5487990000000  0.5661240000000  0.6990990000000 1.0
C      1  0.5544500000000  0.4362400000000  0.2912450000000 1.0
C      1  0.6711510000000  0.4124790000000  0.6787110000000 1.0
C      1  0.6792610000000  0.5915640000000  0.3039030000000 1.0
C      1  0.3294400000000  0.4338810000000  0.7039870000000 1.0
C      1  0.3347070000000  0.5732940000000  0.2932440000000 1.0
C      1  0.4636020000000  0.6992540000000  0.4003780000000 1.0
C      1  0.4494520000000  0.3020620000000  0.5962270000000 1.0
C      1  0.5587410000000  0.7233510000000  0.4096450000000 1.0
C      1  0.5455920000000  0.2753010000000  0.5828980000000 1.0
C      1  0.6088700000000  0.6956010000000  0.5659720000000 1.0
C      1  0.6033790000000  0.2892480000000  0.4282200000000 1.0
C      1  0.3889950000000  0.7118550000000  0.5432400000000 1.0
C      1  0.3974150000000  0.3074550000000  0.4337630000000 1.0
END
