TITL C-986973-6940-712 0.013154350155078 3375 -328.193886154173 0 0 60 (C2) n - 1
REM
REM in /home/bkarasulu/work/CARBON/AIRSS/Generating-Clusters/REBO/Higher-Symm/Only-C60
REM
REM
REM
REM
REM
REM ./C.cell (a2850807a9bf4ad07a5b6933b78d9264)
REM AIRSS Version 0.9.1 bugfix July 2018 build 013d7b7c2542+ Fri, 06 Jul 2018 19:26:36 +0100
REM compiler GCC version 9.2.1 20190827 (Red Hat 9.2.1-1)
REM options -cpp -mtune=generic -march=x86-64 -g -O0 -fpre-include=/usr/include/finclude/math-vector-fortran.h
REM seed -1875178543 -669293403 77776679 1305487757 -1349967317 -577282258 -2101406937 -375627354 1031133153 1548491433 -51681960 -397661784 -1275543422 -764211382 723511581 1955679686 1849751055 -1845329642 937306794 350871222 -1552778302 -1930941207 1125895613 -1614270172 813955380 429015692 -210643731 1030396990 -329963511 2069372315 483006459 -960106362 894559457
REM
CELL 1.54180   15.00000   15.00000   15.00000   90.00000   90.00000   90.00000
LATT -1
SFAC C  
C      1  0.7467510000000  0.4472840000000  0.5406020000000 1.0
C      1  0.4292700000000  0.7449070000000  0.5530800000000 1.0
C      1  0.3102880000000  0.2980810000000  0.5729510000000 1.0
C      1  0.7592820000000  0.4454050000000  0.4276640000000 1.0
C      1  0.4114190000000  0.7455470000000  0.4399640000000 1.0
C      1  0.3325930000000  0.3090480000000  0.4649910000000 1.0
C      1  0.7592730000000  0.5546120000000  0.5723430000000 1.0
C      1  0.4114100000000  0.2544790000000  0.5600080000000 1.0
C      1  0.3325670000000  0.6909540000000  0.5350450000000 1.0
C      1  0.7467370000000  0.5527240000000  0.4594100000000 1.0
C      1  0.4292740000000  0.2550680000000  0.4468960000000 1.0
C      1  0.3102970000000  0.7019190000000  0.4270700000000 1.0
C      1  0.5105030000000  0.7044250000000  0.4558960000000 1.0
C      1  0.3106490000000  0.4190630000000  0.4488210000000 1.0
C      1  0.6700070000000  0.3878400000000  0.4493250000000 1.0
C      1  0.5262280000000  0.6953560000000  0.5549510000000 1.0
C      1  0.3086470000000  0.4068790000000  0.5521170000000 1.0
C      1  0.6585180000000  0.3774730000000  0.5509650000000 1.0
C      1  0.5262310000000  0.3046230000000  0.4450040000000 1.0
C      1  0.3086620000000  0.5931200000000  0.4479110000000 1.0
C      1  0.6585210000000  0.6225110000000  0.4490410000000 1.0
C      1  0.5105010000000  0.2955960000000  0.5440630000000 1.0
C      1  0.3106530000000  0.5809570000000  0.5512250000000 1.0
C      1  0.6699980000000  0.6121590000000  0.5506970000000 1.0
C      1  0.6047890000000  0.7485360000000  0.5919390000000 1.0
C      1  0.2266080000000  0.4536920000000  0.5924580000000 1.0
C      1  0.6614640000000  0.2821500000000  0.5869240000000 1.0
C      1  0.5877020000000  0.7585260000000  0.4140760000000 1.0
C      1  0.2281020000000  0.4623260000000  0.4084740000000 1.0
C      1  0.6776000000000  0.2934850000000  0.4081260000000 1.0
C      1  0.5876810000000  0.2414750000000  0.5859020000000 1.0
C      1  0.2280850000000  0.5376770000000  0.5915410000000 1.0
C      1  0.6775800000000  0.7065240000000  0.5918870000000 1.0
C      1  0.6048120000000  0.2514680000000  0.4080350000000 1.0
C      1  0.2266260000000  0.5463110000000  0.4075580000000 1.0
C      1  0.6614790000000  0.7178380000000  0.4130870000000 1.0
C      1  0.4066470000000  0.4528760000000  0.3982470000000 1.0
C      1  0.5950440000000  0.4459390000000  0.3862440000000 1.0
C      1  0.4965610000000  0.6135300000000  0.3914610000000 1.0
C      1  0.4025140000000  0.4471750000000  0.6020090000000 1.0
C      1  0.5830380000000  0.4410880000000  0.6066870000000 1.0
C      1  0.5016630000000  0.6082450000000  0.6155200000000 1.0
C      1  0.4025310000000  0.5528300000000  0.3980170000000 1.0
C      1  0.5830400000000  0.5589060000000  0.3932880000000 1.0
C      1  0.5016710000000  0.3917500000000  0.3844650000000 1.0
C      1  0.4066330000000  0.5471280000000  0.6017780000000 1.0
C      1  0.5950210000000  0.5540590000000  0.6137620000000 1.0
C      1  0.4965370000000  0.3864810000000  0.6085070000000 1.0
C      1  0.3776570000000  0.3473960000000  0.3675510000000 1.0
C      1  0.6973470000000  0.4354390000000  0.3301390000000 1.0
C      1  0.4583480000000  0.7102430000000  0.3359410000000 1.0
C      1  0.3756830000000  0.3475760000000  0.6480500000000 1.0
C      1  0.6896770000000  0.4645380000000  0.6386200000000 1.0
C      1  0.4554450000000  0.7082640000000  0.6637930000000 1.0
C      1  0.3756860000000  0.6524130000000  0.3519650000000 1.0
C      1  0.6896940000000  0.5354590000000  0.3613690000000 1.0
C      1  0.4554120000000  0.2917460000000  0.3361810000000 1.0
C      1  0.3776450000000  0.6525970000000  0.6324540000000 1.0
C      1  0.6973300000000  0.5645340000000  0.6698790000000 1.0
C      1  0.4583660000000  0.2897520000000  0.6640250000000 1.0
END
