TITL C-986974-580-379 -3.2676685888452e-06 3375 -337.164794956946 0 0 60 (C1) n - 1
REM
REM in /home/bkarasulu/work/CARBON/AIRSS/Generating-Clusters/REBO/Higher-Symm/Only-C60
REM
REM
REM
REM
REM
REM ./C.cell (a2850807a9bf4ad07a5b6933b78d9264)
REM AIRSS Version 0.9.1 bugfix July 2018 build 013d7b7c2542+ Fri, 06 Jul 2018 19:26:36 +0100
REM compiler GCC version 9.2.1 20190827 (Red Hat 9.2.1-1)
REM options -cpp -mtune=generic -march=x86-64 -g -O0 -fpre-include=/usr/include/finclude/math-vector-fortran.h
REM seed -1157606587 -1016023631 -1530015683 -14405115 -237684107 1397429248 -1156841609 -1316845544 1879577488 -1022601827 1787251326 665832047 186989165 753105175 -1725603418 -1444766199 -1858228171 -420548678 450069602 1691212441 1801591543 863702020 845221824 -1005682629 1777582846 1410533414 54898509 -84734127 1574050943 307435790 -1955573850 -651541116 -1418041758
REM
CELL 1.54180   15.00000   15.00000   15.00000   90.00000   90.00000   90.00000
LATT -1
SFAC C  
C      1  0.3974620000000  0.6142230000000  0.3273570000000 1.0
C      1  0.3237680000000  0.6207930000000  0.6014880000000 1.0
C      1  0.5962070000000  0.6140760000000  0.6754030000000 1.0
C      1  0.6719430000000  0.6068950000000  0.4021240000000 1.0
C      1  0.6046550000000  0.6025850000000  0.3107010000000 1.0
C      1  0.6877400000000  0.6124370000000  0.6082710000000 1.0
C      1  0.3922930000000  0.6164350000000  0.6919690000000 1.0
C      1  0.3070860000000  0.6082840000000  0.3959800000000 1.0
C      1  0.5725540000000  0.4284090000000  0.7825060000000 1.0
C      1  0.7870300000000  0.4293940000000  0.4309480000000 1.0
C      1  0.4537410000000  0.4367910000000  0.2196040000000 1.0
C      1  0.2270910000000  0.4348050000000  0.5482690000000 1.0
C      1  0.4697210000000  0.4385550000000  0.7855300000000 1.0
C      1  0.2122440000000  0.4269610000000  0.4462540000000 1.0
C      1  0.5565050000000  0.4285700000000  0.2083040000000 1.0
C      1  0.7880270000000  0.4388400000000  0.5339480000000 1.0
C      1  0.4680320000000  0.5466040000000  0.3929450000000 1.0
C      1  0.3896080000000  0.5541130000000  0.5301320000000 1.0
C      1  0.5255290000000  0.5525890000000  0.6072150000000 1.0
C      1  0.6056630000000  0.5435960000000  0.4723180000000 1.0
C      1  0.5565830000000  0.5416150000000  0.3904490000000 1.0
C      1  0.6075940000000  0.5473530000000  0.5608700000000 1.0
C      1  0.4377470000000  0.5530360000000  0.6104890000000 1.0
C      1  0.3874700000000  0.5481100000000  0.4422790000000 1.0
C      1  0.4439110000000  0.5388990000000  0.7421110000000 1.0
C      1  0.7398300000000  0.5369130000000  0.5600300000000 1.0
C      1  0.5416370000000  0.5288460000000  0.2590390000000 1.0
C      1  0.2572150000000  0.5299410000000  0.4598090000000 1.0
C      1  0.5568340000000  0.5296610000000  0.7332720000000 1.0
C      1  0.2664170000000  0.5382970000000  0.5725200000000 1.0
C      1  0.4305040000000  0.5368190000000  0.2671320000000 1.0
C      1  0.7345050000000  0.5288820000000  0.4470290000000 1.0
C      1  0.5584660000000  0.6746090000000  0.3851220000000 1.0
C      1  0.3818410000000  0.6810750000000  0.4411680000000 1.0
C      1  0.4388950000000  0.6859880000000  0.6162880000000 1.0
C      1  0.6136740000000  0.6803030000000  0.5602560000000 1.0
C      1  0.4665230000000  0.6797000000000  0.3853160000000 1.0
C      1  0.6143620000000  0.6781530000000  0.4683480000000 1.0
C      1  0.5308790000000  0.6854730000000  0.6164870000000 1.0
C      1  0.3817480000000  0.6871520000000  0.5330140000000 1.0
C      1  0.6279360000000  0.3787750000000  0.5643240000000 1.0
C      1  0.5657140000000  0.3822580000000  0.3739680000000 1.0
C      1  0.3764730000000  0.3872510000000  0.4338200000000 1.0
C      1  0.4348420000000  0.3838100000000  0.6247210000000 1.0
C      1  0.3718280000000  0.3817090000000  0.5443350000000 1.0
C      1  0.4557820000000  0.3770040000000  0.3709100000000 1.0
C      1  0.6268080000000  0.3745920000000  0.4546330000000 1.0
C      1  0.5451320000000  0.3783950000000  0.6231830000000 1.0
C      1  0.6823000000000  0.4438360000000  0.3913410000000 1.0
C      1  0.3895930000000  0.4433950000000  0.3139230000000 1.0
C      1  0.3183260000000  0.4473580000000  0.6161920000000 1.0
C      1  0.6121160000000  0.4458820000000  0.6780440000000 1.0
C      1  0.3063120000000  0.4534310000000  0.3901940000000 1.0
C      1  0.6094480000000  0.4496240000000  0.3055580000000 1.0
C      1  0.6995460000000  0.4434470000000  0.6055680000000 1.0
C      1  0.3955110000000  0.4466370000000  0.6994710000000 1.0
C      1  0.3383340000000  0.2994010000000  0.4844070000000 1.0
C      1  0.6588510000000  0.2895290000000  0.5118040000000 1.0
C      1  0.4868030000000  0.2936930000000  0.6541440000000 1.0
C      1  0.5148150000000  0.2941100000000  0.3371670000000 1.0
END
