TITL C-986979-5873-107 6.05410353669188e-06 3375 -358.329196926585 0 0 60 (C1) n - 1
REM
REM in /home/bkarasulu/work/CARBON/AIRSS/Generating-Clusters/REBO/Higher-Symm/Only-C60
REM
REM
REM
REM
REM
REM ./C.cell (a2850807a9bf4ad07a5b6933b78d9264)
REM AIRSS Version 0.9.1 bugfix July 2018 build 013d7b7c2542+ Fri, 06 Jul 2018 19:26:36 +0100
REM compiler GCC version 9.2.1 20190827 (Red Hat 9.2.1-1)
REM options -cpp -mtune=generic -march=x86-64 -g -O0 -fpre-include=/usr/include/finclude/math-vector-fortran.h
REM seed -917575288 -870712932 -1732517732 2035352847 504566582 -1249252701 326425601 -323069090 1664836551 -1438321167 -1001914728 699295546 -967333761 -1722494559 -324169274 56647588 -1677355614 874261421 -1352706784 2044335226 230664542 -1512425682 -1662513603 502309165 961672377 1927751027 -1458258046 -1583215560 925225195 948130929 -1307589872 617393034 -1025079780
REM
CELL 1.54180   15.00000   15.00000   15.00000   90.00000   90.00000   90.00000
LATT -1
SFAC C  
C      1  0.5622780000000  0.3024680000000  0.3874530000000 1.0
C      1  0.4364290000000  0.3072260000000  0.6185040000000 1.0
C      1  0.5714710000000  0.6864100000000  0.3850140000000 1.0
C      1  0.4286480000000  0.6909240000000  0.6094550000000 1.0
C      1  0.3311150000000  0.5624060000000  0.3309290000000 1.0
C      1  0.6696540000000  0.5656850000000  0.6665120000000 1.0
C      1  0.3282680000000  0.4623650000000  0.3434950000000 1.0
C      1  0.6709680000000  0.4653280000000  0.6572350000000 1.0
C      1  0.3072750000000  0.6092910000000  0.5334970000000 1.0
C      1  0.6923610000000  0.6072870000000  0.4628560000000 1.0
C      1  0.3116540000000  0.3957590000000  0.5504450000000 1.0
C      1  0.6878910000000  0.3935800000000  0.4528500000000 1.0
C      1  0.5830450000000  0.3008660000000  0.5449050000000 1.0
C      1  0.4159190000000  0.3007280000000  0.4609090000000 1.0
C      1  0.5784350000000  0.6939150000000  0.5450270000000 1.0
C      1  0.4215230000000  0.6938460000000  0.4493280000000 1.0
C      1  0.3701230000000  0.5504820000000  0.6982030000000 1.0
C      1  0.6295860000000  0.5445260000000  0.2963800000000 1.0
C      1  0.3774860000000  0.4388110000000  0.7100590000000 1.0
C      1  0.6211150000000  0.4328970000000  0.2970480000000 1.0
C      1  0.5796260000000  0.4043380000000  0.5288050000000 1.0
C      1  0.4196160000000  0.4049280000000  0.4739210000000 1.0
C      1  0.5782060000000  0.5891370000000  0.5283840000000 1.0
C      1  0.4216140000000  0.5897940000000  0.4686590000000 1.0
C      1  0.6339960000000  0.3088520000000  0.4541170000000 1.0
C      1  0.3653970000000  0.3114160000000  0.5512190000000 1.0
C      1  0.6348800000000  0.6870520000000  0.4586300000000 1.0
C      1  0.3648860000000  0.6893270000000  0.5360080000000 1.0
C      1  0.4539070000000  0.4522300000000  0.5496050000000 1.0
C      1  0.5446040000000  0.4489590000000  0.4521280000000 1.0
C      1  0.4530260000000  0.5448250000000  0.5464180000000 1.0
C      1  0.5468410000000  0.5416460000000  0.4518770000000 1.0
C      1  0.4976990000000  0.5547340000000  0.2810770000000 1.0
C      1  0.5038450000000  0.5599180000000  0.7126490000000 1.0
C      1  0.4889010000000  0.4435600000000  0.2859450000000 1.0
C      1  0.5096670000000  0.4489100000000  0.7193790000000 1.0
C      1  0.5103920000000  0.7364440000000  0.5936280000000 1.0
C      1  0.4900370000000  0.7330620000000  0.3986830000000 1.0
C      1  0.5161380000000  0.2607120000000  0.5971260000000 1.0
C      1  0.4825320000000  0.2570880000000  0.4111310000000 1.0
C      1  0.3894640000000  0.4166240000000  0.2928610000000 1.0
C      1  0.6099190000000  0.4216650000000  0.7099830000000 1.0
C      1  0.4011100000000  0.5948030000000  0.2823570000000 1.0
C      1  0.5992190000000  0.6003220000000  0.7127950000000 1.0
C      1  0.5453950000000  0.3981240000000  0.3634190000000 1.0
C      1  0.4524010000000  0.4040820000000  0.6392190000000 1.0
C      1  0.5559630000000  0.5896670000000  0.3639980000000 1.0
C      1  0.4445540000000  0.5951340000000  0.6334770000000 1.0
C      1  0.3219670000000  0.4440350000000  0.4495080000000 1.0
C      1  0.6771640000000  0.4439520000000  0.5519590000000 1.0
C      1  0.3242330000000  0.5530650000000  0.4402330000000 1.0
C      1  0.6756510000000  0.5530490000000  0.5577240000000 1.0
C      1  0.3023220000000  0.5559980000000  0.6096650000000 1.0
C      1  0.6967170000000  0.5528610000000  0.3874960000000 1.0
C      1  0.3127860000000  0.4565710000000  0.6231340000000 1.0
C      1  0.6878700000000  0.4531870000000  0.3789480000000 1.0
C      1  0.5664630000000  0.4687060000000  0.2070410000000 1.0
C      1  0.4385110000000  0.4213780000000  0.8042880000000 1.0
C      1  0.5760430000000  0.5763280000000  0.2010660000000 1.0
C      1  0.4311950000000  0.5287210000000  0.7913350000000 1.0
END
