TITL C-986973-6940-96 -0.00548467811025151 3375 -358.999757923014 0 0 60 (C3) n - 1
REM
REM in /home/bkarasulu/work/CARBON/AIRSS/Generating-Clusters/REBO/Higher-Symm/Only-C60
REM
REM
REM
REM
REM
REM ./C.cell (a2850807a9bf4ad07a5b6933b78d9264)
REM AIRSS Version 0.9.1 bugfix July 2018 build 013d7b7c2542+ Fri, 06 Jul 2018 19:26:36 +0100
REM compiler GCC version 9.2.1 20190827 (Red Hat 9.2.1-1)
REM options -cpp -mtune=generic -march=x86-64 -g -O0 -fpre-include=/usr/include/finclude/math-vector-fortran.h
REM seed -800201859 498072693 228958229 -2136944035 -713676879 -1011422730 1180999357 -177597775 -1335780550 312184409 1347869243 -435645108 1350444499 291656156 -1772904127 -907425718 -1125405654 -160264833 409067932 1121264415 1573072324 -1674858469 1038700932 1689815936 576352071 -177807557 -449429393 -1420102101 -126608022 201740135 -622697578 -1847492511 -1277586662
REM
CELL 1.54180   15.00000   15.00000   15.00000   90.00000   90.00000   90.00000
LATT -1
SFAC C  
C      1  0.2689730000000  0.5493040000000  0.3058460000000 1.0
C      1  0.2689960000000  0.6434300000000  0.6399460000000 1.0
C      1  0.2687410000000  0.3069730000000  0.5541400000000 1.0
C      1  0.5589720000000  0.2727710000000  0.6015540000000 1.0
C      1  0.5591040000000  0.5255760000000  0.2524780000000 1.0
C      1  0.5589940000000  0.7016050000000  0.6460160000000 1.0
C      1  0.6525600000000  0.3633010000000  0.3856620000000 1.0
C      1  0.6525220000000  0.6675390000000  0.4389150000000 1.0
C      1  0.6524950000000  0.4692730000000  0.6754010000000 1.0
C      1  0.6872360000000  0.3683490000000  0.6639710000000 1.0
C      1  0.6873580000000  0.4236040000000  0.3039630000000 1.0
C      1  0.6872690000000  0.7081180000000  0.5320430000000 1.0
C      1  0.3770560000000  0.4152620000000  0.5043350000000 1.0
C      1  0.3770950000000  0.5385650000000  0.4246340000000 1.0
C      1  0.3770090000000  0.5459270000000  0.5709620000000 1.0
C      1  0.5359070000000  0.4879610000000  0.5629220000000 1.0
C      1  0.5359580000000  0.4515330000000  0.4580260000000 1.0
C      1  0.5359370000000  0.5606530000000  0.4788960000000 1.0
C      1  0.4839490000000  0.7370260000000  0.5989370000000 1.0
C      1  0.4839060000000  0.2957780000000  0.6557440000000 1.0
C      1  0.4840460000000  0.4671100000000  0.2452840000000 1.0
C      1  0.3487710000000  0.6213460000000  0.4651010000000 1.0
C      1  0.3487460000000  0.4694530000000  0.6224310000000 1.0
C      1  0.3488380000000  0.4091500000000  0.4124280000000 1.0
C      1  0.3103760000000  0.6308320000000  0.2935820000000 1.0
C      1  0.3103420000000  0.6131720000000  0.7166650000000 1.0
C      1  0.3102100000000  0.2555810000000  0.4897050000000 1.0
C      1  0.5686360000000  0.3614180000000  0.4358810000000 1.0
C      1  0.5686720000000  0.6249470000000  0.4119750000000 1.0
C      1  0.5686070000000  0.5138020000000  0.6520220000000 1.0
C      1  0.4556940000000  0.4880460000000  0.4012100000000 1.0
C      1  0.4556340000000  0.5915360000000  0.5389600000000 1.0
C      1  0.4556310000000  0.4204670000000  0.5597080000000 1.0
C      1  0.4845250000000  0.6759100000000  0.3579780000000 1.0
C      1  0.4844800000000  0.5349700000000  0.7232110000000 1.0
C      1  0.4844540000000  0.2892120000000  0.4187390000000 1.0
C      1  0.3029200000000  0.4908930000000  0.3719890000000 1.0
C      1  0.3029160000000  0.6155330000000  0.5562100000000 1.0
C      1  0.3028310000000  0.3933790000000  0.5718970000000 1.0
C      1  0.4085380000000  0.3393400000000  0.3543710000000 1.0
C      1  0.4085760000000  0.7065400000000  0.4336490000000 1.0
C      1  0.4085300000000  0.4541470000000  0.7119060000000 1.0
C      1  0.7488810000000  0.4505120000000  0.6318460000000 1.0
C      1  0.7488030000000  0.4106800000000  0.3913630000000 1.0
C      1  0.7488510000000  0.6390920000000  0.4770560000000 1.0
C      1  0.5476750000000  0.6010790000000  0.3048990000000 1.0
C      1  0.5476020000000  0.6184020000000  0.6850760000000 1.0
C      1  0.5476170000000  0.2805590000000  0.5099810000000 1.0
C      1  0.6434690000000  0.4832910000000  0.2491960000000 1.0
C      1  0.6433760000000  0.7256610000000  0.6111260000000 1.0
C      1  0.6433350000000  0.2910460000000  0.6398110000000 1.0
C      1  0.3762370000000  0.2620980000000  0.4308630000000 1.0
C      1  0.3762770000000  0.6787660000000  0.3285510000000 1.0
C      1  0.3762860000000  0.5589740000000  0.7407160000000 1.0
C      1  0.4440930000000  0.4328830000000  0.3226590000000 1.0
C      1  0.4440530000000  0.6871580000000  0.5305450000000 1.0
C      1  0.4440960000000  0.3799760000000  0.6467230000000 1.0
C      1  0.7957860000000  0.5612710000000  0.4881960000000 1.0
C      1  0.7958630000000  0.4799140000000  0.5589610000000 1.0
C      1  0.7956910000000  0.4593060000000  0.4531450000000 1.0
END
