TITL C-986976-6631-543 8.78559337772829e-06 3375 -358.467200771539 0 0 60 (C2) n - 1
REM
REM in /home/bkarasulu/work/CARBON/AIRSS/Generating-Clusters/REBO/Higher-Symm/Only-C60
REM
REM
REM
REM
REM
REM ./C.cell (a2850807a9bf4ad07a5b6933b78d9264)
REM AIRSS Version 0.9.1 bugfix July 2018 build 013d7b7c2542+ Fri, 06 Jul 2018 19:26:36 +0100
REM compiler GCC version 9.2.1 20190827 (Red Hat 9.2.1-1)
REM options -cpp -mtune=generic -march=x86-64 -g -O0 -fpre-include=/usr/include/finclude/math-vector-fortran.h
REM seed 2103346313 1836860813 -1896948110 401174766 1943066096 -54979380 -1606696380 28177715 -1865927096 2127055749 541228817 -971961481 -380469008 -423724228 1131965424 -1479205607 1039764305 536716548 1508677097 -637370555 -884211133 266519219 -374181151 1274072127 378723300 464446842 1536657830 -1218226710 555952331 -104442516 858857348 -1877152223 -1257195318
REM
CELL 1.54180   15.00000   15.00000   15.00000   90.00000   90.00000   90.00000
LATT -1
SFAC C  
C      1  0.6943420000000  0.6302490000000  0.4637910000000 1.0
C      1  0.7110630000000  0.4766780000000  0.6491970000000 1.0
C      1  0.6945070000000  0.4033420000000  0.4046760000000 1.0
C      1  0.2891750000000  0.6332100000000  0.4402390000000 1.0
C      1  0.2945290000000  0.4848810000000  0.6480310000000 1.0
C      1  0.3021420000000  0.3998310000000  0.4094410000000 1.0
C      1  0.7108240000000  0.6332100000000  0.5597620000000 1.0
C      1  0.7054710000000  0.4848820000000  0.3519690000000 1.0
C      1  0.6978580000000  0.3998310000000  0.5905580000000 1.0
C      1  0.3056580000000  0.6302480000000  0.5362100000000 1.0
C      1  0.2889370000000  0.4766780000000  0.3508030000000 1.0
C      1  0.3054930000000  0.4033410000000  0.5953230000000 1.0
C      1  0.7687890000000  0.5435060000000  0.6769680000000 1.0
C      1  0.7597360000000  0.3532210000000  0.4495680000000 1.0
C      1  0.7551480000000  0.6299970000000  0.3924310000000 1.0
C      1  0.2391270000000  0.5574270000000  0.6636010000000 1.0
C      1  0.2388120000000  0.3514230000000  0.4586650000000 1.0
C      1  0.2312490000000  0.6232480000000  0.3688330000000 1.0
C      1  0.7608730000000  0.5574290000000  0.3363990000000 1.0
C      1  0.7611890000000  0.3514240000000  0.5413340000000 1.0
C      1  0.7687500000000  0.6232480000000  0.6311680000000 1.0
C      1  0.2312100000000  0.5435060000000  0.3230320000000 1.0
C      1  0.2402640000000  0.3532200000000  0.5504310000000 1.0
C      1  0.2448520000000  0.6299960000000  0.6075700000000 1.0
C      1  0.5980860000000  0.4022650000000  0.5510950000000 1.0
C      1  0.6016420000000  0.4974960000000  0.3914980000000 1.0
C      1  0.6084090000000  0.5882330000000  0.5560350000000 1.0
C      1  0.4038540000000  0.4026460000000  0.5526030000000 1.0
C      1  0.3919250000000  0.4960170000000  0.3908740000000 1.0
C      1  0.4030310000000  0.5875280000000  0.5542650000000 1.0
C      1  0.5961470000000  0.4026460000000  0.4473970000000 1.0
C      1  0.6080750000000  0.4960160000000  0.6091260000000 1.0
C      1  0.5969690000000  0.5875290000000  0.4457360000000 1.0
C      1  0.4019140000000  0.4022650000000  0.4489040000000 1.0
C      1  0.3983580000000  0.4974950000000  0.6085020000000 1.0
C      1  0.3915900000000  0.5882330000000  0.4439660000000 1.0
C      1  0.5879800000000  0.6625040000000  0.6993410000000 1.0
C      1  0.5864860000000  0.2404390000000  0.5457460000000 1.0
C      1  0.5813430000000  0.5826270000000  0.2554200000000 1.0
C      1  0.4185060000000  0.6629420000000  0.6971350000000 1.0
C      1  0.4143620000000  0.2406590000000  0.5474820000000 1.0
C      1  0.4125870000000  0.5815330000000  0.2544150000000 1.0
C      1  0.5814930000000  0.6629440000000  0.3028660000000 1.0
C      1  0.5856390000000  0.2406600000000  0.4525170000000 1.0
C      1  0.5874130000000  0.5815320000000  0.7455850000000 1.0
C      1  0.4120190000000  0.6625050000000  0.3006600000000 1.0
C      1  0.4135150000000  0.2404390000000  0.4542530000000 1.0
C      1  0.4186570000000  0.5826250000000  0.7445800000000 1.0
C      1  0.4574860000000  0.6543890000000  0.6092320000000 1.0
C      1  0.4540860000000  0.3200850000000  0.5846110000000 1.0
C      1  0.4501780000000  0.5092840000000  0.3064710000000 1.0
C      1  0.5510980000000  0.6548290000000  0.6104600000000 1.0
C      1  0.5477430000000  0.3198970000000  0.5838750000000 1.0
C      1  0.5439430000000  0.5096120000000  0.3066470000000 1.0
C      1  0.4489020000000  0.6548300000000  0.3895410000000 1.0
C      1  0.4522570000000  0.3198980000000  0.4161240000000 1.0
C      1  0.4560570000000  0.5096110000000  0.6933530000000 1.0
C      1  0.5425140000000  0.6543900000000  0.3907690000000 1.0
C      1  0.5459150000000  0.3200860000000  0.4153880000000 1.0
C      1  0.5498220000000  0.5092830000000  0.6935290000000 1.0
END
