TITL C-986972-3822-146 -1.25751427349425e-06 3375 -330.775022884819 0 0 60 (S12) n - 1
REM
REM in /home/bkarasulu/work/CARBON/AIRSS/Generating-Clusters/REBO/Higher-Symm/Only-C60
REM
REM
REM
REM
REM
REM ./C.cell (a2850807a9bf4ad07a5b6933b78d9264)
REM AIRSS Version 0.9.1 bugfix July 2018 build 013d7b7c2542+ Fri, 06 Jul 2018 19:26:36 +0100
REM compiler GCC version 9.2.1 20190827 (Red Hat 9.2.1-1)
REM options -cpp -mtune=generic -march=x86-64 -g -O0 -fpre-include=/usr/include/finclude/math-vector-fortran.h
REM seed -1083960445 1137892351 -791284134 -2064658596 -1597428025 65076307 -1958360919 1505015052 -978018129 -218047044 -996131059 790356416 269504492 1329381097 284811034 294788082 1446957099 -1241820547 1771752231 26810029 -32558168 3960391 -754645410 1233173763 1833382242 -946506076 -309181476 -1330827740 1522750944 -2047547565 67118846 902891807 -242188982
REM
CELL 1.54180   15.00000   15.00000   15.00000   90.00000   90.00000   90.00000
LATT -1
SFAC C  
C      1  0.3319170000000  0.6263350000000  0.5433730000000 1.0
C      1  0.3761220000000  0.3736650000000  0.6216040000000 1.0
C      1  0.4535200000000  0.6263350000000  0.6672510000000 1.0
C      1  0.5433730000000  0.3736650000000  0.6680830000000 1.0
C      1  0.6216040000000  0.6263350000000  0.6238780000000 1.0
C      1  0.6672510000000  0.3736650000000  0.5464800000000 1.0
C      1  0.6680830000000  0.6263350000000  0.4566270000000 1.0
C      1  0.6238780000000  0.3736650000000  0.3783960000000 1.0
C      1  0.5464800000000  0.6263350000000  0.3327490000000 1.0
C      1  0.4566270000000  0.3736650000000  0.3319170000000 1.0
C      1  0.3783960000000  0.6263350000000  0.3761220000000 1.0
C      1  0.3327490000000  0.3736650000000  0.4535200000000 1.0
C      1  0.5902350000000  0.3110810000000  0.5250520000000 1.0
C      1  0.5906720000000  0.6889190000000  0.4765780000000 1.0
C      1  0.5668140000000  0.3110810000000  0.4343800000000 1.0
C      1  0.5250520000000  0.6889190000000  0.4097650000000 1.0
C      1  0.4765780000000  0.3110810000000  0.4093280000000 1.0
C      1  0.4343800000000  0.6889190000000  0.4331860000000 1.0
C      1  0.4097650000000  0.3110810000000  0.4749480000000 1.0
C      1  0.4093280000000  0.6889190000000  0.5234220000000 1.0
C      1  0.4331860000000  0.3110810000000  0.5656200000000 1.0
C      1  0.4749480000000  0.6889190000000  0.5902350000000 1.0
C      1  0.5234220000000  0.3110810000000  0.5906720000000 1.0
C      1  0.5656200000000  0.6889190000000  0.5668140000000 1.0
C      1  0.6419780000000  0.5186270000000  0.6978490000000 1.0
C      1  0.7218810000000  0.4813730000000  0.6003530000000 1.0
C      1  0.7423310000000  0.5186270000000  0.4759680000000 1.0
C      1  0.6978490000000  0.4813730000000  0.3580220000000 1.0
C      1  0.6003530000000  0.5186270000000  0.2781190000000 1.0
C      1  0.4759680000000  0.4813730000000  0.2576690000000 1.0
C      1  0.3580220000000  0.5186270000000  0.3021510000000 1.0
C      1  0.2781190000000  0.4813730000000  0.3996470000000 1.0
C      1  0.2576690000000  0.5186270000000  0.5240320000000 1.0
C      1  0.3021510000000  0.4813730000000  0.6419780000000 1.0
C      1  0.3996470000000  0.5186270000000  0.7218810000000 1.0
C      1  0.5240320000000  0.4813730000000  0.7423310000000 1.0
C      1  0.3091840000000  0.4263630000000  0.5459590000000 1.0
C      1  0.3577280000000  0.5736370000000  0.6352090000000 1.0
C      1  0.4443930000000  0.4263630000000  0.6882310000000 1.0
C      1  0.5459590000000  0.5736370000000  0.6908160000000 1.0
C      1  0.6352090000000  0.4263630000000  0.6422720000000 1.0
C      1  0.6882310000000  0.5736370000000  0.5556070000000 1.0
C      1  0.6908160000000  0.4263630000000  0.4540410000000 1.0
C      1  0.6422720000000  0.5736370000000  0.3647910000000 1.0
C      1  0.5556070000000  0.4263630000000  0.3117690000000 1.0
C      1  0.4540410000000  0.5736370000000  0.3091840000000 1.0
C      1  0.3647910000000  0.4263630000000  0.3577280000000 1.0
C      1  0.3117690000000  0.5736370000000  0.4443930000000 1.0
C      1  0.2877370000000  0.5903650000000  0.3148100000000 1.0
C      1  0.2235800000000  0.4096350000000  0.4457520000000 1.0
C      1  0.2334890000000  0.5903650000000  0.5912300000000 1.0
C      1  0.3148100000000  0.4096350000000  0.7122630000000 1.0
C      1  0.4457520000000  0.5903650000000  0.7764200000000 1.0
C      1  0.5912300000000  0.4096350000000  0.7665110000000 1.0
C      1  0.7122630000000  0.5903650000000  0.6851900000000 1.0
C      1  0.7764200000000  0.4096350000000  0.5542480000000 1.0
C      1  0.7665110000000  0.5903650000000  0.4087700000000 1.0
C      1  0.6851900000000  0.4096350000000  0.2877370000000 1.0
C      1  0.5542480000000  0.5903650000000  0.2235800000000 1.0
C      1  0.4087700000000  0.4096350000000  0.2334890000000 1.0
END
