TITL C-986976-6631-313 -0.00488110107858875 3375 -356.466795668537 0 0 60 (C2) n - 1
REM
REM in /home/bkarasulu/work/CARBON/AIRSS/Generating-Clusters/REBO/Higher-Symm/Only-C60
REM
REM
REM
REM
REM
REM ./C.cell (a2850807a9bf4ad07a5b6933b78d9264)
REM AIRSS Version 0.9.1 bugfix July 2018 build 013d7b7c2542+ Fri, 06 Jul 2018 19:26:36 +0100
REM compiler GCC version 9.2.1 20190827 (Red Hat 9.2.1-1)
REM options -cpp -mtune=generic -march=x86-64 -g -O0 -fpre-include=/usr/include/finclude/math-vector-fortran.h
REM seed -1988219488 -471710928 -1052847942 830331137 948877600 1829640865 -2142138465 1103660669 -1020689 927284020 -2068908640 1132796785 -1137225239 -584193886 1992776466 1225967901 -1443155713 -170615664 -1226051020 2065005416 -1688634187 392155565 680649248 -2091347128 -59704296 1538653662 314822795 -2140830938 435557897 1556793639 1823994445 -271975173 1009083726
REM
CELL 1.54180   15.00000   15.00000   15.00000   90.00000   90.00000   90.00000
LATT -1
SFAC C  
C      1  0.4032410000000  0.5903680000000  0.2794700000000 1.0
C      1  0.4252790000000  0.3144220000000  0.3600810000000 1.0
C      1  0.4079420000000  0.2966340000000  0.6462830000000 1.0
C      1  0.4076290000000  0.5741090000000  0.7407000000000 1.0
C      1  0.4008280000000  0.7509250000000  0.5124400000000 1.0
C      1  0.5967680000000  0.5903870000000  0.7205290000000 1.0
C      1  0.5747710000000  0.3143820000000  0.6399160000000 1.0
C      1  0.5920360000000  0.2966240000000  0.3537040000000 1.0
C      1  0.5923520000000  0.5741100000000  0.2593370000000 1.0
C      1  0.5991330000000  0.7508860000000  0.4875300000000 1.0
C      1  0.4291380000000  0.4815210000000  0.2599780000000 1.0
C      1  0.4326260000000  0.2520350000000  0.4553450000000 1.0
C      1  0.4223580000000  0.3809180000000  0.7216400000000 1.0
C      1  0.4276320000000  0.6687770000000  0.6808620000000 1.0
C      1  0.4252330000000  0.7265090000000  0.4044840000000 1.0
C      1  0.5708640000000  0.4815360000000  0.7400410000000 1.0
C      1  0.5673760000000  0.2520380000000  0.5446240000000 1.0
C      1  0.5775800000000  0.3809330000000  0.2783810000000 1.0
C      1  0.5723510000000  0.6687160000000  0.3191240000000 1.0
C      1  0.5748410000000  0.7265700000000  0.5955200000000 1.0
C      1  0.3255400000000  0.4460180000000  0.5685990000000 1.0
C      1  0.3245870000000  0.5433930000000  0.5751900000000 1.0
C      1  0.3244990000000  0.5802920000000  0.4847440000000 1.0
C      1  0.3255530000000  0.5049410000000  0.4221390000000 1.0
C      1  0.3303380000000  0.4223260000000  0.4741560000000 1.0
C      1  0.6744840000000  0.4460180000000  0.4313920000000 1.0
C      1  0.6753980000000  0.5433850000000  0.4248280000000 1.0
C      1  0.6755010000000  0.5803070000000  0.5152670000000 1.0
C      1  0.6744620000000  0.5049380000000  0.5778640000000 1.0
C      1  0.6696540000000  0.4223210000000  0.5258370000000 1.0
C      1  0.3539510000000  0.6657830000000  0.4683970000000 1.0
C      1  0.3528620000000  0.5156630000000  0.3350870000000 1.0
C      1  0.3688210000000  0.3452300000000  0.4434780000000 1.0
C      1  0.3540260000000  0.3879880000000  0.6334320000000 1.0
C      1  0.3567220000000  0.5883210000000  0.6480940000000 1.0
C      1  0.6460460000000  0.6657990000000  0.5315400000000 1.0
C      1  0.6471500000000  0.5156850000000  0.6649100000000 1.0
C      1  0.6311830000000  0.3452280000000  0.5565090000000 1.0
C      1  0.6459420000000  0.3880190000000  0.3665450000000 1.0
C      1  0.6432620000000  0.5883350000000  0.3519350000000 1.0
C      1  0.5131650000000  0.6418530000000  0.4567200000000 1.0
C      1  0.5241740000000  0.4914270000000  0.3526830000000 1.0
C      1  0.5233570000000  0.3487550000000  0.4607140000000 1.0
C      1  0.4831610000000  0.4061150000000  0.6061850000000 1.0
C      1  0.4831660000000  0.5713660000000  0.6094390000000 1.0
C      1  0.4868420000000  0.6418650000000  0.5432300000000 1.0
C      1  0.4758460000000  0.4914230000000  0.6473220000000 1.0
C      1  0.4766670000000  0.3487790000000  0.5392950000000 1.0
C      1  0.5168180000000  0.4061300000000  0.3938550000000 1.0
C      1  0.5168210000000  0.5713320000000  0.3905820000000 1.0
C      1  0.5338650000000  0.3862700000000  0.7050900000000 1.0
C      1  0.5377890000000  0.6532910000000  0.6659890000000 1.0
C      1  0.5386600000000  0.7356700000000  0.4042960000000 1.0
C      1  0.5416880000000  0.4833730000000  0.2451850000000 1.0
C      1  0.5448000000000  0.2456300000000  0.4334970000000 1.0
C      1  0.4661380000000  0.3862800000000  0.2949130000000 1.0
C      1  0.4622100000000  0.6533290000000  0.3340230000000 1.0
C      1  0.4613710000000  0.7356910000000  0.5957540000000 1.0
C      1  0.4583030000000  0.4833530000000  0.7548150000000 1.0
C      1  0.4551970000000  0.2456780000000  0.5664790000000 1.0
END
