TITL C-986978-6805-573 0.000426296731477802 3375 -351.152415085538 0 0 60 (C1) n - 1
REM
REM in /home/bkarasulu/work/CARBON/AIRSS/Generating-Clusters/REBO/Higher-Symm/Only-C60
REM
REM
REM
REM
REM
REM ./C.cell (a2850807a9bf4ad07a5b6933b78d9264)
REM AIRSS Version 0.9.1 bugfix July 2018 build 013d7b7c2542+ Fri, 06 Jul 2018 19:26:36 +0100
REM compiler GCC version 9.2.1 20190827 (Red Hat 9.2.1-1)
REM options -cpp -mtune=generic -march=x86-64 -g -O0 -fpre-include=/usr/include/finclude/math-vector-fortran.h
REM seed -1653300832 -1330365727 403445628 -1060677445 1047082404 1117861001 1457481907 971125051 -464718017 722525309 -197822473 -1743670438 -659811909 -1269350977 -1788465397 -1113690822 1629378999 -1104636539 -1091915488 1355514643 1708093873 -1211728928 -1484771173 -633940075 -379286237 -387958710 2033353980 -2055010759 682392100 602423341 -1628642914 969300835 -1430839818
REM
CELL 1.54180   15.00000   15.00000   15.00000   90.00000   90.00000   90.00000
LATT -1
SFAC C  
C      1  0.7146230000000  0.4166640000000  0.4437400000000 1.0
C      1  0.7162450000000  0.5901910000000  0.4566810000000 1.0
C      1  0.7139300000000  0.4919500000000  0.6000070000000 1.0
C      1  0.4231530000000  0.6630220000000  0.3538380000000 1.0
C      1  0.4209770000000  0.5466830000000  0.7119080000000 1.0
C      1  0.4219600000000  0.2926480000000  0.4308360000000 1.0
C      1  0.3922480000000  0.4475910000000  0.7102080000000 1.0
C      1  0.3954290000000  0.3451380000000  0.3454390000000 1.0
C      1  0.3958090000000  0.7117250000000  0.4405030000000 1.0
C      1  0.6051310000000  0.3101410000000  0.3961520000000 1.0
C      1  0.6075150000000  0.6851610000000  0.3873540000000 1.0
C      1  0.6040880000000  0.5051180000000  0.7156960000000 1.0
C      1  0.3032220000000  0.3787630000000  0.5895630000000 1.0
C      1  0.2988930000000  0.4845010000000  0.3548680000000 1.0
C      1  0.3107060000000  0.6459640000000  0.5661380000000 1.0
C      1  0.5872510000000  0.5943390000000  0.5061690000000 1.0
C      1  0.5858770000000  0.4474170000000  0.5775090000000 1.0
C      1  0.5891550000000  0.4585700000000  0.4148520000000 1.0
C      1  0.3200010000000  0.4472790000000  0.6466790000000 1.0
C      1  0.3232120000000  0.4000030000000  0.3777030000000 1.0
C      1  0.3241400000000  0.6597630000000  0.4766460000000 1.0
C      1  0.4888780000000  0.4532090000000  0.5735170000000 1.0
C      1  0.4923880000000  0.4593010000000  0.4208760000000 1.0
C      1  0.4898910000000  0.5891040000000  0.5022230000000 1.0
C      1  0.4603820000000  0.6516050000000  0.5846210000000 1.0
C      1  0.4578730000000  0.3508620000000  0.5861740000000 1.0
C      1  0.4612320000000  0.5000700000000  0.3268060000000 1.0
C      1  0.3106610000000  0.5717300000000  0.4178350000000 1.0
C      1  0.3139740000000  0.5484000000000  0.6034500000000 1.0
C      1  0.3176900000000  0.3800530000000  0.4831950000000 1.0
C      1  0.6974320000000  0.3398990000000  0.3967700000000 1.0
C      1  0.6994320000000  0.6694400000000  0.4137310000000 1.0
C      1  0.6961760000000  0.4894900000000  0.6898890000000 1.0
C      1  0.6911880000000  0.5098200000000  0.4029340000000 1.0
C      1  0.6892360000000  0.5785410000000  0.5567330000000 1.0
C      1  0.6880960000000  0.4110220000000  0.5398330000000 1.0
C      1  0.2228130000000  0.5272590000000  0.4554050000000 1.0
C      1  0.2258240000000  0.5108160000000  0.5610180000000 1.0
C      1  0.2248490000000  0.4286610000000  0.4945010000000 1.0
C      1  0.6390000000000  0.5439730000000  0.3121520000000 1.0
C      1  0.6379250000000  0.6407360000000  0.6317660000000 1.0
C      1  0.6368240000000  0.3149500000000  0.5560650000000 1.0
C      1  0.4268560000000  0.4025150000000  0.4612780000000 1.0
C      1  0.4228500000000  0.5817970000000  0.4328850000000 1.0
C      1  0.4234930000000  0.5179410000000  0.6018020000000 1.0
C      1  0.4856780000000  0.5934920000000  0.3158760000000 1.0
C      1  0.4839770000000  0.6143090000000  0.6713170000000 1.0
C      1  0.4832700000000  0.2929620000000  0.5116030000000 1.0
C      1  0.5597440000000  0.7188710000000  0.4673530000000 1.0
C      1  0.5556580000000  0.4192170000000  0.7042490000000 1.0
C      1  0.5587790000000  0.3635870000000  0.3264090000000 1.0
C      1  0.5782710000000  0.6162080000000  0.3242000000000 1.0
C      1  0.5762080000000  0.5948050000000  0.6877010000000 1.0
C      1  0.5760240000000  0.2891700000000  0.4875790000000 1.0
C      1  0.6254470000000  0.4409860000000  0.3099790000000 1.0
C      1  0.6243830000000  0.6938780000000  0.5437100000000 1.0
C      1  0.6212990000000  0.3652640000000  0.6453710000000 1.0
C      1  0.4649200000000  0.3884740000000  0.6871080000000 1.0
C      1  0.4685740000000  0.3945320000000  0.3072880000000 1.0
C      1  0.4692370000000  0.7204230000000  0.5023080000000 1.0
END
