TITL C-986976-6631-615 -0.242275421563963 3375 -350.020943552718 0 0 60 (T23) n - 1
REM
REM in /home/bkarasulu/work/CARBON/AIRSS/Generating-Clusters/REBO/Higher-Symm/Only-C60
REM
REM
REM
REM
REM
REM ./C.cell (a2850807a9bf4ad07a5b6933b78d9264)
REM AIRSS Version 0.9.1 bugfix July 2018 build 013d7b7c2542+ Fri, 06 Jul 2018 19:26:36 +0100
REM compiler GCC version 9.2.1 20190827 (Red Hat 9.2.1-1)
REM options -cpp -mtune=generic -march=x86-64 -g -O0 -fpre-include=/usr/include/finclude/math-vector-fortran.h
REM seed -823146688 1549335536 -1784549677 -1748759953 1347236243 -1739710925 -2015030519 -864586895 20200276 -148919398 470869942 -155848039 1784164029 -1461284063 -1658993226 189538817 402462299 2021509729 1452744341 1703774352 -1454923131 336527091 -900035030 -1517107255 434482240 657472823 -909833098 -1265741998 1985001973 -487559883 706477989 490883970 938924278
REM
CELL 1.54180   15.00000   15.00000   15.00000   90.00000   90.00000   90.00000
LATT -1
SFAC C  
C      1  0.3307830000000  0.6269390000000  0.4923150000000 1.0
C      1  0.6269390000000  0.4923150000000  0.3307830000000 1.0
C      1  0.4923150000000  0.3307830000000  0.6269390000000 1.0
C      1  0.6692170000000  0.6269390000000  0.5076850000000 1.0
C      1  0.6692170000000  0.3730610000000  0.4923150000000 1.0
C      1  0.3307830000000  0.3730610000000  0.5076850000000 1.0
C      1  0.3730610000000  0.4923150000000  0.6692170000000 1.0
C      1  0.3730610000000  0.5076850000000  0.3307830000000 1.0
C      1  0.6269390000000  0.5076850000000  0.6692170000000 1.0
C      1  0.5076850000000  0.3307830000000  0.3730610000000 1.0
C      1  0.5076850000000  0.6692170000000  0.6269390000000 1.0
C      1  0.4923150000000  0.6692170000000  0.3730610000000 1.0
C      1  0.3304920000000  0.5760190000000  0.6148350000000 1.0
C      1  0.5760190000000  0.6148350000000  0.3304920000000 1.0
C      1  0.6148350000000  0.3304920000000  0.5760190000000 1.0
C      1  0.6695080000000  0.5760190000000  0.3851650000000 1.0
C      1  0.6695080000000  0.4239810000000  0.6148350000000 1.0
C      1  0.3304920000000  0.4239810000000  0.3851650000000 1.0
C      1  0.4239810000000  0.6148350000000  0.6695080000000 1.0
C      1  0.4239810000000  0.3851650000000  0.3304920000000 1.0
C      1  0.5760190000000  0.3851650000000  0.6695080000000 1.0
C      1  0.3851650000000  0.3304920000000  0.4239810000000 1.0
C      1  0.3851650000000  0.6695080000000  0.5760190000000 1.0
C      1  0.6148350000000  0.6695080000000  0.4239810000000 1.0
C      1  0.4622740000000  0.4706670000000  0.6109050000000 1.0
C      1  0.4706670000000  0.6109050000000  0.4622740000000 1.0
C      1  0.6109050000000  0.4622740000000  0.4706670000000 1.0
C      1  0.5377260000000  0.4706670000000  0.3890950000000 1.0
C      1  0.5377260000000  0.5293330000000  0.6109050000000 1.0
C      1  0.4622740000000  0.5293330000000  0.3890950000000 1.0
C      1  0.5293330000000  0.6109050000000  0.5377260000000 1.0
C      1  0.5293330000000  0.3890950000000  0.4622740000000 1.0
C      1  0.4706670000000  0.3890950000000  0.5377260000000 1.0
C      1  0.3890950000000  0.4622740000000  0.5293330000000 1.0
C      1  0.3890950000000  0.5377260000000  0.4706670000000 1.0
C      1  0.6109050000000  0.5377260000000  0.5293330000000 1.0
C      1  0.3181610000000  0.6670180000000  0.4007740000000 1.0
C      1  0.6670180000000  0.4007740000000  0.3181610000000 1.0
C      1  0.4007740000000  0.3181610000000  0.6670180000000 1.0
C      1  0.6818390000000  0.6670180000000  0.5992260000000 1.0
C      1  0.6818390000000  0.3329820000000  0.4007740000000 1.0
C      1  0.3181610000000  0.3329820000000  0.5992260000000 1.0
C      1  0.3329820000000  0.4007740000000  0.6818390000000 1.0
C      1  0.3329820000000  0.5992260000000  0.3181610000000 1.0
C      1  0.6670180000000  0.5992260000000  0.6818390000000 1.0
C      1  0.5992260000000  0.3181610000000  0.3329820000000 1.0
C      1  0.5992260000000  0.6818390000000  0.6670180000000 1.0
C      1  0.4007740000000  0.6818390000000  0.3329820000000 1.0
C      1  0.7305960000000  0.4596350000000  0.5287990000000 1.0
C      1  0.4596350000000  0.5287990000000  0.7305960000000 1.0
C      1  0.5287990000000  0.7305960000000  0.4596350000000 1.0
C      1  0.2694040000000  0.4596350000000  0.4712010000000 1.0
C      1  0.2694040000000  0.5403650000000  0.5287990000000 1.0
C      1  0.7305960000000  0.5403650000000  0.4712010000000 1.0
C      1  0.5403650000000  0.5287990000000  0.2694040000000 1.0
C      1  0.5403650000000  0.4712010000000  0.7305960000000 1.0
C      1  0.4596350000000  0.4712010000000  0.2694040000000 1.0
C      1  0.4712010000000  0.7305960000000  0.5403650000000 1.0
C      1  0.4712010000000  0.2694040000000  0.4596350000000 1.0
C      1  0.5287990000000  0.2694040000000  0.5403650000000 1.0
END
