TITL C-986976-6631-652 2.8844454548429e-06 3375 -342.13977827681 0 0 60 (C3) n - 1
REM
REM in /home/bkarasulu/work/CARBON/AIRSS/Generating-Clusters/REBO/Higher-Symm/Only-C60
REM
REM
REM
REM
REM
REM ./C.cell (a2850807a9bf4ad07a5b6933b78d9264)
REM AIRSS Version 0.9.1 bugfix July 2018 build 013d7b7c2542+ Fri, 06 Jul 2018 19:26:36 +0100
REM compiler GCC version 9.2.1 20190827 (Red Hat 9.2.1-1)
REM options -cpp -mtune=generic -march=x86-64 -g -O0 -fpre-include=/usr/include/finclude/math-vector-fortran.h
REM seed 2028612241 865473832 1853357684 -568604539 -1163453596 423207137 -501170787 816633417 -2099749455 -1718878551 -331387520 -691713381 1057268172 -1797964337 1927622336 -1448209591 452370167 627714980 1006282674 -968791129 189404955 -404877566 1152986825 -25435842 158424617 -232591736 1997356856 -470030998 -1843730973 -1070214170 933157661 1475893107 1027649840
REM
CELL 1.54180   15.00000   15.00000   15.00000   90.00000   90.00000   90.00000
LATT -1
SFAC C  
C      1  0.5268740000000  0.4597000000000  0.2744760000000 1.0
C      1  0.5268730000000  0.7154590000000  0.5778640000000 1.0
C      1  0.5268560000000  0.3248380000000  0.6476630000000 1.0
C      1  0.5496080000000  0.2905020000000  0.5657640000000 1.0
C      1  0.5496270000000  0.5477950000000  0.2856920000000 1.0
C      1  0.5496180000000  0.6616980000000  0.6485500000000 1.0
C      1  0.4639430000000  0.4942660000000  0.6568340000000 1.0
C      1  0.4639470000000  0.3670460000000  0.4166150000000 1.0
C      1  0.4639560000000  0.6386920000000  0.4265480000000 1.0
C      1  0.4281540000000  0.7530180000000  0.4519720000000 1.0
C      1  0.4281310000000  0.4150860000000  0.7431280000000 1.0
C      1  0.4281440000000  0.3319040000000  0.3048920000000 1.0
C      1  0.4844220000000  0.6225890000000  0.3167790000000 1.0
C      1  0.4844070000000  0.5973800000000  0.6977740000000 1.0
C      1  0.4844040000000  0.2800330000000  0.4854450000000 1.0
C      1  0.3144900000000  0.5482670000000  0.4079090000000 1.0
C      1  0.3144830000000  0.5556240000000  0.5878290000000 1.0
C      1  0.3144800000000  0.3961300000000  0.5042410000000 1.0
C      1  0.4341010000000  0.4331910000000  0.2776740000000 1.0
C      1  0.4341020000000  0.7259460000000  0.5532990000000 1.0
C      1  0.4340840000000  0.3408710000000  0.6690200000000 1.0
C      1  0.3094160000000  0.4382700000000  0.4075080000000 1.0
C      1  0.3094190000000  0.6109700000000  0.4927700000000 1.0
C      1  0.3094090000000  0.4507810000000  0.5997010000000 1.0
C      1  0.6967090000000  0.4580350000000  0.5510170000000 1.0
C      1  0.6967140000000  0.4767960000000  0.4381660000000 1.0
C      1  0.6967150000000  0.5651470000000  0.5108390000000 1.0
C      1  0.5523400000000  0.2683240000000  0.4019510000000 1.0
C      1  0.5523570000000  0.7007500000000  0.3483910000000 1.0
C      1  0.5523360000000  0.5309210000000  0.7496630000000 1.0
C      1  0.5831220000000  0.3908270000000  0.3128790000000 1.0
C      1  0.5831270000000  0.7166370000000  0.4990210000000 1.0
C      1  0.5831090000000  0.3925280000000  0.6881100000000 1.0
C      1  0.7081780000000  0.5562580000000  0.3627810000000 1.0
C      1  0.7081700000000  0.5907020000000  0.6173480000000 1.0
C      1  0.7081650000000  0.3530180000000  0.5198940000000 1.0
C      1  0.5012240000000  0.4508760000000  0.4049520000000 1.0
C      1  0.5012260000000  0.6068760000000  0.5049810000000 1.0
C      1  0.5012170000000  0.4422480000000  0.5900660000000 1.0
C      1  0.6046860000000  0.5618840000000  0.6527620000000 1.0
C      1  0.6046850000000  0.3367600000000  0.4772210000000 1.0
C      1  0.6046980000000  0.6013450000000  0.3700290000000 1.0
C      1  0.5319160000000  0.7526920000000  0.4240300000000 1.0
C      1  0.5318930000000  0.4394450000000  0.7568260000000 1.0
C      1  0.5319040000000  0.3078590000000  0.3191480000000 1.0
C      1  0.5694360000000  0.5160190000000  0.4362290000000 1.0
C      1  0.5694340000000  0.5472160000000  0.5457640000000 1.0
C      1  0.5694310000000  0.4367570000000  0.5180140000000 1.0
C      1  0.3811010000000  0.5958970000000  0.6711410000000 1.0
C      1  0.3810970000000  0.3038420000000  0.4974690000000 1.0
C      1  0.3811140000000  0.6002740000000  0.3313770000000 1.0
C      1  0.6381000000000  0.6423660000000  0.4711900000000 1.0
C      1  0.6380870000000  0.4537650000000  0.6377090000000 1.0
C      1  0.6380940000000  0.4038550000000  0.3911160000000 1.0
C      1  0.3645260000000  0.6585390000000  0.5800690000000 1.0
C      1  0.3645140000000  0.3513920000000  0.5972530000000 1.0
C      1  0.3645290000000  0.4900840000000  0.3226630000000 1.0
C      1  0.3576920000000  0.4866050000000  0.6922800000000 1.0
C      1  0.3576970000000  0.3401810000000  0.3922470000000 1.0
C      1  0.3577090000000  0.6732290000000  0.4154570000000 1.0
END
