TITL C-986973-6940-333 0.0553194347731525 3375 -365.485439104147 0 0 60 (D5) n - 1
REM
REM in /home/bkarasulu/work/CARBON/AIRSS/Generating-Clusters/REBO/Higher-Symm/Only-C60
REM
REM
REM
REM
REM
REM ./C.cell (a2850807a9bf4ad07a5b6933b78d9264)
REM AIRSS Version 0.9.1 bugfix July 2018 build 013d7b7c2542+ Fri, 06 Jul 2018 19:26:36 +0100
REM compiler GCC version 9.2.1 20190827 (Red Hat 9.2.1-1)
REM options -cpp -mtune=generic -march=x86-64 -g -O0 -fpre-include=/usr/include/finclude/math-vector-fortran.h
REM seed -1375812022 2139066857 -357746520 -1071573414 -1339365987 1852475176 593105154 -24712302 1638369455 836120718 1136840871 -2002945937 1829194203 -1329146388 901681520 573081571 -1827084386 266579269 -593138802 213027208 139688045 -627795170 -888105116 1845454272 -480414236 -275868607 515089622 -2053965900 240246030 -822815651 -679827469 -1259778951 629037104
REM
CELL 1.54180   15.00000   15.00000   15.00000   90.00000   90.00000   90.00000
LATT -1
SFAC C  
C      1  0.4507050000000  0.4380000000000  0.4343330000000 1.0
C      1  0.4222950000000  0.4379850000000  0.5266010000000 1.0
C      1  0.5012580000000  0.4379830000000  0.5821250000000 1.0
C      1  0.5784770000000  0.4380030000000  0.5241880000000 1.0
C      1  0.5472400000000  0.4380070000000  0.4328480000000 1.0
C      1  0.4507050000000  0.5620000000000  0.5656670000000 1.0
C      1  0.4222950000000  0.5620150000000  0.4733990000000 1.0
C      1  0.5012580000000  0.5620170000000  0.4178750000000 1.0
C      1  0.5784770000000  0.5619970000000  0.4758120000000 1.0
C      1  0.5472400000000  0.5619930000000  0.5671520000000 1.0
C      1  0.2499180000000  0.5043310000000  0.5552380000000 1.0
C      1  0.4752520000000  0.5043260000000  0.7549180000000 1.0
C      1  0.7347940000000  0.5043260000000  0.6023060000000 1.0
C      1  0.6698660000000  0.5043270000000  0.3083190000000 1.0
C      1  0.3701880000000  0.5043310000000  0.2792260000000 1.0
C      1  0.2499180000000  0.4956690000000  0.4447620000000 1.0
C      1  0.4752520000000  0.4956740000000  0.2450820000000 1.0
C      1  0.7347940000000  0.4956740000000  0.3976940000000 1.0
C      1  0.6698660000000  0.4956730000000  0.6916810000000 1.0
C      1  0.3701880000000  0.4956690000000  0.7207740000000 1.0
C      1  0.6882840000000  0.4215020000000  0.5483950000000 1.0
C      1  0.6042070000000  0.4215150000000  0.3358970000000 1.0
C      1  0.3761220000000  0.4215070000000  0.3501960000000 1.0
C      1  0.3192330000000  0.4214950000000  0.5715320000000 1.0
C      1  0.5121630000000  0.4214920000000  0.6940420000000 1.0
C      1  0.6882840000000  0.5784980000000  0.4516050000000 1.0
C      1  0.6042070000000  0.5784850000000  0.6641030000000 1.0
C      1  0.3761220000000  0.5784930000000  0.6498040000000 1.0
C      1  0.3192330000000  0.5785050000000  0.4284680000000 1.0
C      1  0.5121630000000  0.5785080000000  0.3059580000000 1.0
C      1  0.5244950000000  0.3566970000000  0.3302570000000 1.0
C      1  0.3461180000000  0.3566860000000  0.4242490000000 1.0
C      1  0.3803920000000  0.3566740000000  0.6229570000000 1.0
C      1  0.5799740000000  0.3566780000000  0.6517440000000 1.0
C      1  0.6690150000000  0.3566810000000  0.4708420000000 1.0
C      1  0.5244950000000  0.6433030000000  0.6697430000000 1.0
C      1  0.3461180000000  0.6433140000000  0.5757510000000 1.0
C      1  0.3803920000000  0.6433260000000  0.3770430000000 1.0
C      1  0.5799740000000  0.6433220000000  0.3482560000000 1.0
C      1  0.6690150000000  0.6433190000000  0.5291580000000 1.0
C      1  0.5096450000000  0.6885960000000  0.5849170000000 1.0
C      1  0.5837520000000  0.6886080000000  0.5170570000000 1.0
C      1  0.5421170000000  0.6886210000000  0.4256060000000 1.0
C      1  0.4422760000000  0.6886010000000  0.4369520000000 1.0
C      1  0.4222080000000  0.6885850000000  0.5354060000000 1.0
C      1  0.5096450000000  0.3114040000000  0.4150820000000 1.0
C      1  0.5837520000000  0.3113920000000  0.4829430000000 1.0
C      1  0.5421170000000  0.3113790000000  0.5743940000000 1.0
C      1  0.4422760000000  0.3113990000000  0.5630480000000 1.0
C      1  0.4222080000000  0.3114150000000  0.4645940000000 1.0
C      1  0.6614970000000  0.4032320000000  0.6479740000000 1.0
C      1  0.6906290000000  0.4032340000000  0.3921460000000 1.0
C      1  0.4563280000000  0.4032400000000  0.2853790000000 1.0
C      1  0.2823750000000  0.4032310000000  0.4752210000000 1.0
C      1  0.4091770000000  0.4032260000000  0.6993250000000 1.0
C      1  0.6614970000000  0.5967680000000  0.3520260000000 1.0
C      1  0.6906290000000  0.5967660000000  0.6078540000000 1.0
C      1  0.4563280000000  0.5967600000000  0.7146210000000 1.0
C      1  0.2823750000000  0.5967690000000  0.5247790000000 1.0
C      1  0.4091770000000  0.5967740000000  0.3006750000000 1.0
END
