TITL C-986973-6940-838 -2.99407535286113e-06 3375 -330.740752839285 0 0 60 (C1) n - 1
REM
REM in /home/bkarasulu/work/CARBON/AIRSS/Generating-Clusters/REBO/Higher-Symm/Only-C60
REM
REM
REM
REM
REM
REM ./C.cell (a2850807a9bf4ad07a5b6933b78d9264)
REM AIRSS Version 0.9.1 bugfix July 2018 build 013d7b7c2542+ Fri, 06 Jul 2018 19:26:36 +0100
REM compiler GCC version 9.2.1 20190827 (Red Hat 9.2.1-1)
REM options -cpp -mtune=generic -march=x86-64 -g -O0 -fpre-include=/usr/include/finclude/math-vector-fortran.h
REM seed 493617930 -1136231216 196093727 1008911823 -888759091 -1987597380 -321904694 37108150 83443659 -1309448627 -1024106471 -1828728279 803603862 -1951089577 2059849129 -1064671026 -2077374812 848502104 -2073489837 -609111089 387695312 -511424327 -772821203 -1246214267 -1940173811 -102708536 60610558 1541406148 36024069 -1141796398 -525718688 1310560475 -283548670
REM
CELL 1.54180   15.00000   15.00000   15.00000   90.00000   90.00000   90.00000
LATT -1
SFAC C  
C      1  0.5116180000000  0.4943950000000  0.4374790000000 1.0
C      1  0.5084520000000  0.4462760000000  0.5353340000000 1.0
C      1  0.5098180000000  0.5792290000000  0.5399160000000 1.0
C      1  0.5661160000000  0.6490990000000  0.6547780000000 1.0
C      1  0.5687270000000  0.5663330000000  0.2970550000000 1.0
C      1  0.5663900000000  0.2913710000000  0.5518470000000 1.0
C      1  0.4501460000000  0.5364580000000  0.7000570000000 1.0
C      1  0.4473230000000  0.6560500000000  0.3692000000000 1.0
C      1  0.4444470000000  0.3066280000000  0.4346690000000 1.0
C      1  0.5069180000000  0.2403460000000  0.4858420000000 1.0
C      1  0.5102670000000  0.6143410000000  0.7326820000000 1.0
C      1  0.5099740000000  0.6478120000000  0.2866970000000 1.0
C      1  0.3201300000000  0.3368890000000  0.6751870000000 1.0
C      1  0.3187220000000  0.7265540000000  0.5468710000000 1.0
C      1  0.3305010000000  0.4330670000000  0.2682290000000 1.0
C      1  0.7729240000000  0.4401940000000  0.5229070000000 1.0
C      1  0.7752010000000  0.5533050000000  0.5349750000000 1.0
C      1  0.7737000000000  0.5071340000000  0.4306690000000 1.0
C      1  0.6978640000000  0.4117680000000  0.5962770000000 1.0
C      1  0.6967040000000  0.6290490000000  0.5268030000000 1.0
C      1  0.6917350000000  0.4593230000000  0.3748710000000 1.0
C      1  0.3008990000000  0.3748030000000  0.5149930000000 1.0
C      1  0.3022960000000  0.5714730000000  0.6064600000000 1.0
C      1  0.3095470000000  0.5548460000000  0.3794540000000 1.0
C      1  0.5212650000000  0.6289720000000  0.4440940000000 1.0
C      1  0.5196770000000  0.3830270000000  0.4160450000000 1.0
C      1  0.5228720000000  0.4834630000000  0.6351360000000 1.0
C      1  0.5591200000000  0.7092460000000  0.5009910000000 1.0
C      1  0.5535690000000  0.3829990000000  0.3200320000000 1.0
C      1  0.5599930000000  0.3969530000000  0.6792170000000 1.0
C      1  0.3424340000000  0.6363230000000  0.3398330000000 1.0
C      1  0.3391420000000  0.2972720000000  0.4694400000000 1.0
C      1  0.3438410000000  0.5723160000000  0.6948410000000 1.0
C      1  0.4271860000000  0.4649490000000  0.3189990000000 1.0
C      1  0.4163230000000  0.3552720000000  0.6173980000000 1.0
C      1  0.4156850000000  0.6699880000000  0.5645960000000 1.0
C      1  0.6233790000000  0.4670350000000  0.3075260000000 1.0
C      1  0.6314800000000  0.3553130000000  0.6200830000000 1.0
C      1  0.6305390000000  0.6773000000000  0.5652260000000 1.0
C      1  0.2963830000000  0.4103550000000  0.6072800000000 1.0
C      1  0.2960930000000  0.6282850000000  0.5256610000000 1.0
C      1  0.3027250000000  0.4576290000000  0.3637600000000 1.0
C      1  0.6851600000000  0.5750640000000  0.4401110000000 1.0
C      1  0.6816380000000  0.4175100000000  0.4640960000000 1.0
C      1  0.6887450000000  0.5141760000000  0.5937800000000 1.0
C      1  0.3888100000000  0.4030650000000  0.4069990000000 1.0
C      1  0.3910930000000  0.4653280000000  0.6328210000000 1.0
C      1  0.3896390000000  0.6251870000000  0.4631150000000 1.0
C      1  0.4115890000000  0.4060320000000  0.5159760000000 1.0
C      1  0.4125460000000  0.5567120000000  0.5745420000000 1.0
C      1  0.4188630000000  0.5325540000000  0.4098490000000 1.0
C      1  0.5983450000000  0.5544650000000  0.6053040000000 1.0
C      1  0.5927220000000  0.5604540000000  0.4026080000000 1.0
C      1  0.5933310000000  0.3821580000000  0.4953460000000 1.0
C      1  0.5057400000000  0.3205880000000  0.6388140000000 1.0
C      1  0.5037990000000  0.7077990000000  0.5862750000000 1.0
C      1  0.5148800000000  0.4732610000000  0.2696040000000 1.0
C      1  0.5077960000000  0.1535460000000  0.4735530000000 1.0
C      1  0.5123270000000  0.6451090000000  0.8146940000000 1.0
C      1  0.5108500000000  0.7035530000000  0.2191020000000 1.0
END
