TITL C-986974-580-710 1.94133695320278e-05 3375 -340.647320437179 0 0 60 (C3) n - 1
REM
REM in /home/bkarasulu/work/CARBON/AIRSS/Generating-Clusters/REBO/Higher-Symm/Only-C60
REM
REM
REM
REM
REM
REM ./C.cell (a2850807a9bf4ad07a5b6933b78d9264)
REM AIRSS Version 0.9.1 bugfix July 2018 build 013d7b7c2542+ Fri, 06 Jul 2018 19:26:36 +0100
REM compiler GCC version 9.2.1 20190827 (Red Hat 9.2.1-1)
REM options -cpp -mtune=generic -march=x86-64 -g -O0 -fpre-include=/usr/include/finclude/math-vector-fortran.h
REM seed 1224350863 -312065114 53726978 -1689230656 -1587247179 -556309863 -891945192 -1559299081 -865791690 -1816383850 -846294821 294768375 427021939 141454122 -280069158 1538182030 2131858171 460394052 414291735 1404489438 -2141547850 -1988422419 151570432 960317468 1828613008 -1770717005 756541785 839908329 1343979428 748909976 -2047035430 616757679 255972892
REM
CELL 1.54180   15.00000   15.00000   15.00000   90.00000   90.00000   90.00000
LATT -1
SFAC C  
C      1  0.4534950000000  0.6775770000000  0.4537990000000 1.0
C      1  0.4832390000000  0.6775750000000  0.5633790000000 1.0
C      1  0.5632650000000  0.6775760000000  0.4828300000000 1.0
C      1  0.4531230000000  0.3156520000000  0.5459170000000 1.0
C      1  0.4836720000000  0.3156540000000  0.4364400000000 1.0
C      1  0.5632070000000  0.3156530000000  0.5176340000000 1.0
C      1  0.6588150000000  0.3213630000000  0.4882380000000 1.0
C      1  0.4104100000000  0.3213650000000  0.3683400000000 1.0
C      1  0.4307770000000  0.3213600000000  0.6434130000000 1.0
C      1  0.6601900000000  0.6819590000000  0.5093330000000 1.0
C      1  0.4118240000000  0.6819560000000  0.6340670000000 1.0
C      1  0.4279840000000  0.6819610000000  0.3566090000000 1.0
C      1  0.7260720000000  0.4864110000000  0.6010410000000 1.0
C      1  0.4744680000000  0.4864160000000  0.2536950000000 1.0
C      1  0.2994600000000  0.4864090000000  0.6452630000000 1.0
C      1  0.7315930000000  0.5185080000000  0.3962070000000 1.0
C      1  0.4740910000000  0.5185010000000  0.7524620000000 1.0
C      1  0.2943160000000  0.5185080000000  0.3513320000000 1.0
C      1  0.6856240000000  0.6724850000000  0.5977670000000 1.0
C      1  0.4918530000000  0.6724900000000  0.2903650000000 1.0
C      1  0.3225210000000  0.6724840000000  0.6118760000000 1.0
C      1  0.6843760000000  0.3321510000000  0.4000380000000 1.0
C      1  0.4943800000000  0.3321450000000  0.7096510000000 1.0
C      1  0.3212450000000  0.3321500000000  0.3903040000000 1.0
C      1  0.7684190000000  0.4511130000000  0.4801580000000 1.0
C      1  0.3486070000000  0.4511150000000  0.2774630000000 1.0
C      1  0.3829740000000  0.4511070000000  0.7423770000000 1.0
C      1  0.7689270000000  0.5527850000000  0.5190230000000 1.0
C      1  0.3490620000000  0.5527800000000  0.7233870000000 1.0
C      1  0.3820100000000  0.5527880000000  0.2575920000000 1.0
C      1  0.4674920000000  0.5396760000000  0.4303860000000 1.0
C      1  0.4559660000000  0.5396740000000  0.5629600000000 1.0
C      1  0.5765420000000  0.5396750000000  0.5066550000000 1.0
C      1  0.4600910000000  0.4489510000000  0.5657050000000 1.0
C      1  0.4630520000000  0.4489530000000  0.4325840000000 1.0
C      1  0.5768580000000  0.4489530000000  0.5017080000000 1.0
C      1  0.3952800000000  0.5926640000000  0.4932950000000 1.0
C      1  0.5465520000000  0.5926630000000  0.5940450000000 1.0
C      1  0.5581680000000  0.5926660000000  0.4126650000000 1.0
C      1  0.3942810000000  0.3954810000000  0.4945860000000 1.0
C      1  0.5575470000000  0.3954820000000  0.4111480000000 1.0
C      1  0.5481730000000  0.3954790000000  0.5942600000000 1.0
C      1  0.2828790000000  0.4076500000000  0.3562930000000 1.0
C      1  0.4841070000000  0.4076440000000  0.7598840000000 1.0
C      1  0.7330140000000  0.4076510000000  0.3838190000000 1.0
C      1  0.2838620000000  0.5965090000000  0.6444550000000 1.0
C      1  0.4829670000000  0.5965170000000  0.2405940000000 1.0
C      1  0.7331700000000  0.5965110000000  0.6149550000000 1.0
C      1  0.3454710000000  0.6196990000000  0.3368220000000 1.0
C      1  0.4359450000000  0.6196920000000  0.7154180000000 1.0
C      1  0.7185830000000  0.6196980000000  0.4477670000000 1.0
C      1  0.3507020000000  0.3855550000000  0.6606790000000 1.0
C      1  0.4354950000000  0.3855620000000  0.2903620000000 1.0
C      1  0.7138030000000  0.3855580000000  0.5489540000000 1.0
C      1  0.5405390000000  0.4187640000000  0.3106670000000 1.0
C      1  0.3157640000000  0.4187580000000  0.5595570000000 1.0
C      1  0.6436970000000  0.4187580000000  0.6297720000000 1.0
C      1  0.5414900000000  0.5850500000000  0.6959180000000 1.0
C      1  0.3095860000000  0.5850540000000  0.4379750000000 1.0
C      1  0.6489230000000  0.5850560000000  0.3661120000000 1.0
END
