TITL C-986975-4297-225 0.0242023189359283 3375 -328.20310739563 0 0 60 (C5) n - 1
REM
REM in /home/bkarasulu/work/CARBON/AIRSS/Generating-Clusters/REBO/Higher-Symm/Only-C60
REM
REM
REM
REM
REM
REM ./C.cell (a2850807a9bf4ad07a5b6933b78d9264)
REM AIRSS Version 0.9.1 bugfix July 2018 build 013d7b7c2542+ Fri, 06 Jul 2018 19:26:36 +0100
REM compiler GCC version 9.2.1 20190827 (Red Hat 9.2.1-1)
REM options -cpp -mtune=generic -march=x86-64 -g -O0 -fpre-include=/usr/include/finclude/math-vector-fortran.h
REM seed 1943911085 -923975306 281978182 1255657365 910050183 1483214622 1465500756 -887009457 1187332743 1938518830 -1251343599 -2045502568 -1782984770 1399286810 -417713540 1927225133 -1384984353 1995650966 -1463760228 -510367399 -2112557445 -1998728179 -373413488 -1287239349 32723219 521188552 -2006994386 -1744099972 -929077582 1876095379 -104749672 -353623031 1736334687
REM
CELL 1.54180   15.00000   15.00000   15.00000   90.00000   90.00000   90.00000
LATT -1
SFAC C  
C      1  0.2997460000000  0.6413260000000  0.4157890000000 1.0
C      1  0.5725270000000  0.7341250000000  0.4157890000000 1.0
C      1  0.7450780000000  0.5033710000000  0.4157890000000 1.0
C      1  0.5789400000000  0.2679590000000  0.4157890000000 1.0
C      1  0.3037090000000  0.3532190000000  0.4157890000000 1.0
C      1  0.7002540000000  0.6413260000000  0.4157890000000 1.0
C      1  0.4274730000000  0.7341250000000  0.4157890000000 1.0
C      1  0.2549220000000  0.5033710000000  0.4157890000000 1.0
C      1  0.4210600000000  0.2679590000000  0.4157890000000 1.0
C      1  0.6962910000000  0.3532190000000  0.4157890000000 1.0
C      1  0.4428470000000  0.6795040000000  0.5868340000000 1.0
C      1  0.6530570000000  0.6098250000000  0.5868340000000 1.0
C      1  0.6517470000000  0.3883720000000  0.5868340000000 1.0
C      1  0.4407280000000  0.3211850000000  0.5868340000000 1.0
C      1  0.3116200000000  0.5011140000000  0.5868340000000 1.0
C      1  0.5571530000000  0.6795040000000  0.5868340000000 1.0
C      1  0.3469430000000  0.6098250000000  0.5868340000000 1.0
C      1  0.3482530000000  0.3883720000000  0.5868340000000 1.0
C      1  0.5592720000000  0.3211850000000  0.5868340000000 1.0
C      1  0.6883800000000  0.5011140000000  0.5868340000000 1.0
C      1  0.3615460000000  0.4000560000000  0.3299680000000 1.0
C      1  0.3621630000000  0.6007940000000  0.3299680000000 1.0
C      1  0.5532660000000  0.6622380000000  0.3299680000000 1.0
C      1  0.6707570000000  0.4994750000000  0.3299680000000 1.0
C      1  0.5522670000000  0.3374380000000  0.3299680000000 1.0
C      1  0.6384540000000  0.4000560000000  0.3299680000000 1.0
C      1  0.6378370000000  0.6007940000000  0.3299680000000 1.0
C      1  0.4467340000000  0.6622380000000  0.3299680000000 1.0
C      1  0.3292430000000  0.4994750000000  0.3299680000000 1.0
C      1  0.4477330000000  0.3374380000000  0.3299680000000 1.0
C      1  0.6273550000000  0.5928110000000  0.6935930000000 1.0
C      1  0.6276240000000  0.4075590000000  0.6935930000000 1.0
C      1  0.4515210000000  0.3500570000000  0.6935930000000 1.0
C      1  0.3424150000000  0.4997710000000  0.6935930000000 1.0
C      1  0.4510860000000  0.6498020000000  0.6935930000000 1.0
C      1  0.3726450000000  0.5928110000000  0.6935930000000 1.0
C      1  0.3723760000000  0.4075590000000  0.6935930000000 1.0
C      1  0.5484790000000  0.3500570000000  0.6935930000000 1.0
C      1  0.6575850000000  0.4997710000000  0.6935930000000 1.0
C      1  0.5489140000000  0.6498020000000  0.6935930000000 1.0
C      1  0.6123190000000  0.7406680000000  0.5133020000000 1.0
C      1  0.7635970000000  0.4675490000000  0.5133020000000 1.0
C      1  0.5505930000000  0.2392760000000  0.5133020000000 1.0
C      1  0.2676710000000  0.3713150000000  0.5133020000000 1.0
C      1  0.3058190000000  0.6811920000000  0.5133020000000 1.0
C      1  0.3876810000000  0.7406680000000  0.5133020000000 1.0
C      1  0.2364030000000  0.4675490000000  0.5133020000000 1.0
C      1  0.4494070000000  0.2392760000000  0.5133020000000 1.0
C      1  0.7323290000000  0.3713150000000  0.5133020000000 1.0
C      1  0.6941810000000  0.6811920000000  0.5133020000000 1.0
C      1  0.3815680000000  0.4140120000000  0.4605140000000 1.0
C      1  0.3816230000000  0.5860640000000  0.4605150000000 1.0
C      1  0.5452710000000  0.6391780000000  0.4605150000000 1.0
C      1  0.6463560000000  0.4999530000000  0.4605140000000 1.0
C      1  0.5451820000000  0.3607920000000  0.4605150000000 1.0
C      1  0.6184320000000  0.4140120000000  0.4605140000000 1.0
C      1  0.6183770000000  0.5860640000000  0.4605150000000 1.0
C      1  0.4547290000000  0.6391780000000  0.4605150000000 1.0
C      1  0.3536440000000  0.4999530000000  0.4605140000000 1.0
C      1  0.4548180000000  0.3607920000000  0.4605150000000 1.0
END
