TITL C-986978-6805-1142 7.12141276023472e-06 3375 -353.219676051286 0 0 60 (C5) n - 1
REM
REM in /home/bkarasulu/work/CARBON/AIRSS/Generating-Clusters/REBO/Higher-Symm/Only-C60
REM
REM
REM
REM
REM
REM ./C.cell (a2850807a9bf4ad07a5b6933b78d9264)
REM AIRSS Version 0.9.1 bugfix July 2018 build 013d7b7c2542+ Fri, 06 Jul 2018 19:26:36 +0100
REM compiler GCC version 9.2.1 20190827 (Red Hat 9.2.1-1)
REM options -cpp -mtune=generic -march=x86-64 -g -O0 -fpre-include=/usr/include/finclude/math-vector-fortran.h
REM seed -528541815 1467255332 145485379 -155322769 662001105 578910229 -324485797 1086335854 251625460 1251236655 1349796870 1610600579 188654484 220442529 1488385883 -999842901 -727240102 -510827178 -1516504622 1656106256 370094397 1111622117 1684390119 1233026251 -723226149 926459280 2031106563 1116398546 1556362478 -143091170 -108073709 602931930 405652698
REM
CELL 1.54180   15.00000   15.00000   15.00000   90.00000   90.00000   90.00000
LATT -1
SFAC C  
C      1  0.4465510000000  0.4432080000000  0.2894100000000 1.0
C      1  0.4465690000000  0.6827410000000  0.3809090000000 1.0
C      1  0.4465720000000  0.6697390000000  0.6369950000000 1.0
C      1  0.4465550000000  0.4221680000000  0.7037620000000 1.0
C      1  0.4465420000000  0.2821670000000  0.4889420000000 1.0
C      1  0.3095950000000  0.4507030000000  0.5797020000000 1.0
C      1  0.3095930000000  0.4089840000000  0.4777340000000 1.0
C      1  0.3096000000000  0.4930680000000  0.4065480000000 1.0
C      1  0.3096070000000  0.5867540000000  0.4645190000000 1.0
C      1  0.3096040000000  0.5605720000000  0.5715340000000 1.0
C      1  0.6030050000000  0.5145340000000  0.3271420000000 1.0
C      1  0.6030160000000  0.6688740000000  0.4604120000000 1.0
C      1  0.6030100000000  0.5898240000000  0.6483780000000 1.0
C      1  0.6029960000000  0.3866280000000  0.6312850000000 1.0
C      1  0.6029920000000  0.3400920000000  0.4327490000000 1.0
C      1  0.3026770000000  0.4835010000000  0.6800140000000 1.0
C      1  0.3026640000000  0.3237160000000  0.5399240000000 1.0
C      1  0.3026680000000  0.4075750000000  0.3446700000000 1.0
C      1  0.3026830000000  0.6191840000000  0.3640870000000 1.0
C      1  0.3026890000000  0.6661100000000  0.5713400000000 1.0
C      1  0.5374980000000  0.2821130000000  0.5014690000000 1.0
C      1  0.5375060000000  0.4312680000000  0.2932330000000 1.0
C      1  0.5375240000000  0.6754060000000  0.3707390000000 1.0
C      1  0.5375280000000  0.6771340000000  0.6268800000000 1.0
C      1  0.5375120000000  0.4340640000000  0.7076740000000 1.0
C      1  0.7285440000000  0.5124120000000  0.5839350000000 1.0
C      1  0.7285370000000  0.4239890000000  0.5377540000000 1.0
C      1  0.7285380000000  0.4405860000000  0.4393880000000 1.0
C      1  0.7285450000000  0.5392670000000  0.4247750000000 1.0
C      1  0.7285490000000  0.5836570000000  0.5141110000000 1.0
C      1  0.5284160000000  0.4120720000000  0.4624850000000 1.0
C      1  0.5284210000000  0.5084970000000  0.4047820000000 1.0
C      1  0.5284250000000  0.5931720000000  0.4786550000000 1.0
C      1  0.5284230000000  0.5490810000000  0.5820150000000 1.0
C      1  0.5284170000000  0.4371550000000  0.5720220000000 1.0
C      1  0.4171880000000  0.5377770000000  0.2811110000000 1.0
C      1  0.4172060000000  0.7198610000000  0.4682840000000 1.0
C      1  0.4172000000000  0.5981140000000  0.6992990000000 1.0
C      1  0.4171790000000  0.3407830000000  0.6548950000000 1.0
C      1  0.4171710000000  0.3034970000000  0.3964390000000 1.0
C      1  0.6763420000000  0.5260490000000  0.6642840000000 1.0
C      1  0.6763300000000  0.3517900000000  0.5755510000000 1.0
C      1  0.6763310000000  0.3823310000000  0.3823970000000 1.0
C      1  0.6763440000000  0.5754690000000  0.3517580000000 1.0
C      1  0.6763510000000  0.6642900000000  0.5259750000000 1.0
C      1  0.6425540000000  0.6635300000000  0.3594330000000 1.0
C      1  0.6425590000000  0.6842060000000  0.6120960000000 1.0
C      1  0.6425430000000  0.4503010000000  0.7098360000000 1.0
C      1  0.6425300000000  0.2850620000000  0.5175840000000 1.0
C      1  0.6425360000000  0.4168440000000  0.3010220000000 1.0
C      1  0.3900290000000  0.6230270000000  0.3243790000000 1.0
C      1  0.3900390000000  0.7050560000000  0.5627320000000 1.0
C      1  0.3900270000000  0.5037150000000  0.7144010000000 1.0
C      1  0.3900100000000  0.2972530000000  0.5697810000000 1.0
C      1  0.3900120000000  0.3709940000000  0.3287370000000 1.0
C      1  0.4175930000000  0.5280860000000  0.4133930000000 1.0
C      1  0.4175970000000  0.5910580000000  0.4999460000000 1.0
C      1  0.4175910000000  0.5282030000000  0.5865820000000 1.0
C      1  0.4175830000000  0.4263820000000  0.5535760000000 1.0
C      1  0.4175850000000  0.4263080000000  0.4465380000000 1.0
END
