TITL C-986973-6940-841 1.02283219636563e-05 3375 -326.17952977991 0 0 60 (C3) n - 1
REM
REM in /home/bkarasulu/work/CARBON/AIRSS/Generating-Clusters/REBO/Higher-Symm/Only-C60
REM
REM
REM
REM
REM
REM ./C.cell (a2850807a9bf4ad07a5b6933b78d9264)
REM AIRSS Version 0.9.1 bugfix July 2018 build 013d7b7c2542+ Fri, 06 Jul 2018 19:26:36 +0100
REM compiler GCC version 9.2.1 20190827 (Red Hat 9.2.1-1)
REM options -cpp -mtune=generic -march=x86-64 -g -O0 -fpre-include=/usr/include/finclude/math-vector-fortran.h
REM seed -1068817507 1075183810 -298436711 -84295999 1263837980 1886904668 1775606844 908230962 953188804 430840147 -1982211733 -1144633628 1927452055 1073561850 2143613729 -2130461389 1144267355 -787000547 592528746 1090735674 -496021776 1803864460 140150243 -862291217 -569148836 -1278434256 1908039756 -1044265370 -943934470 -1829235250 1869629473 1412735672 20402802
REM
CELL 1.54180   15.00000   15.00000   15.00000   90.00000   90.00000   90.00000
LATT -1
SFAC C  
C      1  0.4052620000000  0.6471800000000  0.4324040000000 1.0
C      1  0.5805260000000  0.6568110000000  0.5640030000000 1.0
C      1  0.6748290000000  0.5084570000000  0.4324000000000 1.0
C      1  0.5955400000000  0.3518560000000  0.5639990000000 1.0
C      1  0.4199080000000  0.3443670000000  0.4323980000000 1.0
C      1  0.3239350000000  0.4913300000000  0.5640010000000 1.0
C      1  0.2935310000000  0.3826580000000  0.5750050000000 1.0
C      1  0.3002440000000  0.6239870000000  0.3969060000000 1.0
C      1  0.5016150000000  0.7374770000000  0.5750110000000 1.0
C      1  0.7072520000000  0.6110030000000  0.3969040000000 1.0
C      1  0.7048550000000  0.3798620000000  0.5750040000000 1.0
C      1  0.4925040000000  0.2650160000000  0.3968990000000 1.0
C      1  0.5632680000000  0.5437420000000  0.6890870000000 1.0
C      1  0.5698360000000  0.4679140000000  0.3123930000000 1.0
C      1  0.5062510000000  0.4233320000000  0.6890850000000 1.0
C      1  0.4372910000000  0.4555660000000  0.3123940000000 1.0
C      1  0.4304810000000  0.5329150000000  0.6890870000000 1.0
C      1  0.4928700000000  0.5765280000000  0.3123960000000 1.0
C      1  0.4781310000000  0.4265210000000  0.4585150000000 1.0
C      1  0.4254790000000  0.4818340000000  0.5423770000000 1.0
C      1  0.4472990000000  0.5556790000000  0.4585170000000 1.0
C      1  0.5215300000000  0.5736190000000  0.5423780000000 1.0
C      1  0.5745690000000  0.5178020000000  0.4585160000000 1.0
C      1  0.5529920000000  0.4445440000000  0.5423760000000 1.0
C      1  0.7166230000000  0.4084110000000  0.4420490000000 1.0
C      1  0.5234200000000  0.2729000000000  0.5724290000000 1.0
C      1  0.3123690000000  0.3581950000000  0.4420490000000 1.0
C      1  0.2916170000000  0.5932660000000  0.5724350000000 1.0
C      1  0.4710080000000  0.7333980000000  0.4420550000000 1.0
C      1  0.6849640000000  0.6338310000000  0.5724340000000 1.0
C      1  0.5364830000000  0.7375900000000  0.3635840000000 1.0
C      1  0.7028360000000  0.5807720000000  0.6513790000000 1.0
C      1  0.6875150000000  0.3496120000000  0.3635780000000 1.0
C      1  0.4685350000000  0.2839510000000  0.6513750000000 1.0
C      1  0.2760010000000  0.4128050000000  0.3635790000000 1.0
C      1  0.3286310000000  0.6352700000000  0.6513820000000 1.0
C      1  0.5883530000000  0.3189280000000  0.3777320000000 1.0
C      1  0.3775460000000  0.3359280000000  0.6281730000000 1.0
C      1  0.2990080000000  0.5140240000000  0.3777360000000 1.0
C      1  0.4191390000000  0.6880800000000  0.6281790000000 1.0
C      1  0.6126380000000  0.6670550000000  0.3777370000000 1.0
C      1  0.7033150000000  0.4759850000000  0.6281750000000 1.0
C      1  0.5768170000000  0.2576380000000  0.4729300000000 1.0
C      1  0.3457270000000  0.2928400000000  0.5289870000000 1.0
C      1  0.2516990000000  0.5546560000000  0.4729360000000 1.0
C      1  0.3977310000000  0.7371840000000  0.5289950000000 1.0
C      1  0.6714840000000  0.6877080000000  0.4729360000000 1.0
C      1  0.7565420000000  0.4699750000000  0.5289890000000 1.0
C      1  0.3161090000000  0.6680240000000  0.4989570000000 1.0
C      1  0.5735170000000  0.7407000000000  0.4905010000000 1.0
C      1  0.7374580000000  0.5752420000000  0.4989530000000 1.0
C      1  0.6716940000000  0.3159830000000  0.4904940000000 1.0
C      1  0.4464330000000  0.2567340000000  0.4989490000000 1.0
C      1  0.2547900000000  0.4433180000000  0.4904970000000 1.0
C      1  0.5456370000000  0.4146380000000  0.3779440000000 1.0
C      1  0.4469510000000  0.4176090000000  0.6246400000000 1.0
C      1  0.4032530000000  0.5031600000000  0.3779460000000 1.0
C      1  0.4551740000000  0.5871340000000  0.6246430000000 1.0
C      1  0.5511080000000  0.5822070000000  0.3779470000000 1.0
C      1  0.5978750000000  0.4952500000000  0.6246420000000 1.0
END
