TITL C-986975-4297-425 -0.000215512586358662 3375 -332.984385257218 0 0 60 (C1) n - 1
REM
REM in /home/bkarasulu/work/CARBON/AIRSS/Generating-Clusters/REBO/Higher-Symm/Only-C60
REM
REM
REM
REM
REM
REM ./C.cell (a2850807a9bf4ad07a5b6933b78d9264)
REM AIRSS Version 0.9.1 bugfix July 2018 build 013d7b7c2542+ Fri, 06 Jul 2018 19:26:36 +0100
REM compiler GCC version 9.2.1 20190827 (Red Hat 9.2.1-1)
REM options -cpp -mtune=generic -march=x86-64 -g -O0 -fpre-include=/usr/include/finclude/math-vector-fortran.h
REM seed -885791318 1985650217 -2070377376 -184277681 915529374 -1728988517 874521745 341144476 -193172422 1845369222 -419845043 215972616 1543588856 1178270707 352459607 -1703538843 -1631087454 1668229660 324405883 -1656538942 -1012905191 -914487511 -999057001 -670711349 244374023 -1418744941 -1901153853 1083003019 1571841298 -116415724 -434596693 645180606 -838112587
REM
CELL 1.54180   15.00000   15.00000   15.00000   90.00000   90.00000   90.00000
LATT -1
SFAC C  
C      1  0.3761820000000  0.7229130000000  0.4197690000000 1.0
C      1  0.2781900000000  0.4337330000000  0.3419650000000 1.0
C      1  0.4664860000000  0.2472860000000  0.4601470000000 1.0
C      1  0.6935730000000  0.4084840000000  0.3229600000000 1.0
C      1  0.6896290000000  0.6783240000000  0.4354170000000 1.0
C      1  0.5533100000000  0.7540000000000  0.4075400000000 1.0
C      1  0.3058150000000  0.6110580000000  0.3303880000000 1.0
C      1  0.3101430000000  0.3270540000000  0.4582070000000 1.0
C      1  0.5659550000000  0.2833770000000  0.3375980000000 1.0
C      1  0.7543280000000  0.5129490000000  0.4278450000000 1.0
C      1  0.6398260000000  0.4452560000000  0.6824530000000 1.0
C      1  0.5989520000000  0.6165230000000  0.6803520000000 1.0
C      1  0.4234170000000  0.6311140000000  0.6824370000000 1.0
C      1  0.3556100000000  0.4686620000000  0.6853770000000 1.0
C      1  0.4892770000000  0.3539270000000  0.6852160000000 1.0
C      1  0.3366450000000  0.3113800000000  0.6107500000000 1.0
C      1  0.6316310000000  0.2867530000000  0.6082800000000 1.0
C      1  0.7460720000000  0.5602060000000  0.6038090000000 1.0
C      1  0.5208970000000  0.7524420000000  0.6022120000000 1.0
C      1  0.2676050000000  0.5994220000000  0.6088080000000 1.0
C      1  0.3595990000000  0.5614180000000  0.6292030000000 1.0
C      1  0.4014850000000  0.3869210000000  0.6310120000000 1.0
C      1  0.5803210000000  0.3719650000000  0.6290320000000 1.0
C      1  0.6496320000000  0.5374230000000  0.6262190000000 1.0
C      1  0.5129880000000  0.6539690000000  0.6259490000000 1.0
C      1  0.7309170000000  0.7592040000000  0.4310340000000 1.0
C      1  0.3025140000000  0.7750580000000  0.4286480000000 1.0
C      1  0.2155090000000  0.3786480000000  0.3063570000000 1.0
C      1  0.4955860000000  0.1619940000000  0.4703720000000 1.0
C      1  0.7703410000000  0.4126570000000  0.2746000000000 1.0
C      1  0.5970730000000  0.6721920000000  0.4218370000000 1.0
C      1  0.3693500000000  0.6318090000000  0.3956490000000 1.0
C      1  0.3333290000000  0.4059360000000  0.4117380000000 1.0
C      1  0.5163210000000  0.3110660000000  0.4115070000000 1.0
C      1  0.6792510000000  0.4666140000000  0.3948220000000 1.0
C      1  0.5894420000000  0.5215910000000  0.5453340000000 1.0
C      1  0.5066460000000  0.5909210000000  0.5457110000000 1.0
C      1  0.4151220000000  0.5370820000000  0.5468150000000 1.0
C      1  0.4406350000000  0.4330040000000  0.5488770000000 1.0
C      1  0.5476750000000  0.4233820000000  0.5468000000000 1.0
C      1  0.4152200000000  0.4550060000000  0.4421860000000 1.0
C      1  0.5142050000000  0.4063500000000  0.4413880000000 1.0
C      1  0.5911250000000  0.4864170000000  0.4378810000000 1.0
C      1  0.5425890000000  0.5888230000000  0.4407530000000 1.0
C      1  0.4315400000000  0.5659660000000  0.4386450000000 1.0
C      1  0.4154170000000  0.5402360000000  0.7483540000000 1.0
C      1  0.4409770000000  0.4327730000000  0.7497080000000 1.0
C      1  0.5510830000000  0.4236790000000  0.7483220000000 1.0
C      1  0.5936170000000  0.5255800000000  0.7465440000000 1.0
C      1  0.5098040000000  0.5975880000000  0.7466300000000 1.0
C      1  0.4620520000000  0.7574870000000  0.4231520000000 1.0
C      1  0.2869860000000  0.5217710000000  0.3145350000000 1.0
C      1  0.3813970000000  0.2743030000000  0.4879020000000 1.0
C      1  0.6300660000000  0.3428600000000  0.3064850000000 1.0
C      1  0.7386110000000  0.6012090000000  0.4519540000000 1.0
C      1  0.6000780000000  0.8278620000000  0.3830070000000 1.0
C      1  0.2614500000000  0.6769630000000  0.2863730000000 1.0
C      1  0.2239470000000  0.2997230000000  0.4653040000000 1.0
C      1  0.5551940000000  0.2010560000000  0.3010810000000 1.0
C      1  0.8373620000000  0.4766310000000  0.4267480000000 1.0
END
