TITL C-986975-4297-1196 0.00719038174877677 3375 -328.780528579054 0 0 60 (C2) n - 1
REM
REM in /home/bkarasulu/work/CARBON/AIRSS/Generating-Clusters/REBO/Higher-Symm/Only-C60
REM
REM
REM
REM
REM
REM ./C.cell (a2850807a9bf4ad07a5b6933b78d9264)
REM AIRSS Version 0.9.1 bugfix July 2018 build 013d7b7c2542+ Fri, 06 Jul 2018 19:26:36 +0100
REM compiler GCC version 9.2.1 20190827 (Red Hat 9.2.1-1)
REM options -cpp -mtune=generic -march=x86-64 -g -O0 -fpre-include=/usr/include/finclude/math-vector-fortran.h
REM seed -161484356 -1898478938 -945177492 -1678246760 1497745330 -2048710623 417958016 -157922160 -213159293 1478104974 -905619616 -323687228 2013452632 -61808459 -1062731389 728782509 -626593318 592376315 1572913157 -1514579456 -677441138 -1575274034 451141477 1534659759 -1453121720 -361772714 1290900858 1983738522 -1156330249 -2139511018 543800180 -708917313 1160994876
REM
CELL 1.54180   15.00000   15.00000   15.00000   90.00000   90.00000   90.00000
LATT -1
SFAC C  
C      1  0.5782970000000  0.7231140000000  0.5936080000000 1.0
C      1  0.4217030000000  0.2768860000000  0.5936080000000 1.0
C      1  0.4440210000000  0.7848870000000  0.4928760000000 1.0
C      1  0.5559790000000  0.2151130000000  0.4928760000000 1.0
C      1  0.2705810000000  0.4792140000000  0.4588460000000 1.0
C      1  0.7294190000000  0.5207860000000  0.4588450000000 1.0
C      1  0.5138320000000  0.2318070000000  0.4024900000000 1.0
C      1  0.4861680000000  0.7681930000000  0.4024900000000 1.0
C      1  0.4334370000000  0.6851220000000  0.3541070000000 1.0
C      1  0.5665630000000  0.3148780000000  0.3541070000000 1.0
C      1  0.4212030000000  0.6454900000000  0.5820680000000 1.0
C      1  0.5787970000000  0.3545100000000  0.5820680000000 1.0
C      1  0.3293800000000  0.4055790000000  0.5953690000000 1.0
C      1  0.6706200000000  0.5944210000000  0.5953690000000 1.0
C      1  0.5238980000000  0.6007780000000  0.7031690000000 1.0
C      1  0.4761020000000  0.3992220000000  0.7031690000000 1.0
C      1  0.4698230000000  0.7413580000000  0.5793570000000 1.0
C      1  0.5301770000000  0.2586420000000  0.5793570000000 1.0
C      1  0.6840930000000  0.4592000000000  0.5313870000000 1.0
C      1  0.3159070000000  0.5408000000000  0.5313870000000 1.0
C      1  0.5792370000000  0.5656440000000  0.3268060000000 1.0
C      1  0.4207630000000  0.4343560000000  0.3268060000000 1.0
C      1  0.5004770000000  0.4535000000000  0.7768100000000 1.0
C      1  0.4995230000000  0.5465000000000  0.7768100000000 1.0
C      1  0.4888380000000  0.3128490000000  0.6711150000000 1.0
C      1  0.5111620000000  0.6871510000000  0.6711150000000 1.0
C      1  0.6680620000000  0.4051460000000  0.6304320000000 1.0
C      1  0.3319380000000  0.5948540000000  0.6304320000000 1.0
C      1  0.3639140000000  0.6133370000000  0.4093200000000 1.0
C      1  0.6360850000000  0.3866640000000  0.4093200000000 1.0
C      1  0.3517060000000  0.5546200000000  0.2343850000000 1.0
C      1  0.6482940000000  0.4453800000000  0.2343850000000 1.0
C      1  0.6534790000000  0.5855940000000  0.4071200000000 1.0
C      1  0.3465210000000  0.4144060000000  0.4071200000000 1.0
C      1  0.4997970000000  0.5887170000000  0.5440620000000 1.0
C      1  0.5002030000000  0.4112830000000  0.5440620000000 1.0
C      1  0.6649060000000  0.3518930000000  0.5112990000000 1.0
C      1  0.3350940000000  0.6481070000000  0.5112990000000 1.0
C      1  0.6468780000000  0.6742350000000  0.5502310000000 1.0
C      1  0.3531220000000  0.3257650000000  0.5502310000000 1.0
C      1  0.3485630000000  0.3247830000000  0.4544980000000 1.0
C      1  0.6514370000000  0.6752170000000  0.4544980000000 1.0
C      1  0.6473690000000  0.7534430000000  0.4058710000000 1.0
C      1  0.3526310000000  0.2465570000000  0.4058710000000 1.0
C      1  0.4152650000000  0.5259640000000  0.2943610000000 1.0
C      1  0.5847350000000  0.4740360000000  0.2943610000000 1.0
C      1  0.3936770000000  0.5157520000000  0.4269480000000 1.0
C      1  0.6063230000000  0.4842490000000  0.4269490000000 1.0
C      1  0.5217390000000  0.4086340000000  0.3445830000000 1.0
C      1  0.4782610000000  0.5913650000000  0.3445830000000 1.0
C      1  0.4939170000000  0.5532040000000  0.4456270000000 1.0
C      1  0.5060820000000  0.4467950000000  0.4456270000000 1.0
C      1  0.4202660000000  0.4500980000000  0.6422730000000 1.0
C      1  0.5797340000000  0.5499020000000  0.6422730000000 1.0
C      1  0.6774940000000  0.5023250000000  0.6568860000000 1.0
C      1  0.3225060000000  0.4976750000000  0.6568860000000 1.0
C      1  0.5844570000000  0.5136960000000  0.5348190000000 1.0
C      1  0.4155430000000  0.4863030000000  0.5348180000000 1.0
C      1  0.6330160000000  0.2757950000000  0.4392770000000 1.0
C      1  0.3669840000000  0.7242060000000  0.4392770000000 1.0
END
