TITL C-986978-6805-564 -5.40597323912882e-06 3375 -361.666066610728 0 0 60 (C1) n - 1
REM
REM in /home/bkarasulu/work/CARBON/AIRSS/Generating-Clusters/REBO/Higher-Symm/Only-C60
REM
REM
REM
REM
REM
REM ./C.cell (a2850807a9bf4ad07a5b6933b78d9264)
REM AIRSS Version 0.9.1 bugfix July 2018 build 013d7b7c2542+ Fri, 06 Jul 2018 19:26:36 +0100
REM compiler GCC version 9.2.1 20190827 (Red Hat 9.2.1-1)
REM options -cpp -mtune=generic -march=x86-64 -g -O0 -fpre-include=/usr/include/finclude/math-vector-fortran.h
REM seed 185379941 1092085518 -283499520 -1336891500 -333844470 -742813001 194129535 -1166972003 2093593683 882431897 -1658900556 -878998070 1620760483 798804984 950200404 61235944 -2043974771 1174287753 571510189 -1644350543 2110386715 -2113892031 1582365684 -5670283 1577588177 1005754479 1136977441 1467238909 -1326231373 -689476067 1896991031 -861887962 1562662653
REM
CELL 1.54180   15.00000   15.00000   15.00000   90.00000   90.00000   90.00000
LATT -1
SFAC C  
C      1  0.3036200000000  0.4578580000000  0.6822440000000 1.0
C      1  0.2954300000000  0.6796450000000  0.4509180000000 1.0
C      1  0.3052970000000  0.3650500000000  0.3687960000000 1.0
C      1  0.7245730000000  0.3840750000000  0.3944680000000 1.0
C      1  0.7225050000000  0.4649830000000  0.6510960000000 1.0
C      1  0.7212760000000  0.6466870000000  0.4523420000000 1.0
C      1  0.7101940000000  0.3943460000000  0.5744390000000 1.0
C      1  0.7099870000000  0.6162330000000  0.5523350000000 1.0
C      1  0.7129060000000  0.4860850000000  0.3710430000000 1.0
C      1  0.4613150000000  0.4011940000000  0.5112170000000 1.0
C      1  0.4613820000000  0.5594890000000  0.5804240000000 1.0
C      1  0.4625580000000  0.5397560000000  0.4093680000000 1.0
C      1  0.4778420000000  0.4244520000000  0.7071050000000 1.0
C      1  0.4768030000000  0.7166090000000  0.4600390000000 1.0
C      1  0.4796800000000  0.3591690000000  0.3306420000000 1.0
C      1  0.4019650000000  0.2533820000000  0.4646300000000 1.0
C      1  0.4029770000000  0.5945950000000  0.7313570000000 1.0
C      1  0.3901420000000  0.6560780000000  0.3098450000000 1.0
C      1  0.7552620000000  0.4342640000000  0.4854260000000 1.0
C      1  0.7545180000000  0.5188090000000  0.5628840000000 1.0
C      1  0.7553620000000  0.5437780000000  0.4510020000000 1.0
C      1  0.6173780000000  0.3652620000000  0.5741510000000 1.0
C      1  0.6178970000000  0.6317710000000  0.5785610000000 1.0
C      1  0.6200180000000  0.5005400000000  0.3486500000000 1.0
C      1  0.3354500000000  0.2899550000000  0.4100840000000 1.0
C      1  0.3352150000000  0.5303680000000  0.7268930000000 1.0
C      1  0.3261820000000  0.6813300000000  0.3656220000000 1.0
C      1  0.3273810000000  0.3990240000000  0.6122810000000 1.0
C      1  0.3258730000000  0.6481310000000  0.5343720000000 1.0
C      1  0.3303040000000  0.4549190000000  0.3537150000000 1.0
C      1  0.4298290000000  0.6628050000000  0.6582160000000 1.0
C      1  0.4348770000000  0.5603680000000  0.2807420000000 1.0
C      1  0.4281440000000  0.2821470000000  0.5606190000000 1.0
C      1  0.3642350000000  0.5015620000000  0.4340560000000 1.0
C      1  0.3631500000000  0.4436370000000  0.5314970000000 1.0
C      1  0.3633850000000  0.5566250000000  0.5331320000000 1.0
C      1  0.5812490000000  0.4223270000000  0.3871690000000 1.0
C      1  0.5794590000000  0.4382550000000  0.6235550000000 1.0
C      1  0.5790120000000  0.6387400000000  0.4912500000000 1.0
C      1  0.6377350000000  0.3396860000000  0.3849890000000 1.0
C      1  0.6364730000000  0.4792240000000  0.6949350000000 1.0
C      1  0.6348380000000  0.6784100000000  0.4185120000000 1.0
C      1  0.4338620000000  0.3417030000000  0.7118940000000 1.0
C      1  0.4332210000000  0.7627020000000  0.5293790000000 1.0
C      1  0.4372240000000  0.3975980000000  0.2561430000000 1.0
C      1  0.3822580000000  0.7057720000000  0.5872290000000 1.0
C      1  0.3850740000000  0.4742570000000  0.2778760000000 1.0
C      1  0.3816080000000  0.3222220000000  0.6340460000000 1.0
C      1  0.5385570000000  0.5536120000000  0.3263570000000 1.0
C      1  0.5338630000000  0.3189760000000  0.5404770000000 1.0
C      1  0.5349830000000  0.6256490000000  0.6360580000000 1.0
C      1  0.4811860000000  0.6056320000000  0.4833060000000 1.0
C      1  0.4826380000000  0.4323640000000  0.4175600000000 1.0
C      1  0.4812900000000  0.4623100000000  0.6000110000000 1.0
C      1  0.5422040000000  0.7107540000000  0.3854010000000 1.0
C      1  0.5438350000000  0.2953010000000  0.3738280000000 1.0
C      1  0.5433820000000  0.4928660000000  0.7394940000000 1.0
C      1  0.5053270000000  0.5798510000000  0.7292190000000 1.0
C      1  0.5012450000000  0.6554900000000  0.3130340000000 1.0
C      1  0.5045630000000  0.2613190000000  0.4540610000000 1.0
END
