TITL C-986973-6940-52 -6.9143006697038e-06 3375 -331.941451804048 0 0 60 (C3) n - 1
REM
REM in /home/bkarasulu/work/CARBON/AIRSS/Generating-Clusters/REBO/Higher-Symm/Only-C60
REM
REM
REM
REM
REM
REM ./C.cell (a2850807a9bf4ad07a5b6933b78d9264)
REM AIRSS Version 0.9.1 bugfix July 2018 build 013d7b7c2542+ Fri, 06 Jul 2018 19:26:36 +0100
REM compiler GCC version 9.2.1 20190827 (Red Hat 9.2.1-1)
REM options -cpp -mtune=generic -march=x86-64 -g -O0 -fpre-include=/usr/include/finclude/math-vector-fortran.h
REM seed 1053818812 1264816681 1586123126 -388280630 658622010 -2042865869 1329638916 1788651373 -1998727638 -596936046 1756850126 -965766249 -1233120328 -985034085 -1387491146 -1043223611 -1091855703 -1209780178 1511925015 -956523881 805342203 217058422 1038993391 -2107672850 -630581868 851634076 -821071387 777493534 -226469050 -2036151059 -1797919656 -445380902 -957130157
REM
CELL 1.54180   15.00000   15.00000   15.00000   90.00000   90.00000   90.00000
LATT -1
SFAC C  
C      1  0.7021420000000  0.5364020000000  0.4994520000000 1.0
C      1  0.4304540000000  0.3067430000000  0.4985890000000 1.0
C      1  0.3674070000000  0.6568610000000  0.4993280000000 1.0
C      1  0.3285060000000  0.5578750000000  0.6412040000000 1.0
C      1  0.6358950000000  0.6189390000000  0.6417190000000 1.0
C      1  0.5350850000000  0.3222000000000  0.6409060000000 1.0
C      1  0.4120190000000  0.4107050000000  0.5013100000000 1.0
C      1  0.4666590000000  0.6208340000000  0.5018650000000 1.0
C      1  0.6213170000000  0.4684490000000  0.5016980000000 1.0
C      1  0.3204280000000  0.6115540000000  0.4228920000000 1.0
C      1  0.6863790000000  0.6000870000000  0.4233090000000 1.0
C      1  0.4934730000000  0.2888980000000  0.4223510000000 1.0
C      1  0.3495670000000  0.3540900000000  0.6038230000000 1.0
C      1  0.4488750000000  0.7027610000000  0.6047550000000 1.0
C      1  0.7011800000000  0.4424210000000  0.6044550000000 1.0
C      1  0.3895630000000  0.3815360000000  0.3040700000000 1.0
C      1  0.4525870000000  0.6557610000000  0.3047850000000 1.0
C      1  0.6585610000000  0.4640680000000  0.3045880000000 1.0
C      1  0.6274080000000  0.3791070000000  0.6371920000000 1.0
C      1  0.3316270000000  0.4494850000000  0.6369970000000 1.0
C      1  0.5404660000000  0.6704490000000  0.6377640000000 1.0
C      1  0.7387990000000  0.4103660000000  0.5219600000000 1.0
C      1  0.3029800000000  0.3379130000000  0.5212630000000 1.0
C      1  0.4581420000000  0.7515690000000  0.5224140000000 1.0
C      1  0.7969750000000  0.4775020000000  0.4791280000000 1.0
C      1  0.3320260000000  0.2541580000000  0.4780460000000 1.0
C      1  0.3710770000000  0.7684880000000  0.4792890000000 1.0
C      1  0.5182460000000  0.3966530000000  0.7082270000000 1.0
C      1  0.4014170000000  0.5349260000000  0.7084080000000 1.0
C      1  0.5795800000000  0.5669660000000  0.7086980000000 1.0
C      1  0.5933390000000  0.4704450000000  0.6887600000000 1.0
C      1  0.4277730000000  0.4330870000000  0.6884720000000 1.0
C      1  0.4782030000000  0.5951510000000  0.6889100000000 1.0
C      1  0.2982060000000  0.5133130000000  0.4143300000000 1.0
C      1  0.6124090000000  0.6684900000000  0.4150710000000 1.0
C      1  0.5896950000000  0.3187940000000  0.4142300000000 1.0
C      1  0.5550260000000  0.3499370000000  0.3221890000000 1.0
C      1  0.3424930000000  0.5281840000000  0.3223470000000 1.0
C      1  0.6031260000000  0.6231190000000  0.3228830000000 1.0
C      1  0.2788510000000  0.7140290000000  0.6357060000000 1.0
C      1  0.7959550000000  0.5838900000000  0.6360290000000 1.0
C      1  0.4247010000000  0.2011350000000  0.6346890000000 1.0
C      1  0.6865060000000  0.5564950000000  0.3280010000000 1.0
C      1  0.4556390000000  0.3110170000000  0.3271510000000 1.0
C      1  0.3584810000000  0.6336920000000  0.3277840000000 1.0
C      1  0.3155290000000  0.3971020000000  0.3518470000000 1.0
C      1  0.5030920000000  0.7118760000000  0.3528060000000 1.0
C      1  0.6819140000000  0.3920540000000  0.3522780000000 1.0
C      1  0.5606310000000  0.4790410000000  0.5800070000000 1.0
C      1  0.4515490000000  0.4576090000000  0.5798250000000 1.0
C      1  0.4875290000000  0.5627930000000  0.5801130000000 1.0
C      1  0.4511630000000  0.5437640000000  0.2951990000000 1.0
C      1  0.5622780000000  0.5213420000000  0.2952810000000 1.0
C      1  0.4873030000000  0.4363240000000  0.2949930000000 1.0
C      1  0.7107730000000  0.5561750000000  0.6070270000000 1.0
C      1  0.4432840000000  0.2888940000000  0.6060810000000 1.0
C      1  0.3455560000000  0.6541870000000  0.6068130000000 1.0
C      1  0.5259050000000  0.7011780000000  0.4573970000000 1.0
C      1  0.6612650000000  0.3771720000000  0.4568070000000 1.0
C      1  0.3129870000000  0.4219510000000  0.4564900000000 1.0
END
