TITL C-986976-6631-239 4.24597729501367e-06 3375 -335.731371943745 0 0 60 (Ci) n - 1
REM
REM in /home/bkarasulu/work/CARBON/AIRSS/Generating-Clusters/REBO/Higher-Symm/Only-C60
REM
REM
REM
REM
REM
REM ./C.cell (a2850807a9bf4ad07a5b6933b78d9264)
REM AIRSS Version 0.9.1 bugfix July 2018 build 013d7b7c2542+ Fri, 06 Jul 2018 19:26:36 +0100
REM compiler GCC version 9.2.1 20190827 (Red Hat 9.2.1-1)
REM options -cpp -mtune=generic -march=x86-64 -g -O0 -fpre-include=/usr/include/finclude/math-vector-fortran.h
REM seed -219466484 -620147417 -882025132 -846843771 -1106860700 26297285 792192259 -936785851 -1816271905 -261392277 1995419585 405551086 -1711074859 2123149966 967215454 -2049433910 2013385403 -143350730 -2078138927 1026715979 -920428157 1941586373 176759800 -310596294 177416342 -555978620 84096540 1596923879 -14584807 -540677962 1294627800 -1939239904 -2107205524
REM
CELL 1.54180   15.00000   15.00000   15.00000   90.00000   90.00000   90.00000
LATT -1
SFAC C  
C      1  0.2713480000000  0.4432550000000  0.5238950000000 1.0
C      1  0.6465720000000  0.3616560000000  0.5321680000000 1.0
C      1  0.5528320000000  0.6856990000000  0.5428280000000 1.0
C      1  0.7104260000000  0.4533050000000  0.4612380000000 1.0
C      1  0.3490250000000  0.3563710000000  0.4614270000000 1.0
C      1  0.4511860000000  0.6795910000000  0.4628100000000 1.0
C      1  0.7286520000000  0.5567450000000  0.4761050000000 1.0
C      1  0.3534280000000  0.6383440000000  0.4678320000000 1.0
C      1  0.4471680000000  0.3143010000000  0.4571720000000 1.0
C      1  0.2895740000000  0.5466950000000  0.5387620000000 1.0
C      1  0.6509750000000  0.6436290000000  0.5385730000000 1.0
C      1  0.5488140000000  0.3204090000000  0.5371900000000 1.0
C      1  0.5828440000000  0.5499350000000  0.6951270000000 1.0
C      1  0.4170190000000  0.5487600000000  0.7217840000000 1.0
C      1  0.5007260000000  0.4087840000000  0.6981010000000 1.0
C      1  0.4184100000000  0.5445870000000  0.3093750000000 1.0
C      1  0.5842560000000  0.5423380000000  0.2822140000000 1.0
C      1  0.4970000000000  0.4013290000000  0.2935400000000 1.0
C      1  0.4171560000000  0.4500650000000  0.3048730000000 1.0
C      1  0.5829810000000  0.4512400000000  0.2782160000000 1.0
C      1  0.4992740000000  0.5912160000000  0.3018990000000 1.0
C      1  0.5815900000000  0.4554140000000  0.6906250000000 1.0
C      1  0.4157440000000  0.4576620000000  0.7177860000000 1.0
C      1  0.5030000000000  0.5986710000000  0.7064600000000 1.0
C      1  0.6217420000000  0.5492050000000  0.4357110000000 1.0
C      1  0.4210500000000  0.5478940000000  0.4424610000000 1.0
C      1  0.5153450000000  0.3992020000000  0.4253270000000 1.0
C      1  0.3901060000000  0.5553080000000  0.5756990000000 1.0
C      1  0.5804860000000  0.5557770000000  0.5621640000000 1.0
C      1  0.4800460000000  0.4056700000000  0.5664650000000 1.0
C      1  0.3782580000000  0.4507950000000  0.5642890000000 1.0
C      1  0.5789500000000  0.4521060000000  0.5575390000000 1.0
C      1  0.4846550000000  0.6007980000000  0.5746730000000 1.0
C      1  0.6098940000000  0.4446920000000  0.4243010000000 1.0
C      1  0.4195140000000  0.4442230000000  0.4378360000000 1.0
C      1  0.5199540000000  0.5943300000000  0.4335350000000 1.0
C      1  0.3199300000000  0.6676880000000  0.5692330000000 1.0
C      1  0.4161740000000  0.2899850000000  0.5547690000000 1.0
C      1  0.7439350000000  0.5580990000000  0.5808430000000 1.0
C      1  0.6820010000000  0.6677120000000  0.4341380000000 1.0
C      1  0.5823520000000  0.2863130000000  0.4434920000000 1.0
C      1  0.2671350000000  0.5423590000000  0.4359610000000 1.0
C      1  0.6800700000000  0.3323120000000  0.4307670000000 1.0
C      1  0.5838260000000  0.7100150000000  0.4452310000000 1.0
C      1  0.2560650000000  0.4419010000000  0.4191570000000 1.0
C      1  0.3179990000000  0.3322880000000  0.5658620000000 1.0
C      1  0.4176480000000  0.7136870000000  0.5565080000000 1.0
C      1  0.7328650000000  0.4576410000000  0.5640390000000 1.0
C      1  0.6595770000000  0.4132310000000  0.6301100000000 1.0
C      1  0.4810090000000  0.6909710000000  0.6477520000000 1.0
C      1  0.3807620000000  0.3767270000000  0.6496260000000 1.0
C      1  0.3391670000000  0.4067480000000  0.3625230000000 1.0
C      1  0.5222580000000  0.6823160000000  0.3572840000000 1.0
C      1  0.6157520000000  0.3677960000000  0.3438610000000 1.0
C      1  0.3404230000000  0.5867690000000  0.3698900000000 1.0
C      1  0.5189910000000  0.3090290000000  0.3522480000000 1.0
C      1  0.6192380000000  0.6232730000000  0.3503740000000 1.0
C      1  0.6608330000000  0.5932520000000  0.6374770000000 1.0
C      1  0.4777420000000  0.3176840000000  0.6427160000000 1.0
C      1  0.3842480000000  0.6322040000000  0.6561390000000 1.0
END
