TITL C-986973-6940-987 0.0372942018500009 3375 -337.196945939854 0 0 60 (C1) n - 1
REM
REM in /home/bkarasulu/work/CARBON/AIRSS/Generating-Clusters/REBO/Higher-Symm/Only-C60
REM
REM
REM
REM
REM
REM ./C.cell (a2850807a9bf4ad07a5b6933b78d9264)
REM AIRSS Version 0.9.1 bugfix July 2018 build 013d7b7c2542+ Fri, 06 Jul 2018 19:26:36 +0100
REM compiler GCC version 9.2.1 20190827 (Red Hat 9.2.1-1)
REM options -cpp -mtune=generic -march=x86-64 -g -O0 -fpre-include=/usr/include/finclude/math-vector-fortran.h
REM seed 98869056 -722765420 -269693453 -1783962346 -472191418 1646467472 2020339641 84938996 1793058439 -1088359889 -2033945472 2022096566 241605191 2128230941 -1735519033 1320151439 139026756 677378097 -1781587801 862296216 -1427685022 2097489205 816456932 -614300902 -1189789815 -798264936 -137774792 -65287067 1786032062 1431592616 2062497336 404713197 -654047346
REM
CELL 1.54180   15.00000   15.00000   15.00000   90.00000   90.00000   90.00000
LATT -1
SFAC C  
C      1  0.4573760000000  0.3710650000000  0.4295110000000 1.0
C      1  0.4309450000000  0.4967770000000  0.3237220000000 1.0
C      1  0.4277650000000  0.6610370000000  0.4383260000000 1.0
C      1  0.4304840000000  0.5982680000000  0.6400160000000 1.0
C      1  0.4472910000000  0.4148580000000  0.6121110000000 1.0
C      1  0.3598830000000  0.3671960000000  0.6031430000000 1.0
C      1  0.3629820000000  0.3645390000000  0.3927250000000 1.0
C      1  0.3485400000000  0.5587960000000  0.3372180000000 1.0
C      1  0.3423410000000  0.6743700000000  0.5043080000000 1.0
C      1  0.3425270000000  0.5573410000000  0.6647410000000 1.0
C      1  0.6040580000000  0.5037230000000  0.6547660000000 1.0
C      1  0.5939530000000  0.3617970000000  0.5461120000000 1.0
C      1  0.6035570000000  0.4658360000000  0.4316790000000 1.0
C      1  0.6435130000000  0.5706410000000  0.3606590000000 1.0
C      1  0.6340650000000  0.6393110000000  0.5128370000000 1.0
C      1  0.5798940000000  0.5927560000000  0.7202220000000 1.0
C      1  0.5811120000000  0.3319470000000  0.6543160000000 1.0
C      1  0.5729250000000  0.3200650000000  0.3870710000000 1.0
C      1  0.5816230000000  0.5264830000000  0.2750930000000 1.0
C      1  0.5781020000000  0.7266900000000  0.4678460000000 1.0
C      1  0.4583370000000  0.6195960000000  0.5357540000000 1.0
C      1  0.5001390000000  0.5129500000000  0.6255460000000 1.0
C      1  0.5082480000000  0.4068050000000  0.5190980000000 1.0
C      1  0.5089610000000  0.4650390000000  0.4000490000000 1.0
C      1  0.4575260000000  0.5612960000000  0.4136170000000 1.0
C      1  0.3685880000000  0.6423530000000  0.3062490000000 1.0
C      1  0.3719600000000  0.7263110000000  0.5788090000000 1.0
C      1  0.3572130000000  0.4949780000000  0.7352360000000 1.0
C      1  0.3699570000000  0.2787570000000  0.5826230000000 1.0
C      1  0.3630560000000  0.3504590000000  0.3024120000000 1.0
C      1  0.2907020000000  0.5946670000000  0.5109170000000 1.0
C      1  0.2851230000000  0.5385940000000  0.5910870000000 1.0
C      1  0.2899320000000  0.4297640000000  0.5596200000000 1.0
C      1  0.2953690000000  0.4215270000000  0.4457590000000 1.0
C      1  0.3000980000000  0.5326500000000  0.4213050000000 1.0
C      1  0.5488500000000  0.2623500000000  0.5700980000000 1.0
C      1  0.5344150000000  0.3503170000000  0.3077970000000 1.0
C      1  0.5546420000000  0.6265880000000  0.3219340000000 1.0
C      1  0.5545970000000  0.6936800000000  0.5738530000000 1.0
C      1  0.5421680000000  0.4893520000000  0.7494470000000 1.0
C      1  0.5167450000000  0.7037310000000  0.3960090000000 1.0
C      1  0.5189490000000  0.6550500000000  0.6745440000000 1.0
C      1  0.5123730000000  0.3920240000000  0.6983630000000 1.0
C      1  0.5098410000000  0.2796180000000  0.4642160000000 1.0
C      1  0.5140290000000  0.4549870000000  0.2676650000000 1.0
C      1  0.6872380000000  0.7279240000000  0.4707800000000 1.0
C      1  0.6787320000000  0.5811530000000  0.6718320000000 1.0
C      1  0.6723580000000  0.3832800000000  0.6191390000000 1.0
C      1  0.6377660000000  0.3812290000000  0.4216890000000 1.0
C      1  0.6892840000000  0.5093420000000  0.2833400000000 1.0
C      1  0.4433380000000  0.3664970000000  0.2560230000000 1.0
C      1  0.4528660000000  0.6735560000000  0.3080860000000 1.0
C      1  0.4541430000000  0.7267640000000  0.6148360000000 1.0
C      1  0.4358890000000  0.4559200000000  0.7529490000000 1.0
C      1  0.4431430000000  0.2405210000000  0.5465950000000 1.0
C      1  0.8182790000000  0.4811210000000  0.5236440000000 1.0
C      1  0.6563470000000  0.5549740000000  0.4636050000000 1.0
C      1  0.7468280000000  0.5183000000000  0.4962750000000 1.0
C      1  0.3666580000000  0.4860490000000  0.5010630000000 1.0
C      1  0.4657060000000  0.5083870000000  0.5182210000000 1.0
END
