TITL C-986974-580-343 1.03044581363622e-05 3375 -356.443380378464 0 0 60 (C1) n - 1
REM
REM in /home/bkarasulu/work/CARBON/AIRSS/Generating-Clusters/REBO/Higher-Symm/Only-C60
REM
REM
REM
REM
REM
REM ./C.cell (a2850807a9bf4ad07a5b6933b78d9264)
REM AIRSS Version 0.9.1 bugfix July 2018 build 013d7b7c2542+ Fri, 06 Jul 2018 19:26:36 +0100
REM compiler GCC version 9.2.1 20190827 (Red Hat 9.2.1-1)
REM options -cpp -mtune=generic -march=x86-64 -g -O0 -fpre-include=/usr/include/finclude/math-vector-fortran.h
REM seed 456364962 -1508001965 -693927527 -1786507036 -427533776 1537724871 -558991000 2029696475 419010363 1875243730 -327541906 448567613 1001374196 2075956701 635908473 -1536403922 708786892 780330709 597765510 -2128880492 -1169137480 1655707766 -1476446304 -961681076 -1917547593 135751449 487614850 -1587118381 -1620312981 935354088 1142127645 1497567131 -1165716674
REM
CELL 1.54180   15.00000   15.00000   15.00000   90.00000   90.00000   90.00000
LATT -1
SFAC C  
C      1  0.6164010000000  0.5154420000000  0.3320410000000 1.0
C      1  0.6269880000000  0.3373980000000  0.4290050000000 1.0
C      1  0.6266490000000  0.3824640000000  0.6262900000000 1.0
C      1  0.6101340000000  0.5742460000000  0.6425700000000 1.0
C      1  0.6083550000000  0.6540890000000  0.4686500000000 1.0
C      1  0.5400020000000  0.5600810000000  0.7183350000000 1.0
C      1  0.5402170000000  0.7213230000000  0.5110020000000 1.0
C      1  0.5406630000000  0.5807930000000  0.2933630000000 1.0
C      1  0.5422050000000  0.3330810000000  0.3615300000000 1.0
C      1  0.5418030000000  0.3185670000000  0.6200850000000 1.0
C      1  0.3941210000000  0.4640950000000  0.3203060000000 1.0
C      1  0.3962520000000  0.3213220000000  0.4807210000000 1.0
C      1  0.3959450000000  0.4283500000000  0.6665840000000 1.0
C      1  0.3958120000000  0.6377090000000  0.6225760000000 1.0
C      1  0.3941950000000  0.6610280000000  0.4077800000000 1.0
C      1  0.4300980000000  0.7295500000000  0.4905150000000 1.0
C      1  0.4297670000000  0.5638200000000  0.2798920000000 1.0
C      1  0.4322200000000  0.3133510000000  0.3740180000000 1.0
C      1  0.4319890000000  0.3246570000000  0.6411660000000 1.0
C      1  0.4300030000000  0.5818680000000  0.7145950000000 1.0
C      1  0.7224210000000  0.3395150000000  0.4866030000000 1.0
C      1  0.7186260000000  0.4389120000000  0.6490680000000 1.0
C      1  0.7046670000000  0.6221740000000  0.6070960000000 1.0
C      1  0.7060170000000  0.6369740000000  0.4169650000000 1.0
C      1  0.7144030000000  0.4622930000000  0.3419020000000 1.0
C      1  0.7056310000000  0.6557310000000  0.5221910000000 1.0
C      1  0.7111410000000  0.5685580000000  0.3564660000000 1.0
C      1  0.7200660000000  0.3838000000000  0.3885270000000 1.0
C      1  0.7232080000000  0.3603400000000  0.5755290000000 1.0
C      1  0.7111790000000  0.5293130000000  0.6588320000000 1.0
C      1  0.4997430000000  0.6995070000000  0.4065830000000 1.0
C      1  0.4993470000000  0.4752620000000  0.2831480000000 1.0
C      1  0.5026610000000  0.2919390000000  0.4597170000000 1.0
C      1  0.5019830000000  0.3985390000000  0.6908540000000 1.0
C      1  0.5017440000000  0.6499440000000  0.6590910000000 1.0
C      1  0.5628820000000  0.5290420000000  0.5655500000000 1.0
C      1  0.5619600000000  0.5652230000000  0.4792620000000 1.0
C      1  0.5633580000000  0.4943000000000  0.4172720000000 1.0
C      1  0.5644020000000  0.4125820000000  0.4661780000000 1.0
C      1  0.5649250000000  0.4347460000000  0.5590580000000 1.0
C      1  0.3504600000000  0.5676990000000  0.5665970000000 1.0
C      1  0.3496140000000  0.5862350000000  0.4579890000000 1.0
C      1  0.3493390000000  0.4886590000000  0.4068390000000 1.0
C      1  0.3501400000000  0.4102920000000  0.4840960000000 1.0
C      1  0.3506900000000  0.4591290000000  0.5824980000000 1.0
C      1  0.2413040000000  0.5222040000000  0.4149130000000 1.0
C      1  0.2417920000000  0.4270030000000  0.4549770000000 1.0
C      1  0.2424650000000  0.4357420000000  0.5578840000000 1.0
C      1  0.2424300000000  0.5363410000000  0.5813910000000 1.0
C      1  0.2418380000000  0.5896950000000  0.4930620000000 1.0
C      1  0.5487870000000  0.7118370000000  0.6069370000000 1.0
C      1  0.5491450000000  0.6672580000000  0.3342920000000 1.0
C      1  0.5505870000000  0.3984310000000  0.2927360000000 1.0
C      1  0.5496830000000  0.2712100000000  0.5368430000000 1.0
C      1  0.5465310000000  0.4652530000000  0.7390520000000 1.0
C      1  0.3835660000000  0.2836830000000  0.5703840000000 1.0
C      1  0.3814780000000  0.5015590000000  0.7301720000000 1.0
C      1  0.3820580000000  0.7205880000000  0.5720120000000 1.0
C      1  0.3812540000000  0.6383480000000  0.3132780000000 1.0
C      1  0.3826570000000  0.3669030000000  0.3131320000000 1.0
END
