TITL C-986974-580-41 5.74385639725836e-06 3375 -331.873931842984 0 0 60 (C3) n - 1
REM
REM in /home/bkarasulu/work/CARBON/AIRSS/Generating-Clusters/REBO/Higher-Symm/Only-C60
REM
REM
REM
REM
REM
REM ./C.cell (a2850807a9bf4ad07a5b6933b78d9264)
REM AIRSS Version 0.9.1 bugfix July 2018 build 013d7b7c2542+ Fri, 06 Jul 2018 19:26:36 +0100
REM compiler GCC version 9.2.1 20190827 (Red Hat 9.2.1-1)
REM options -cpp -mtune=generic -march=x86-64 -g -O0 -fpre-include=/usr/include/finclude/math-vector-fortran.h
REM seed 1918222678 -1675386503 -332230387 -1584097325 -2027911561 1315381583 907970788 997581742 260912461 -863375785 178004900 455292040 -1827147702 -2051387049 576020527 94450450 -899418546 -1755561488 -978887710 -926430918 -1448465107 -159762225 1186292049 21210327 -1918567134 1021461166 1666935280 -1359156517 -552858654 2076473007 1309808843 310631318 312910399
REM
CELL 1.54180   15.00000   15.00000   15.00000   90.00000   90.00000   90.00000
LATT -1
SFAC C  
C      1  0.3437800000000  0.5462290000000  0.4519780000000 1.0
C      1  0.3437810000000  0.4352940000000  0.4839800000000 1.0
C      1  0.3437820000000  0.5184760000000  0.5640510000000 1.0
C      1  0.3974650000000  0.4399530000000  0.3921020000000 1.0
C      1  0.3974680000000  0.4365790000000  0.6059540000000 1.0
C      1  0.3974660000000  0.6234680000000  0.5019490000000 1.0
C      1  0.5020180000000  0.2467350000000  0.3626160000000 1.0
C      1  0.5020250000000  0.5076540000000  0.7880250000000 1.0
C      1  0.5020170000000  0.7456100000000  0.3493580000000 1.0
C      1  0.3521540000000  0.5194200000000  0.2611440000000 1.0
C      1  0.3521600000000  0.2834320000000  0.6026130000000 1.0
C      1  0.3521610000000  0.6971470000000  0.6362510000000 1.0
C      1  0.4496080000000  0.4811460000000  0.2269100000000 1.0
C      1  0.4496160000000  0.2729230000000  0.6528740000000 1.0
C      1  0.4496150000000  0.7459300000000  0.6202190000000 1.0
C      1  0.4693280000000  0.3597460000000  0.4689520000000 1.0
C      1  0.4693310000000  0.5432380000000  0.6369890000000 1.0
C      1  0.4693270000000  0.5970160000000  0.3940610000000 1.0
C      1  0.6289280000000  0.6309220000000  0.6014240000000 1.0
C      1  0.6289240000000  0.5223770000000  0.3359030000000 1.0
C      1  0.6289280000000  0.3467020000000  0.5626660000000 1.0
C      1  0.5641160000000  0.5648340000000  0.4905170000000 1.0
C      1  0.5641160000000  0.4593720000000  0.4485920000000 1.0
C      1  0.5641180000000  0.4757950000000  0.5608870000000 1.0
C      1  0.6907110000000  0.5992570000000  0.5111980000000 1.0
C      1  0.6907090000000  0.4600730000000  0.4084370000000 1.0
C      1  0.6907120000000  0.4406710000000  0.5803540000000 1.0
C      1  0.6853840000000  0.4033520000000  0.4815370000000 1.0
C      1  0.6853860000000  0.5323370000000  0.5929260000000 1.0
C      1  0.6853830000000  0.5643110000000  0.4255270000000 1.0
C      1  0.5702650000000  0.2875680000000  0.4209870000000 1.0
C      1  0.5702700000000  0.5377900000000  0.7234760000000 1.0
C      1  0.5702630000000  0.6746420000000  0.3555330000000 1.0
C      1  0.4620720000000  0.6964340000000  0.4435450000000 1.0
C      1  0.4620710000000  0.3528900000000  0.3581120000000 1.0
C      1  0.4620770000000  0.4506750000000  0.6983460000000 1.0
C      1  0.5517920000000  0.3929880000000  0.3021870000000 1.0
C      1  0.5517990000000  0.3821960000000  0.6915800000000 1.0
C      1  0.5517950000000  0.7248160000000  0.5062300000000 1.0
C      1  0.3815490000000  0.3543680000000  0.6764520000000 1.0
C      1  0.3815460000000  0.7256260000000  0.5378980000000 1.0
C      1  0.3815420000000  0.4200060000000  0.2856560000000 1.0
C      1  0.4414280000000  0.2681720000000  0.5067670000000 1.0
C      1  0.4414310000000  0.6217730000000  0.6973870000000 1.0
C      1  0.4414240000000  0.6100550000000  0.2958490000000 1.0
C      1  0.3475240000000  0.3319410000000  0.5132670000000 1.0
C      1  0.3475260000000  0.5955170000000  0.6389140000000 1.0
C      1  0.3475210000000  0.5725420000000  0.3478270000000 1.0
C      1  0.5546270000000  0.2726730000000  0.5215650000000 1.0
C      1  0.5546290000000  0.6323400000000  0.6860870000000 1.0
C      1  0.5546220000000  0.5949870000000  0.2923450000000 1.0
C      1  0.5457720000000  0.7091140000000  0.6076440000000 1.0
C      1  0.5457660000000  0.4886660000000  0.2650780000000 1.0
C      1  0.5457730000000  0.3022200000000  0.6272750000000 1.0
C      1  0.4743330000000  0.5050060000000  0.4133860000000 1.0
C      1  0.4743360000000  0.4224870000000  0.5389720000000 1.0
C      1  0.4743360000000  0.5725070000000  0.5476430000000 1.0
C      1  0.5871300000000  0.6517050000000  0.4462090000000 1.0
C      1  0.5871290000000  0.3775650000000  0.3955130000000 1.0
C      1  0.5871340000000  0.4707300000000  0.6582730000000 1.0
END
