TITL C-986978-6805-18 8.89921422756805e-06 3375 -330.107350808531 0 0 60 (C4v) n - 1
REM
REM in /home/bkarasulu/work/CARBON/AIRSS/Generating-Clusters/REBO/Higher-Symm/Only-C60
REM
REM
REM
REM
REM
REM ./C.cell (a2850807a9bf4ad07a5b6933b78d9264)
REM AIRSS Version 0.9.1 bugfix July 2018 build 013d7b7c2542+ Fri, 06 Jul 2018 19:26:36 +0100
REM compiler GCC version 9.2.1 20190827 (Red Hat 9.2.1-1)
REM options -cpp -mtune=generic -march=x86-64 -g -O0 -fpre-include=/usr/include/finclude/math-vector-fortran.h
REM seed -998986537 -1147387954 1385233015 1152003402 1967506927 2088161747 212254702 -861276748 -756110889 265674022 -591274206 1304404670 -692314021 1580517377 876360091 -1635580683 194978097 1852981806 945341407 991072432 -1450343525 1535347702 587151110 -1587155363 -305643381 8789492 1230428138 -665398677 757988236 1941346234 -597362883 -509291810 1399289799
REM
CELL 1.54180   15.00000   15.00000   15.00000   90.00000   90.00000   90.00000
LATT -1
SFAC C  
C      1  0.3767100000000  0.5571100000000  0.7124940000000 1.0
C      1  0.3767100000000  0.2875060000000  0.5571100000000 1.0
C      1  0.3767100000000  0.4428900000000  0.2875060000000 1.0
C      1  0.3767100000000  0.7124940000000  0.4428900000000 1.0
C      1  0.3767100000000  0.5571100000000  0.2875060000000 1.0
C      1  0.3767100000000  0.2875060000000  0.4428900000000 1.0
C      1  0.3767100000000  0.4428900000000  0.7124940000000 1.0
C      1  0.3767100000000  0.7124940000000  0.5571100000000 1.0
C      1  0.4400980000000  0.3743400000000  0.4455590000000 1.0
C      1  0.4400980000000  0.5544410000000  0.3743400000000 1.0
C      1  0.4400980000000  0.6256600000000  0.5544410000000 1.0
C      1  0.4400980000000  0.4455590000000  0.6256600000000 1.0
C      1  0.4400980000000  0.3743400000000  0.5544410000000 1.0
C      1  0.4400980000000  0.5544410000000  0.6256600000000 1.0
C      1  0.4400980000000  0.6256600000000  0.4455590000000 1.0
C      1  0.4400980000000  0.4455590000000  0.3743400000000 1.0
C      1  0.5706910000000  0.7476980000000  0.4509780000000 1.0
C      1  0.5706910000000  0.5490220000000  0.7476980000000 1.0
C      1  0.5706910000000  0.2523020000000  0.5490220000000 1.0
C      1  0.5706910000000  0.4509780000000  0.2523020000000 1.0
C      1  0.5706910000000  0.7476980000000  0.5490220000000 1.0
C      1  0.5706910000000  0.5490220000000  0.2523020000000 1.0
C      1  0.5706910000000  0.2523020000000  0.4509780000000 1.0
C      1  0.5706910000000  0.4509780000000  0.7476980000000 1.0
C      1  0.4815490000000  0.4174500000000  0.2510150000000 1.0
C      1  0.4815490000000  0.7489850000000  0.4174500000000 1.0
C      1  0.4815490000000  0.5825500000000  0.7489850000000 1.0
C      1  0.4815490000000  0.2510150000000  0.5825500000000 1.0
C      1  0.4815490000000  0.4174500000000  0.7489850000000 1.0
C      1  0.4815490000000  0.7489850000000  0.5825500000000 1.0
C      1  0.4815490000000  0.5825500000000  0.2510150000000 1.0
C      1  0.4815490000000  0.2510150000000  0.4174500000000 1.0
C      1  0.6378040000000  0.6607810000000  0.5799890000000 1.0
C      1  0.6378040000000  0.4200110000000  0.6607810000000 1.0
C      1  0.6378040000000  0.3392190000000  0.4200110000000 1.0
C      1  0.6378040000000  0.5799890000000  0.3392190000000 1.0
C      1  0.6378040000000  0.6607810000000  0.4200110000000 1.0
C      1  0.6378040000000  0.4200110000000  0.3392190000000 1.0
C      1  0.6378040000000  0.3392190000000  0.5799890000000 1.0
C      1  0.6378040000000  0.5799890000000  0.6607810000000 1.0
C      1  0.3076260000000  0.6207560000000  0.5529790000000 1.0
C      1  0.3076260000000  0.4470210000000  0.6207560000000 1.0
C      1  0.3076260000000  0.3792440000000  0.4470210000000 1.0
C      1  0.3076260000000  0.5529790000000  0.3792440000000 1.0
C      1  0.3076260000000  0.6207560000000  0.4470210000000 1.0
C      1  0.3076260000000  0.4470210000000  0.3792440000000 1.0
C      1  0.3076260000000  0.3792440000000  0.5529790000000 1.0
C      1  0.3076260000000  0.5529790000000  0.6207560000000 1.0
C      1  0.5443000000000  0.6181500000000  0.4518220000000 1.0
C      1  0.5443000000000  0.5481780000000  0.6181500000000 1.0
C      1  0.5443000000000  0.3818500000000  0.5481780000000 1.0
C      1  0.5443000000000  0.4518220000000  0.3818500000000 1.0
C      1  0.5443000000000  0.6181500000000  0.5481780000000 1.0
C      1  0.5443000000000  0.5481780000000  0.3818500000000 1.0
C      1  0.5443000000000  0.3818500000000  0.4518220000000 1.0
C      1  0.5443000000000  0.4518220000000  0.6181500000000 1.0
C      1  0.6626670000000  0.5000000000000  0.5811730000000 1.0
C      1  0.6626670000000  0.4188270000000  0.5000000000000 1.0
C      1  0.6626670000000  0.5000000000000  0.4188270000000 1.0
C      1  0.6626670000000  0.5811730000000  0.5000000000000 1.0
END
