TITL C-986975-4297-940 0.00350384095760061 3375 -332.398256448467 0 0 60 (C1) n - 1
REM
REM in /home/bkarasulu/work/CARBON/AIRSS/Generating-Clusters/REBO/Higher-Symm/Only-C60
REM
REM
REM
REM
REM
REM ./C.cell (a2850807a9bf4ad07a5b6933b78d9264)
REM AIRSS Version 0.9.1 bugfix July 2018 build 013d7b7c2542+ Fri, 06 Jul 2018 19:26:36 +0100
REM compiler GCC version 9.2.1 20190827 (Red Hat 9.2.1-1)
REM options -cpp -mtune=generic -march=x86-64 -g -O0 -fpre-include=/usr/include/finclude/math-vector-fortran.h
REM seed -1794312137 -165406739 1584921941 1957851774 51970271 1255043858 2114040377 595118809 -1630923477 1053026362 -67262089 2139687663 -680799920 -574261741 -2067368609 -1612479712 -1841999211 917956970 -871576792 -159354306 -255972887 -342643033 -2088815610 1969560947 1800814205 1694744076 -269879302 -664649247 1554579394 2105828904 1775695673 -1286725263 1176955569
REM
CELL 1.54180   15.00000   15.00000   15.00000   90.00000   90.00000   90.00000
LATT -1
SFAC C  
C      1  0.4517260000000  0.3981900000000  0.4728480000000 1.0
C      1  0.4412420000000  0.4940910000000  0.4256120000000 1.0
C      1  0.4626390000000  0.5696640000000  0.4977030000000 1.0
C      1  0.4561240000000  0.5224550000000  0.5958180000000 1.0
C      1  0.4377240000000  0.4173190000000  0.5750260000000 1.0
C      1  0.5558110000000  0.4313750000000  0.4482830000000 1.0
C      1  0.5473920000000  0.5277870000000  0.4042340000000 1.0
C      1  0.5732200000000  0.5968130000000  0.4840340000000 1.0
C      1  0.5667090000000  0.5400160000000  0.5745970000000 1.0
C      1  0.5490910000000  0.4364820000000  0.5551150000000 1.0
C      1  0.3563380000000  0.4066500000000  0.3280020000000 1.0
C      1  0.3597350000000  0.6340820000000  0.3549150000000 1.0
C      1  0.3682750000000  0.6675130000000  0.5903140000000 1.0
C      1  0.3667140000000  0.4756510000000  0.6881730000000 1.0
C      1  0.3640930000000  0.3126330000000  0.5378780000000 1.0
C      1  0.6312330000000  0.4156430000000  0.3295100000000 1.0
C      1  0.6431780000000  0.6438570000000  0.3619000000000 1.0
C      1  0.6411920000000  0.6887020000000  0.5739850000000 1.0
C      1  0.6254950000000  0.4936750000000  0.6901320000000 1.0
C      1  0.6217880000000  0.3251130000000  0.5406940000000 1.0
C      1  0.6846850000000  0.4792900000000  0.4080580000000 1.0
C      1  0.6997180000000  0.5848850000000  0.4442630000000 1.0
C      1  0.6910790000000  0.5869030000000  0.5562690000000 1.0
C      1  0.6841810000000  0.4809050000000  0.5923060000000 1.0
C      1  0.6798880000000  0.4146650000000  0.5003870000000 1.0
C      1  0.3107420000000  0.4755880000000  0.4081750000000 1.0
C      1  0.3131500000000  0.5824010000000  0.4467180000000 1.0
C      1  0.3029070000000  0.5768640000000  0.5596010000000 1.0
C      1  0.3095540000000  0.4697490000000  0.5893640000000 1.0
C      1  0.3153720000000  0.4075920000000  0.4975500000000 1.0
C      1  0.4577720000000  0.6913170000000  0.6347380000000 1.0
C      1  0.4463780000000  0.4287370000000  0.7071430000000 1.0
C      1  0.4506230000000  0.2638900000000  0.5324080000000 1.0
C      1  0.4434470000000  0.3956930000000  0.2754170000000 1.0
C      1  0.4448810000000  0.6776460000000  0.3522300000000 1.0
C      1  0.5614650000000  0.6924260000000  0.6208020000000 1.0
C      1  0.5477640000000  0.4481510000000  0.7061080000000 1.0
C      1  0.5447910000000  0.2904580000000  0.5036940000000 1.0
C      1  0.5462700000000  0.4119500000000  0.2735890000000 1.0
C      1  0.5490640000000  0.6890740000000  0.3510280000000 1.0
C      1  0.5757500000000  0.7045720000000  0.4590340000000 1.0
C      1  0.5406620000000  0.5942840000000  0.6694040000000 1.0
C      1  0.5382910000000  0.3603800000000  0.6395920000000 1.0
C      1  0.5408040000000  0.3286610000000  0.4021190000000 1.0
C      1  0.5584280000000  0.5208410000000  0.2932230000000 1.0
C      1  0.4700540000000  0.6753860000000  0.4565450000000 1.0
C      1  0.4324630000000  0.5907970000000  0.6779340000000 1.0
C      1  0.4312850000000  0.3337240000000  0.6513630000000 1.0
C      1  0.4363720000000  0.2974250000000  0.4269860000000 1.0
C      1  0.4534040000000  0.4970580000000  0.3149530000000 1.0
C      1  0.3282300000000  0.5731710000000  0.6690520000000 1.0
C      1  0.3261000000000  0.3644040000000  0.6221780000000 1.0
C      1  0.3469140000000  0.3480900000000  0.4090660000000 1.0
C      1  0.3590780000000  0.5376440000000  0.3309560000000 1.0
C      1  0.3716440000000  0.6661230000000  0.4907410000000 1.0
C      1  0.6537540000000  0.5898070000000  0.6612580000000 1.0
C      1  0.6483720000000  0.3807690000000  0.6243430000000 1.0
C      1  0.6518500000000  0.3510130000000  0.4108390000000 1.0
C      1  0.6521970000000  0.5492410000000  0.3263060000000 1.0
C      1  0.6808970000000  0.6907150000000  0.4754870000000 1.0
END
