TITL C-986978-6805-859 5.7551988617872e-06 3375 -356.672662454994 0 0 60 (D2) n - 1
REM
REM in /home/bkarasulu/work/CARBON/AIRSS/Generating-Clusters/REBO/Higher-Symm/Only-C60
REM
REM
REM
REM
REM
REM ./C.cell (a2850807a9bf4ad07a5b6933b78d9264)
REM AIRSS Version 0.9.1 bugfix July 2018 build 013d7b7c2542+ Fri, 06 Jul 2018 19:26:36 +0100
REM compiler GCC version 9.2.1 20190827 (Red Hat 9.2.1-1)
REM options -cpp -mtune=generic -march=x86-64 -g -O0 -fpre-include=/usr/include/finclude/math-vector-fortran.h
REM seed -1415539549 2130635630 437772769 -907670851 -1885469851 333870111 1039531613 -1732488319 1535248504 -1053426175 -114315820 973674964 -1906021680 -1823720037 -2128991347 309381605 -942673120 2014267811 -1439710175 -1015052868 2136278388 -54918598 -8413194 1638060119 -1044714778 2146448308 1396471732 -1401549254 538058169 -1581762879 1402022024 1898381434 1699715179
REM
CELL 1.54180   15.00000   15.00000   15.00000   90.00000   90.00000   90.00000
LATT -1
SFAC C  
C      1  0.5454450000000  0.6655580000000  0.4518280000000 1.0
C      1  0.4545550000000  0.6655580000000  0.5481720000000 1.0
C      1  0.4545550000000  0.3344420000000  0.4518280000000 1.0
C      1  0.5454450000000  0.3344420000000  0.5481720000000 1.0
C      1  0.3651680000000  0.4705960000000  0.3114420000000 1.0
C      1  0.6348320000000  0.4705960000000  0.6885580000000 1.0
C      1  0.6348320000000  0.5294040000000  0.3114420000000 1.0
C      1  0.3651680000000  0.5294040000000  0.6885580000000 1.0
C      1  0.4103660000000  0.7242310000000  0.6362270000000 1.0
C      1  0.5896340000000  0.7242310000000  0.3637730000000 1.0
C      1  0.5896340000000  0.2757690000000  0.6362270000000 1.0
C      1  0.4103660000000  0.2757690000000  0.3637730000000 1.0
C      1  0.3396300000000  0.6189500000000  0.3844060000000 1.0
C      1  0.6603700000000  0.6189500000000  0.6155940000000 1.0
C      1  0.6603700000000  0.3810500000000  0.3844060000000 1.0
C      1  0.3396300000000  0.3810500000000  0.6155940000000 1.0
C      1  0.7115820000000  0.4817000000000  0.5451010000000 1.0
C      1  0.2884180000000  0.4817000000000  0.4548990000000 1.0
C      1  0.2884180000000  0.5183000000000  0.5451010000000 1.0
C      1  0.7115820000000  0.5183000000000  0.4548990000000 1.0
C      1  0.4364570000000  0.3468750000000  0.6451700000000 1.0
C      1  0.5635430000000  0.3468750000000  0.3548300000000 1.0
C      1  0.5635430000000  0.6531250000000  0.6451700000000 1.0
C      1  0.4364570000000  0.6531250000000  0.3548300000000 1.0
C      1  0.4735930000000  0.4012180000000  0.3402450000000 1.0
C      1  0.5264070000000  0.4012180000000  0.6597550000000 1.0
C      1  0.5264070000000  0.5987820000000  0.3402450000000 1.0
C      1  0.4735930000000  0.5987820000000  0.6597550000000 1.0
C      1  0.3187120000000  0.4711300000000  0.6259490000000 1.0
C      1  0.6812880000000  0.4711300000000  0.3740510000000 1.0
C      1  0.6812880000000  0.5288700000000  0.6259490000000 1.0
C      1  0.3187120000000  0.5288700000000  0.3740510000000 1.0
C      1  0.5122270000000  0.5560010000000  0.4446160000000 1.0
C      1  0.4877730000000  0.5560010000000  0.5553840000000 1.0
C      1  0.4877730000000  0.4439990000000  0.4446160000000 1.0
C      1  0.5122270000000  0.4439990000000  0.5553840000000 1.0
C      1  0.4863030000000  0.7453490000000  0.3925700000000 1.0
C      1  0.5136970000000  0.7453490000000  0.6074300000000 1.0
C      1  0.5136970000000  0.2546510000000  0.3925700000000 1.0
C      1  0.4863030000000  0.2546510000000  0.6074300000000 1.0
C      1  0.4159560000000  0.3049720000000  0.5384570000000 1.0
C      1  0.5840440000000  0.3049720000000  0.4615430000000 1.0
C      1  0.5840440000000  0.6950280000000  0.5384570000000 1.0
C      1  0.4159560000000  0.6950280000000  0.4615430000000 1.0
C      1  0.6946930000000  0.6114300000000  0.4462010000000 1.0
C      1  0.3053070000000  0.6114300000000  0.5537990000000 1.0
C      1  0.3053070000000  0.3885700000000  0.4462010000000 1.0
C      1  0.6946930000000  0.3885700000000  0.5537990000000 1.0
C      1  0.5378250000000  0.4731400000000  0.7343000000000 1.0
C      1  0.4621750000000  0.4731400000000  0.2657000000000 1.0
C      1  0.4621750000000  0.5268600000000  0.7343000000000 1.0
C      1  0.5378250000000  0.5268600000000  0.2657000000000 1.0
C      1  0.3172290000000  0.3406500000000  0.5257540000000 1.0
C      1  0.6827710000000  0.3406500000000  0.4742460000000 1.0
C      1  0.6827710000000  0.6593500000000  0.5257540000000 1.0
C      1  0.3172290000000  0.6593500000000  0.4742460000000 1.0
C      1  0.3641110000000  0.6273880000000  0.6380860000000 1.0
C      1  0.6358890000000  0.6273880000000  0.3619140000000 1.0
C      1  0.6358890000000  0.3726120000000  0.6380860000000 1.0
C      1  0.3641110000000  0.3726120000000  0.3619140000000 1.0
END
