TITL C-986973-6940-1117 -5.063789831285e-07 3375 -339.679595470974 0 0 60 (C1) n - 1
REM
REM in /home/bkarasulu/work/CARBON/AIRSS/Generating-Clusters/REBO/Higher-Symm/Only-C60
REM
REM
REM
REM
REM
REM ./C.cell (a2850807a9bf4ad07a5b6933b78d9264)
REM AIRSS Version 0.9.1 bugfix July 2018 build 013d7b7c2542+ Fri, 06 Jul 2018 19:26:36 +0100
REM compiler GCC version 9.2.1 20190827 (Red Hat 9.2.1-1)
REM options -cpp -mtune=generic -march=x86-64 -g -O0 -fpre-include=/usr/include/finclude/math-vector-fortran.h
REM seed -366323804 1128517965 -867383707 1888464976 -852876193 -2040166078 -356341293 1894181560 -211807772 -628502407 1515658859 1040797747 -1066770995 -133082305 -664518378 1169133982 -1276039015 1090224549 -709842319 1175922535 277376974 151448517 149649172 -602526129 -158094246 -1651256091 1051720877 1785077052 -1282505316 -555303001 -1798398665 1273768341 -307878698
REM
CELL 1.54180   15.00000   15.00000   15.00000   90.00000   90.00000   90.00000
LATT -1
SFAC C  
C      1  0.2664340000000  0.4709780000000  0.6272990000000 1.0
C      1  0.4952430000000  0.4563260000000  0.2194280000000 1.0
C      1  0.7193020000000  0.4537460000000  0.6361820000000 1.0
C      1  0.2639100000000  0.4534240000000  0.3662830000000 1.0
C      1  0.4901760000000  0.4574840000000  0.7747870000000 1.0
C      1  0.7235600000000  0.4527680000000  0.3591450000000 1.0
C      1  0.5166500000000  0.3992770000000  0.6584910000000 1.0
C      1  0.3561940000000  0.3812710000000  0.4296870000000 1.0
C      1  0.6055910000000  0.4015350000000  0.3921090000000 1.0
C      1  0.5136560000000  0.3854760000000  0.3303470000000 1.0
C      1  0.3725080000000  0.3925680000000  0.5416090000000 1.0
C      1  0.6003350000000  0.4187890000000  0.5895970000000 1.0
C      1  0.5930610000000  0.6297360000000  0.5501160000000 1.0
C      1  0.4177290000000  0.6064610000000  0.5640430000000 1.0
C      1  0.5013040000000  0.5815370000000  0.3947030000000 1.0
C      1  0.5944360000000  0.6149510000000  0.4435570000000 1.0
C      1  0.4123840000000  0.5823010000000  0.4537480000000 1.0
C      1  0.5085990000000  0.5999470000000  0.6156470000000 1.0
C      1  0.5295630000000  0.5072510000000  0.6582970000000 1.0
C      1  0.3631560000000  0.4867740000000  0.4479200000000 1.0
C      1  0.6151120000000  0.5138020000000  0.4056220000000 1.0
C      1  0.5221910000000  0.4925040000000  0.3442000000000 1.0
C      1  0.3723000000000  0.5057300000000  0.5548800000000 1.0
C      1  0.6194580000000  0.5305310000000  0.5931240000000 1.0
C      1  0.4220860000000  0.3987180000000  0.2741170000000 1.0
C      1  0.7006990000000  0.4029750000000  0.5411700000000 1.0
C      1  0.3475330000000  0.4110850000000  0.6452980000000 1.0
C      1  0.4197850000000  0.4132230000000  0.7034870000000 1.0
C      1  0.7029110000000  0.3976430000000  0.4496680000000 1.0
C      1  0.3440510000000  0.3962760000000  0.3235270000000 1.0
C      1  0.6663020000000  0.4499530000000  0.2837560000000 1.0
C      1  0.5850920000000  0.4461170000000  0.7628180000000 1.0
C      1  0.2251630000000  0.4547670000000  0.4520380000000 1.0
C      1  0.6609480000000  0.4475870000000  0.7108990000000 1.0
C      1  0.5889980000000  0.4498610000000  0.2350630000000 1.0
C      1  0.2253760000000  0.4646920000000  0.5425490000000 1.0
C      1  0.5961380000000  0.3079160000000  0.4522740000000 1.0
C      1  0.5173320000000  0.3153620000000  0.5978060000000 1.0
C      1  0.4298390000000  0.3106520000000  0.4537260000000 1.0
C      1  0.6008380000000  0.3149150000000  0.5438590000000 1.0
C      1  0.5083860000000  0.3118620000000  0.4041140000000 1.0
C      1  0.4381120000000  0.3049270000000  0.5511820000000 1.0
C      1  0.3416640000000  0.6209070000000  0.2931720000000 1.0
C      1  0.7914390000000  0.6035720000000  0.4670340000000 1.0
C      1  0.4193670000000  0.6410150000000  0.7699710000000 1.0
C      1  0.3443520000000  0.6328130000000  0.7166960000000 1.0
C      1  0.8012340000000  0.6129740000000  0.5583420000000 1.0
C      1  0.4154140000000  0.6318150000000  0.2387350000000 1.0
C      1  0.7214770000000  0.5335050000000  0.5557100000000 1.0
C      1  0.3472470000000  0.5433340000000  0.6574040000000 1.0
C      1  0.4386990000000  0.5306580000000  0.2827840000000 1.0
C      1  0.7176920000000  0.5295770000000  0.4421200000000 1.0
C      1  0.3446300000000  0.5275990000000  0.3460830000000 1.0
C      1  0.4426710000000  0.5434090000000  0.7190450000000 1.0
C      1  0.4858910000000  0.6874170000000  0.4190480000000 1.0
C      1  0.5736550000000  0.7426240000000  0.5579560000000 1.0
C      1  0.4003260000000  0.7189060000000  0.5647210000000 1.0
C      1  0.4930590000000  0.7073320000000  0.6068910000000 1.0
C      1  0.5716590000000  0.7242280000000  0.4591020000000 1.0
C      1  0.3970840000000  0.6946180000000  0.4670130000000 1.0
END
