TITL C-986973-6940-382 4.53518271440065e-07 3375 -342.669736555322 0 0 60 (Ci) n - 1
REM
REM in /home/bkarasulu/work/CARBON/AIRSS/Generating-Clusters/REBO/Higher-Symm/Only-C60
REM
REM
REM
REM
REM
REM ./C.cell (a2850807a9bf4ad07a5b6933b78d9264)
REM AIRSS Version 0.9.1 bugfix July 2018 build 013d7b7c2542+ Fri, 06 Jul 2018 19:26:36 +0100
REM compiler GCC version 9.2.1 20190827 (Red Hat 9.2.1-1)
REM options -cpp -mtune=generic -march=x86-64 -g -O0 -fpre-include=/usr/include/finclude/math-vector-fortran.h
REM seed -1993625324 -934600656 148609336 -448222817 -1209874847 448942685 2057825721 -1741226196 -1632821530 1363688694 675436064 85650870 881946883 1331980658 -769066742 1395024578 -591752552 873090690 -1342994260 -1418269589 -1775877649 -865605403 -1128880315 191291676 -1522048106 151375714 1465315648 -26890050 1691024880 -1152993843 -2090181042 1326857919 -1486425433
REM
CELL 1.54180   15.00000   15.00000   15.00000   90.00000   90.00000   90.00000
LATT -1
SFAC C  
C      1  0.2861060000000  0.6164530000000  0.4655740000000 1.0
C      1  0.7138940000000  0.3835470000000  0.5344260000000 1.0
C      1  0.3738810000000  0.5661770000000  0.2960120000000 1.0
C      1  0.6261190000000  0.4338230000000  0.7039880000000 1.0
C      1  0.5958620000000  0.5326060000000  0.7369280000000 1.0
C      1  0.4041380000000  0.4673940000000  0.2630720000000 1.0
C      1  0.3873660000000  0.5932580000000  0.6133820000000 1.0
C      1  0.6126340000000  0.4067420000000  0.3866180000000 1.0
C      1  0.3948090000000  0.6663670000000  0.3476410000000 1.0
C      1  0.6051910000000  0.3336330000000  0.6523590000000 1.0
C      1  0.4259940000000  0.5768070000000  0.4874300000000 1.0
C      1  0.5740060000000  0.4231930000000  0.5125700000000 1.0
C      1  0.5464680000000  0.5394280000000  0.2783800000000 1.0
C      1  0.4535320000000  0.4605720000000  0.7216200000000 1.0
C      1  0.4919910000000  0.4803010000000  0.2231030000000 1.0
C      1  0.5080090000000  0.5196990000000  0.7768970000000 1.0
C      1  0.5885610000000  0.5042150000000  0.3522350000000 1.0
C      1  0.4114390000000  0.4957850000000  0.6477650000000 1.0
C      1  0.3259700000000  0.3672490000000  0.3880000000000 1.0
C      1  0.6740300000000  0.6327510000000  0.6120000000000 1.0
C      1  0.4677300000000  0.3016310000000  0.4726780000000 1.0
C      1  0.5322700000000  0.6983690000000  0.5273220000000 1.0
C      1  0.4489760000000  0.7348480000000  0.4971470000000 1.0
C      1  0.5510240000000  0.2651520000000  0.5028530000000 1.0
C      1  0.4885350000000  0.6044530000000  0.6440610000000 1.0
C      1  0.5114650000000  0.3955470000000  0.3559390000000 1.0
C      1  0.5911690000000  0.5131630000000  0.4660820000000 1.0
C      1  0.4088310000000  0.4868370000000  0.5339170000000 1.0
C      1  0.6904250000000  0.4182930000000  0.4477740000000 1.0
C      1  0.3095750000000  0.5817070000000  0.5522260000000 1.0
C      1  0.4857390000000  0.5790480000000  0.3908670000000 1.0
C      1  0.5142610000000  0.4209520000000  0.6091330000000 1.0
C      1  0.3431350000000  0.4048770000000  0.5764030000000 1.0
C      1  0.6568650000000  0.5951230000000  0.4235970000000 1.0
C      1  0.3463800000000  0.4782630000000  0.3919770000000 1.0
C      1  0.6536200000000  0.5217370000000  0.6080230000000 1.0
C      1  0.6936050000000  0.4240150000000  0.6134180000000 1.0
C      1  0.3063950000000  0.5759850000000  0.3865820000000 1.0
C      1  0.5279130000000  0.5921170000000  0.5177940000000 1.0
C      1  0.4720870000000  0.4078830000000  0.4822060000000 1.0
C      1  0.7224460000000  0.5083470000000  0.4435070000000 1.0
C      1  0.2775540000000  0.4916530000000  0.5564930000000 1.0
C      1  0.5957830000000  0.3280130000000  0.5587990000000 1.0
C      1  0.4042170000000  0.6719870000000  0.4412010000000 1.0
C      1  0.5933110000000  0.6149310000000  0.6815080000000 1.0
C      1  0.4066890000000  0.3850690000000  0.3184920000000 1.0
C      1  0.5865250000000  0.7276860000000  0.3878350000000 1.0
C      1  0.4134750000000  0.2723140000000  0.6121650000000 1.0
C      1  0.3911170000000  0.2662440000000  0.5178070000000 1.0
C      1  0.6088830000000  0.7337560000000  0.4821930000000 1.0
C      1  0.4749660000000  0.6195750000000  0.2861490000000 1.0
C      1  0.5250340000000  0.3804250000000  0.7138510000000 1.0
C      1  0.3144780000000  0.3306700000000  0.4948340000000 1.0
C      1  0.6855220000000  0.6693300000000  0.5051660000000 1.0
C      1  0.7242380000000  0.5665960000000  0.5338650000000 1.0
C      1  0.2757620000000  0.4334040000000  0.4661350000000 1.0
C      1  0.5508840000000  0.5204750000000  0.5993590000000 1.0
C      1  0.4491160000000  0.4795250000000  0.4006410000000 1.0
C      1  0.4231230000000  0.3643270000000  0.6303940000000 1.0
C      1  0.5768770000000  0.6356730000000  0.3696060000000 1.0
END
