TITL C-986975-4297-103 -1.76762650341447e-05 3375 -338.109621363018 0 0 60 (Ci) n - 1
REM
REM in /home/bkarasulu/work/CARBON/AIRSS/Generating-Clusters/REBO/Higher-Symm/Only-C60
REM
REM
REM
REM
REM
REM ./C.cell (a2850807a9bf4ad07a5b6933b78d9264)
REM AIRSS Version 0.9.1 bugfix July 2018 build 013d7b7c2542+ Fri, 06 Jul 2018 19:26:36 +0100
REM compiler GCC version 9.2.1 20190827 (Red Hat 9.2.1-1)
REM options -cpp -mtune=generic -march=x86-64 -g -O0 -fpre-include=/usr/include/finclude/math-vector-fortran.h
REM seed 1313326559 55853361 -1037403100 230374904 -182123734 103533536 -536809768 -427991658 1198609030 564202542 644538986 364307423 765619287 -1811791813 690586797 154311893 -639455771 -927263413 -562231836 749253635 384871329 -1620233206 2144684098 -779855425 -1026978620 -766529826 -384936690 485071911 -2001677454 -2091109670 1117092116 -1110386761 1966820812
REM
CELL 1.54180   15.00000   15.00000   15.00000   90.00000   90.00000   90.00000
LATT -1
SFAC C  
C      1  0.3802700000000  0.6815480000000  0.5117170000000 1.0
C      1  0.6197300000000  0.3184520000000  0.4882830000000 1.0
C      1  0.7668110000000  0.4842550000000  0.5550530000000 1.0
C      1  0.2331890000000  0.5157450000000  0.4449470000000 1.0
C      1  0.3102980000000  0.6356210000000  0.5569470000000 1.0
C      1  0.6897020000000  0.3643790000000  0.4430530000000 1.0
C      1  0.6442980000000  0.5928470000000  0.6864940000000 1.0
C      1  0.3557020000000  0.4071530000000  0.3135060000000 1.0
C      1  0.6696570000000  0.5817040000000  0.4842290000000 1.0
C      1  0.3303430000000  0.4182960000000  0.5157710000000 1.0
C      1  0.5682860000000  0.5371500000000  0.6301990000000 1.0
C      1  0.4317140000000  0.4628500000000  0.3698010000000 1.0
C      1  0.6399810000000  0.4626620000000  0.7135650000000 1.0
C      1  0.3600190000000  0.5373390000000  0.2864350000000 1.0
C      1  0.5963840000000  0.3671280000000  0.7137220000000 1.0
C      1  0.4036160000000  0.6328720000000  0.2862780000000 1.0
C      1  0.4757040000000  0.6557530000000  0.3736660000000 1.0
C      1  0.5242960000000  0.3442470000000  0.6263340000000 1.0
C      1  0.6250860000000  0.6614830000000  0.4662610000000 1.0
C      1  0.3749140000000  0.3385170000000  0.5337390000000 1.0
C      1  0.3938410000000  0.4854250000000  0.4688070000000 1.0
C      1  0.6061590000000  0.5145750000000  0.5311930000000 1.0
C      1  0.4831130000000  0.5374940000000  0.7749860000000 1.0
C      1  0.5168870000000  0.4625060000000  0.2250140000000 1.0
C      1  0.5604330000000  0.4568470000000  0.4003050000000 1.0
C      1  0.4395670000000  0.5431530000000  0.5996950000000 1.0
C      1  0.4123090000000  0.2876670000000  0.4526240000000 1.0
C      1  0.5876910000000  0.7123330000000  0.5473760000000 1.0
C      1  0.7535440000000  0.4039310000000  0.5043180000000 1.0
C      1  0.2464560000000  0.5960690000000  0.4956820000000 1.0
C      1  0.6508350000000  0.4374810000000  0.6012970000000 1.0
C      1  0.3491650000000  0.5625190000000  0.3987030000000 1.0
C      1  0.7184650000000  0.5141660000000  0.6502180000000 1.0
C      1  0.2815350000000  0.4858340000000  0.3497820000000 1.0
C      1  0.4787810000000  0.6807360000000  0.5576690000000 1.0
C      1  0.5212190000000  0.3192640000000  0.4423310000000 1.0
C      1  0.6569010000000  0.2858530000000  0.6801050000000 1.0
C      1  0.3430990000000  0.7141470000000  0.3198950000000 1.0
C      1  0.5779660000000  0.5414650000000  0.7627480000000 1.0
C      1  0.4220340000000  0.4585350000000  0.2372520000000 1.0
C      1  0.5139650000000  0.6213890000000  0.2742660000000 1.0
C      1  0.4860350000000  0.3786110000000  0.7257340000000 1.0
C      1  0.4982910000000  0.5507810000000  0.5184260000000 1.0
C      1  0.5017090000000  0.4492190000000  0.4815740000000 1.0
C      1  0.4407940000000  0.3528890000000  0.3679820000000 1.0
C      1  0.5592060000000  0.6471110000000  0.6320180000000 1.0
C      1  0.5447780000000  0.5514420000000  0.2013580000000 1.0
C      1  0.4552220000000  0.4485580000000  0.7986420000000 1.0
C      1  0.4914480000000  0.4684200000000  0.6615300000000 1.0
C      1  0.5085520000000  0.5315800000000  0.3384700000000 1.0
C      1  0.2405910000000  0.4394530000000  0.5018150000000 1.0
C      1  0.7594090000000  0.5605470000000  0.4981850000000 1.0
C      1  0.4273780000000  0.5759030000000  0.7075050000000 1.0
C      1  0.5726220000000  0.4240970000000  0.2924950000000 1.0
C      1  0.6242900000000  0.3399370000000  0.5865900000000 1.0
C      1  0.3757100000000  0.6600630000000  0.4134100000000 1.0
C      1  0.4797930000000  0.3600280000000  0.5404390000000 1.0
C      1  0.5202070000000  0.6399720000000  0.4595610000000 1.0
C      1  0.6525580000000  0.4082700000000  0.3675500000000 1.0
C      1  0.3474420000000  0.5917300000000  0.6324500000000 1.0
END
