TITL C-986976-6631-1036 8.24456564927601e-05 3375 -360.905003591801 0 0 60 (C1) n - 1
REM
REM in /home/bkarasulu/work/CARBON/AIRSS/Generating-Clusters/REBO/Higher-Symm/Only-C60
REM
REM
REM
REM
REM
REM ./C.cell (a2850807a9bf4ad07a5b6933b78d9264)
REM AIRSS Version 0.9.1 bugfix July 2018 build 013d7b7c2542+ Fri, 06 Jul 2018 19:26:36 +0100
REM compiler GCC version 9.2.1 20190827 (Red Hat 9.2.1-1)
REM options -cpp -mtune=generic -march=x86-64 -g -O0 -fpre-include=/usr/include/finclude/math-vector-fortran.h
REM seed 116183229 -1116669545 1746521414 -1306372209 -2088219953 351147208 1201348353 -1109659943 -711120303 -1405959925 -220384160 -2125389428 425851960 -1420025525 -278976040 -1109616048 385567582 -352406681 -294910692 1894166135 1173390729 -1859755244 389471558 -1833365811 1902150194 277565882 1960487617 1560128273 -1429123909 -228897584 592393482 -1728654247 -1734204418
REM
CELL 1.54180   15.00000   15.00000   15.00000   90.00000   90.00000   90.00000
LATT -1
SFAC C  
C      1  0.2581050000000  0.4934350000000  0.4078910000000 1.0
C      1  0.2533440000000  0.5888360000000  0.5448150000000 1.0
C      1  0.2590820000000  0.4211730000000  0.5574430000000 1.0
C      1  0.5772750000000  0.7126420000000  0.4297970000000 1.0
C      1  0.5793730000000  0.4510210000000  0.7245270000000 1.0
C      1  0.5820630000000  0.3291530000000  0.3452980000000 1.0
C      1  0.7130100000000  0.4921110000000  0.6476640000000 1.0
C      1  0.7146440000000  0.3754630000000  0.4209130000000 1.0
C      1  0.7135280000000  0.6294980000000  0.4333050000000 1.0
C      1  0.3971270000000  0.3896030000000  0.6756240000000 1.0
C      1  0.3943710000000  0.4069930000000  0.3026540000000 1.0
C      1  0.3883170000000  0.7065930000000  0.5162650000000 1.0
C      1  0.4268670000000  0.4429180000000  0.4701920000000 1.0
C      1  0.4265540000000  0.5554450000000  0.4522090000000 1.0
C      1  0.4243130000000  0.5145230000000  0.5582540000000 1.0
C      1  0.3050020000000  0.5189080000000  0.6750050000000 1.0
C      1  0.3021650000000  0.3441130000000  0.4251170000000 1.0
C      1  0.2979160000000  0.6451860000000  0.4020200000000 1.0
C      1  0.4929340000000  0.4335600000000  0.2607200000000 1.0
C      1  0.4842080000000  0.7228330000000  0.5617510000000 1.0
C      1  0.4863540000000  0.3299550000000  0.6718870000000 1.0
C      1  0.2485690000000  0.5093060000000  0.5987570000000 1.0
C      1  0.2485690000000  0.4134550000000  0.4621780000000 1.0
C      1  0.2459280000000  0.5799550000000  0.4476750000000 1.0
C      1  0.3156330000000  0.6550020000000  0.5801640000000 1.0
C      1  0.3251620000000  0.3622260000000  0.5957810000000 1.0
C      1  0.3237170000000  0.4883310000000  0.3387520000000 1.0
C      1  0.5485100000000  0.4466780000000  0.5224000000000 1.0
C      1  0.5510080000000  0.5115290000000  0.4408180000000 1.0
C      1  0.5498470000000  0.5504930000000  0.5378070000000 1.0
C      1  0.5290320000000  0.2596540000000  0.3208510000000 1.0
C      1  0.5230370000000  0.7675550000000  0.3820000000000 1.0
C      1  0.5255330000000  0.4645790000000  0.7963550000000 1.0
C      1  0.7579190000000  0.5342700000000  0.4446800000000 1.0
C      1  0.7572440000000  0.5303150000000  0.5594080000000 1.0
C      1  0.7571910000000  0.4330500000000  0.4985400000000 1.0
C      1  0.6348070000000  0.3263890000000  0.4261280000000 1.0
C      1  0.6348410000000  0.6483450000000  0.3857880000000 1.0
C      1  0.6342000000000  0.5220930000000  0.6888860000000 1.0
C      1  0.5718040000000  0.3708400000000  0.6708230000000 1.0
C      1  0.5764450000000  0.4144870000000  0.3000420000000 1.0
C      1  0.5691660000000  0.7056290000000  0.5260620000000 1.0
C      1  0.3830290000000  0.6495360000000  0.4364990000000 1.0
C      1  0.3899360000000  0.4875420000000  0.6575280000000 1.0
C      1  0.3845880000000  0.3752510000000  0.4005370000000 1.0
C      1  0.5913670000000  0.6001340000000  0.6522760000000 1.0
C      1  0.5906350000000  0.3223600000000  0.5113370000000 1.0
C      1  0.5945150000000  0.5768380000000  0.3349160000000 1.0
C      1  0.6311310000000  0.6514160000000  0.5780470000000 1.0
C      1  0.6307400000000  0.3562710000000  0.5943440000000 1.0
C      1  0.6355800000000  0.4881260000000  0.3255440000000 1.0
C      1  0.7115430000000  0.4656450000000  0.3780020000000 1.0
C      1  0.7086900000000  0.6208150000000  0.5327990000000 1.0
C      1  0.7084470000000  0.4105480000000  0.5900680000000 1.0
C      1  0.4181460000000  0.6636640000000  0.6277810000000 1.0
C      1  0.4281020000000  0.3168610000000  0.5812540000000 1.0
C      1  0.4259920000000  0.5161830000000  0.2966940000000 1.0
C      1  0.4860930000000  0.5842390000000  0.6229150000000 1.0
C      1  0.4863000000000  0.3564840000000  0.5094830000000 1.0
C      1  0.4904530000000  0.5599410000000  0.3627280000000 1.0
END
