TITL C-986975-4297-32 2.88122007378233e-07 3375 -343.381791032795 0 0 60 (Ci) n - 1
REM
REM in /home/bkarasulu/work/CARBON/AIRSS/Generating-Clusters/REBO/Higher-Symm/Only-C60
REM
REM
REM
REM
REM
REM ./C.cell (a2850807a9bf4ad07a5b6933b78d9264)
REM AIRSS Version 0.9.1 bugfix July 2018 build 013d7b7c2542+ Fri, 06 Jul 2018 19:26:36 +0100
REM compiler GCC version 9.2.1 20190827 (Red Hat 9.2.1-1)
REM options -cpp -mtune=generic -march=x86-64 -g -O0 -fpre-include=/usr/include/finclude/math-vector-fortran.h
REM seed -1670241790 -1689153619 -326126279 -28437051 -1341720406 -1061785729 -1795787429 35958759 639026246 -1150663635 -1191810481 -363209776 1683957452 -226836292 509094225 1025040234 -1163100144 1968091306 6073096 -1732023390 -1174692639 -2112317408 1811150933 -265768500 -980042004 135462380 1657572370 -1271822056 157364245 447845195 770439212 1388003445 1502593878
REM
CELL 1.54180   15.00000   15.00000   15.00000   90.00000   90.00000   90.00000
LATT -1
SFAC C  
C      1  0.3771320000000  0.6566280000000  0.4075850000000 1.0
C      1  0.3372460000000  0.3612990000000  0.3976000000000 1.0
C      1  0.6250470000000  0.3498180000000  0.4063340000000 1.0
C      1  0.6538310000000  0.6437290000000  0.4114380000000 1.0
C      1  0.3740680000000  0.6559350000000  0.5930960000000 1.0
C      1  0.3452840000000  0.3620250000000  0.5879920000000 1.0
C      1  0.6219830000000  0.3491260000000  0.5918450000000 1.0
C      1  0.6618690000000  0.6444550000000  0.6018290000000 1.0
C      1  0.3472230000000  0.5587200000000  0.5763290000000 1.0
C      1  0.4266880000000  0.3172190000000  0.5618590000000 1.0
C      1  0.6512550000000  0.4457350000000  0.5735470000000 1.0
C      1  0.5799310000000  0.7042980000000  0.5949210000000 1.0
C      1  0.3478600000000  0.5600190000000  0.4258830000000 1.0
C      1  0.4191830000000  0.3014560000000  0.4045090000000 1.0
C      1  0.6518920000000  0.4470330000000  0.4231010000000 1.0
C      1  0.5724270000000  0.6885350000000  0.4375720000000 1.0
C      1  0.5891600000000  0.4559950000000  0.3343370000000 1.0
C      1  0.5607270000000  0.6258880000000  0.3183190000000 1.0
C      1  0.4158530000000  0.5492970000000  0.3398550000000 1.0
C      1  0.4369680000000  0.3802630000000  0.3061100000000 1.0
C      1  0.5832620000000  0.4564560000000  0.6595750000000 1.0
C      1  0.5621470000000  0.6254910000000  0.6933200000000 1.0
C      1  0.4099550000000  0.5497590000000  0.6650930000000 1.0
C      1  0.4383870000000  0.3798660000000  0.6811100000000 1.0
C      1  0.7528800000000  0.4640440000000  0.4478760000000 1.0
C      1  0.5389500000000  0.7836970000000  0.4526040000000 1.0
C      1  0.2465240000000  0.5445420000000  0.4506940000000 1.0
C      1  0.4635660000000  0.2168420000000  0.4482820000000 1.0
C      1  0.7525910000000  0.4612120000000  0.5487360000000 1.0
C      1  0.5355490000000  0.7889120000000  0.5511480000000 1.0
C      1  0.2462350000000  0.5417090000000  0.5515540000000 1.0
C      1  0.4601650000000  0.2220570000000  0.5468260000000 1.0
C      1  0.3548190000000  0.4537990000000  0.3334320000000 1.0
C      1  0.5414220000000  0.3515090000000  0.3299930000000 1.0
C      1  0.6330130000000  0.5552910000000  0.3421340000000 1.0
C      1  0.4707040000000  0.6454040000000  0.3426890000000 1.0
C      1  0.3661010000000  0.4504620000000  0.6572960000000 1.0
C      1  0.5284110000000  0.3603490000000  0.6567400000000 1.0
C      1  0.6442960000000  0.5519550000000  0.6659970000000 1.0
C      1  0.4576920000000  0.6542450000000  0.6694370000000 1.0
C      1  0.5461610000000  0.2681240000000  0.5917040000000 1.0
C      1  0.7280940000000  0.5532140000000  0.5912320000000 1.0
C      1  0.4512170000000  0.7384840000000  0.5931420000000 1.0
C      1  0.2746240000000  0.4480230000000  0.5897520000000 1.0
C      1  0.5478980000000  0.2672700000000  0.4062880000000 1.0
C      1  0.7244910000000  0.5577300000000  0.4096780000000 1.0
C      1  0.4529530000000  0.7376300000000  0.4077260000000 1.0
C      1  0.2710210000000  0.4525400000000  0.4081980000000 1.0
C      1  0.4600610000000  0.3574110000000  0.4804570000000 1.0
C      1  0.5854230000000  0.4824990000000  0.4975730000000 1.0
C      1  0.5390540000000  0.6483430000000  0.5189730000000 1.0
C      1  0.4136920000000  0.5232550000000  0.5018560000000 1.0
C      1  0.3907190000000  0.7152500000000  0.5001600000000 1.0
C      1  0.2859360000000  0.3845520000000  0.4962510000000 1.0
C      1  0.6083950000000  0.2905040000000  0.4992700000000 1.0
C      1  0.7131790000000  0.6212020000000  0.5031780000000 1.0
C      1  0.5150520000000  0.5538250000000  0.5389840000000 1.0
C      1  0.4840620000000  0.4519290000000  0.4604460000000 1.0
C      1  0.5146830000000  0.5378480000000  0.6415970000000 1.0
C      1  0.4844320000000  0.4679060000000  0.3578330000000 1.0
END
