TITL C-986977-940-85 1.03892756023254e-05 3375 -360.034004188098 0 0 60 (C5) n - 1
REM
REM in /home/bkarasulu/work/CARBON/AIRSS/Generating-Clusters/REBO/Higher-Symm/Only-C60
REM
REM
REM
REM
REM
REM ./C.cell (a2850807a9bf4ad07a5b6933b78d9264)
REM AIRSS Version 0.9.1 bugfix July 2018 build 013d7b7c2542+ Fri, 06 Jul 2018 19:26:36 +0100
REM compiler GCC version 9.2.1 20190827 (Red Hat 9.2.1-1)
REM options -cpp -mtune=generic -march=x86-64 -g -O0 -fpre-include=/usr/include/finclude/math-vector-fortran.h
REM seed -556973477 -1401649756 1202552434 1641946752 991606313 -2082190390 -2086422690 346408716 1606481791 -1430480596 193050673 1922746830 -1745721491 1901620556 -22633019 773260115 -917991813 -1181456431 -621894706 -216584417 -435054480 -1057536860 1489265622 -582114371 -753012179 -517549511 -1842158282 -728177608 1793994149 338590441 2068753489 -2060490391 -885461168
REM
CELL 1.54180   15.00000   15.00000   15.00000   90.00000   90.00000   90.00000
LATT -1
SFAC C  
C      1  0.5057410000000  0.6232800000000  0.6576650000000 1.0
C      1  0.3518270000000  0.6232790000000  0.5541810000000 1.0
C      1  0.4026840000000  0.6232780000000  0.3758220000000 1.0
C      1  0.5880290000000  0.6232780000000  0.3690740000000 1.0
C      1  0.6517220000000  0.6232800000000  0.5432630000000 1.0
C      1  0.5057400000000  0.3767220000000  0.6576630000000 1.0
C      1  0.3518260000000  0.3767210000000  0.5541790000000 1.0
C      1  0.4026830000000  0.3767200000000  0.3758200000000 1.0
C      1  0.5880280000000  0.3767210000000  0.3690720000000 1.0
C      1  0.6517210000000  0.3767220000000  0.5432610000000 1.0
C      1  0.6733820000000  0.6263280000000  0.6407100000000 1.0
C      1  0.4197560000000  0.6263280000000  0.7083780000000 1.0
C      1  0.2770250000000  0.6263270000000  0.4880760000000 1.0
C      1  0.4424380000000  0.6263260000000  0.2842540000000 1.0
C      1  0.6874010000000  0.6263270000000  0.3785860000000 1.0
C      1  0.6733810000000  0.3736730000000  0.6407080000000 1.0
C      1  0.4197550000000  0.3736730000000  0.7083760000000 1.0
C      1  0.2770240000000  0.3736720000000  0.4880750000000 1.0
C      1  0.4424370000000  0.3736710000000  0.2842520000000 1.0
C      1  0.6874000000000  0.3736720000000  0.3785850000000 1.0
C      1  0.2342460000000  0.4545410000000  0.4685660000000 1.0
C      1  0.4477730000000  0.4545400000000  0.2375390000000 1.0
C      1  0.7334750000000  0.4545410000000  0.3692240000000 1.0
C      1  0.6965220000000  0.4545420000000  0.6816360000000 1.0
C      1  0.3879820000000  0.4545420000000  0.7430320000000 1.0
C      1  0.2342470000000  0.5454590000000  0.4685670000000 1.0
C      1  0.4477730000000  0.5454580000000  0.2375400000000 1.0
C      1  0.7334760000000  0.5454590000000  0.3692250000000 1.0
C      1  0.6965230000000  0.5454600000000  0.6816370000000 1.0
C      1  0.3879820000000  0.5454600000000  0.7430330000000 1.0
C      1  0.5787390000000  0.4335110000000  0.5230780000000 1.0
C      1  0.5023810000000  0.4335110000000  0.5820170000000 1.0
C      1  0.4227320000000  0.4335110000000  0.5276090000000 1.0
C      1  0.4498630000000  0.4335100000000  0.4350450000000 1.0
C      1  0.5462810000000  0.4335110000000  0.4322450000000 1.0
C      1  0.5787410000000  0.5664900000000  0.5230810000000 1.0
C      1  0.5023830000000  0.5664900000000  0.5820200000000 1.0
C      1  0.4227330000000  0.5664890000000  0.5276120000000 1.0
C      1  0.4498650000000  0.5664890000000  0.4350470000000 1.0
C      1  0.5462830000000  0.5664890000000  0.4322470000000 1.0
C      1  0.5112390000000  0.3094190000000  0.3378600000000 1.0
C      1  0.6576770000000  0.3094200000000  0.4605850000000 1.0
C      1  0.5862100000000  0.3094200000000  0.6377790000000 1.0
C      1  0.3956040000000  0.3094200000000  0.6245670000000 1.0
C      1  0.3492690000000  0.3094190000000  0.4392060000000 1.0
C      1  0.5112400000000  0.6905800000000  0.3378610000000 1.0
C      1  0.6576770000000  0.6905810000000  0.4605860000000 1.0
C      1  0.5862110000000  0.6905810000000  0.6377810000000 1.0
C      1  0.3956040000000  0.6905810000000  0.6245680000000 1.0
C      1  0.3492700000000  0.6905800000000  0.4392070000000 1.0
C      1  0.5868680000000  0.2607970000000  0.5356990000000 1.0
C      1  0.4928910000000  0.2607970000000  0.5936480000000 1.0
C      1  0.4087380000000  0.2607960000000  0.5221780000000 1.0
C      1  0.4507050000000  0.2607960000000  0.4200590000000 1.0
C      1  0.5607950000000  0.2607970000000  0.4284150000000 1.0
C      1  0.5868680000000  0.7392040000000  0.5356990000000 1.0
C      1  0.4928920000000  0.7392040000000  0.5936480000000 1.0
C      1  0.4087390000000  0.7392030000000  0.5221790000000 1.0
C      1  0.4507060000000  0.7392030000000  0.4200590000000 1.0
C      1  0.5607960000000  0.7392030000000  0.4284150000000 1.0
END
