TITL C-986976-6631-97 -1.65232593351487e-05 3375 -355.712864420088 0 0 60 (C10) n - 1
REM
REM in /home/bkarasulu/work/CARBON/AIRSS/Generating-Clusters/REBO/Higher-Symm/Only-C60
REM
REM
REM
REM
REM
REM ./C.cell (a2850807a9bf4ad07a5b6933b78d9264)
REM AIRSS Version 0.9.1 bugfix July 2018 build 013d7b7c2542+ Fri, 06 Jul 2018 19:26:36 +0100
REM compiler GCC version 9.2.1 20190827 (Red Hat 9.2.1-1)
REM options -cpp -mtune=generic -march=x86-64 -g -O0 -fpre-include=/usr/include/finclude/math-vector-fortran.h
REM seed 1748170404 443162759 855909528 1704253911 -1847846493 -378387649 -1402036625 -460588341 28120503 706397950 -9847371 204489876 -1940867023 910909275 1385853609 -1315675263 -269721244 1240176584 1175203072 658055266 -2045223107 2055848167 899913424 1232763041 -2056082593 -294859013 -619079439 -120178171 -1516293182 1947830209 -1265756483 855481280 1304858290
REM
CELL 1.54180   15.00000   15.00000   15.00000   90.00000   90.00000   90.00000
LATT -1
SFAC C  
C      1  0.2681930000000  0.3598740000000  0.5775920000000 1.0
C      1  0.2681930000000  0.4322430000000  0.6451370000000 1.0
C      1  0.2681930000000  0.5304940000000  0.6572450000000 1.0
C      1  0.2681930000000  0.6170960000000  0.6092900000000 1.0
C      1  0.2681930000000  0.6589730000000  0.5195900000000 1.0
C      1  0.2681930000000  0.6401260000000  0.4224080000000 1.0
C      1  0.2681930000000  0.5677570000000  0.3548630000000 1.0
C      1  0.2681930000000  0.4695060000000  0.3427550000000 1.0
C      1  0.2681930000000  0.3829040000000  0.3907100000000 1.0
C      1  0.2681930000000  0.3410270000000  0.4804100000000 1.0
C      1  0.6907340000000  0.5399600000000  0.6621090000000 1.0
C      1  0.6907340000000  0.6276140000000  0.6076610000000 1.0
C      1  0.6907340000000  0.6665230000000  0.5120900000000 1.0
C      1  0.6907340000000  0.6418260000000  0.4119010000000 1.0
C      1  0.6907340000000  0.5629570000000  0.3453620000000 1.0
C      1  0.6907340000000  0.4600400000000  0.3378910000000 1.0
C      1  0.6907340000000  0.3723860000000  0.3923390000000 1.0
C      1  0.6907340000000  0.3334770000000  0.4879100000000 1.0
C      1  0.6907340000000  0.3581740000000  0.5880990000000 1.0
C      1  0.6907340000000  0.4370430000000  0.6546380000000 1.0
C      1  0.4804020000000  0.3812460000000  0.6413290000000 1.0
C      1  0.4804020000000  0.4869970000000  0.6841400000000 1.0
C      1  0.4804020000000  0.5977150000000  0.6566150000000 1.0
C      1  0.4804030000000  0.6711090000000  0.5692690000000 1.0
C      1  0.4804030000000  0.6791450000000  0.4554640000000 1.0
C      1  0.4804020000000  0.6187540000000  0.3586710000000 1.0
C      1  0.4804020000000  0.5130030000000  0.3158600000000 1.0
C      1  0.4804020000000  0.4022850000000  0.3433850000000 1.0
C      1  0.4804030000000  0.3288910000000  0.4307310000000 1.0
C      1  0.4804030000000  0.3208550000000  0.5445360000000 1.0
C      1  0.6196170000000  0.6855360000000  0.6565250000000 1.0
C      1  0.6196170000000  0.7421050000000  0.5175760000000 1.0
C      1  0.6196170000000  0.7061980000000  0.3719130000000 1.0
C      1  0.6196170000000  0.5915300000000  0.2751750000000 1.0
C      1  0.6196170000000  0.4419010000000  0.2643130000000 1.0
C      1  0.6196170000000  0.3144640000000  0.3434750000000 1.0
C      1  0.6196170000000  0.2578950000000  0.4824240000000 1.0
C      1  0.6196170000000  0.2938020000000  0.6280870000000 1.0
C      1  0.6196170000000  0.4084700000000  0.7248250000000 1.0
C      1  0.6196170000000  0.5580990000000  0.7356870000000 1.0
C      1  0.5660580000000  0.7298990000000  0.5935980000000 1.0
C      1  0.5660580000000  0.7410080000000  0.4405910000000 1.0
C      1  0.5660580000000  0.6600600000000  0.3102760000000 1.0
C      1  0.5660580000000  0.5179740000000  0.2524290000000 1.0
C      1  0.5660580000000  0.3690230000000  0.2891460000000 1.0
C      1  0.5660580000000  0.2701010000000  0.4064020000000 1.0
C      1  0.5660580000000  0.2589920000000  0.5594090000000 1.0
C      1  0.5660580000000  0.3399400000000  0.6897240000000 1.0
C      1  0.5660580000000  0.4820260000000  0.7475710000000 1.0
C      1  0.5660580000000  0.6309770000000  0.7108540000000 1.0
C      1  0.3749950000000  0.5665430000000  0.6698030000000 1.0
C      1  0.3749950000000  0.6536420000000  0.5982610000000 1.0
C      1  0.3749950000000  0.6820550000000  0.4891860000000 1.0
C      1  0.3749950000000  0.6409290000000  0.3842420000000 1.0
C      1  0.3749950000000  0.5459730000000  0.3235140000000 1.0
C      1  0.3749950000000  0.4334570000000  0.3301970000000 1.0
C      1  0.3749950000000  0.3463580000000  0.4017390000000 1.0
C      1  0.3749950000000  0.3179450000000  0.5108140000000 1.0
C      1  0.3749950000000  0.3590710000000  0.6157580000000 1.0
C      1  0.3749950000000  0.4540270000000  0.6764860000000 1.0
END
