TITL C-986979-5873-338 -0.0106988931435211 3375 -346.601803810334 0 0 60 (C1) n - 1
REM
REM in /home/bkarasulu/work/CARBON/AIRSS/Generating-Clusters/REBO/Higher-Symm/Only-C60
REM
REM
REM
REM
REM
REM ./C.cell (a2850807a9bf4ad07a5b6933b78d9264)
REM AIRSS Version 0.9.1 bugfix July 2018 build 013d7b7c2542+ Fri, 06 Jul 2018 19:26:36 +0100
REM compiler GCC version 9.2.1 20190827 (Red Hat 9.2.1-1)
REM options -cpp -mtune=generic -march=x86-64 -g -O0 -fpre-include=/usr/include/finclude/math-vector-fortran.h
REM seed -931326760 -1437357746 1667077571 -278860795 -819692393 -851742926 -1032279474 708760534 753545752 -144682365 360571505 1551337764 -135842408 1882255459 -2000994892 -1171736293 940958261 190963753 1477657608 -1381475063 -624062101 -450890587 -399712516 1216032018 1372458556 202021239 -256991547 1481539532 821328812 -574923192 -292237763 1571255175 -1364547926
REM
CELL 1.54180   15.00000   15.00000   15.00000   90.00000   90.00000   90.00000
LATT -1
SFAC C  
C      1  0.6352120000000  0.2485690000000  0.4433340000000 1.0
C      1  0.7185770000000  0.6232400000000  0.4516480000000 1.0
C      1  0.4862170000000  0.6541890000000  0.7560340000000 1.0
C      1  0.3054480000000  0.5189580000000  0.4193080000000 1.0
C      1  0.5313590000000  0.2966170000000  0.5750570000000 1.0
C      1  0.6677490000000  0.4762350000000  0.4891090000000 1.0
C      1  0.3385070000000  0.4578910000000  0.3055420000000 1.0
C      1  0.3375210000000  0.5525370000000  0.2932950000000 1.0
C      1  0.5799900000000  0.2982060000000  0.3637030000000 1.0
C      1  0.6686450000000  0.6924870000000  0.4979630000000 1.0
C      1  0.2418150000000  0.5685710000000  0.5608460000000 1.0
C      1  0.5862680000000  0.5103040000000  0.6084020000000 1.0
C      1  0.7218840000000  0.2315690000000  0.4618700000000 1.0
C      1  0.3952510000000  0.4516160000000  0.4362420000000 1.0
C      1  0.6056380000000  0.4048710000000  0.3453640000000 1.0
C      1  0.4906220000000  0.4978740000000  0.3358070000000 1.0
C      1  0.5851190000000  0.6145690000000  0.5662560000000 1.0
C      1  0.5415020000000  0.5364260000000  0.2661220000000 1.0
C      1  0.4584010000000  0.4966100000000  0.7449230000000 1.0
C      1  0.5093170000000  0.3684390000000  0.3112990000000 1.0
C      1  0.6543300000000  0.4308670000000  0.5887300000000 1.0
C      1  0.4672770000000  0.3954510000000  0.7182820000000 1.0
C      1  0.5620410000000  0.6042240000000  0.3787820000000 1.0
C      1  0.4221630000000  0.6298430000000  0.5031010000000 1.0
C      1  0.3976450000000  0.6118810000000  0.3266540000000 1.0
C      1  0.4875940000000  0.5265610000000  0.5566660000000 1.0
C      1  0.5299050000000  0.3412620000000  0.6793420000000 1.0
C      1  0.3074400000000  0.3515890000000  0.4321390000000 1.0
C      1  0.7207150000000  0.5215590000000  0.6017690000000 1.0
C      1  0.5900750000000  0.5534220000000  0.4761890000000 1.0
C      1  0.2870820000000  0.3541730000000  0.5246720000000 1.0
C      1  0.3622710000000  0.5632290000000  0.5039280000000 1.0
C      1  0.4914670000000  0.5116140000000  0.4429690000000 1.0
C      1  0.3153720000000  0.4041410000000  0.5966220000000 1.0
C      1  0.4281340000000  0.4439680000000  0.5380780000000 1.0
C      1  0.6203450000000  0.3456790000000  0.6210520000000 1.0
C      1  0.2318630000000  0.5698560000000  0.4770210000000 1.0
C      1  0.4322460000000  0.7914680000000  0.4396700000000 1.0
C      1  0.6011780000000  0.5570370000000  0.7069080000000 1.0
C      1  0.5815270000000  0.7185840000000  0.4668460000000 1.0
C      1  0.6816560000000  0.5907000000000  0.6549140000000 1.0
C      1  0.3743220000000  0.4196130000000  0.6771910000000 1.0
C      1  0.7474940000000  0.5508260000000  0.5085230000000 1.0
C      1  0.5451020000000  0.2599050000000  0.4855770000000 1.0
C      1  0.6154940000000  0.5977900000000  0.2785470000000 1.0
C      1  0.4054400000000  0.3411890000000  0.4121930000000 1.0
C      1  0.4820730000000  0.6359590000000  0.5893650000000 1.0
C      1  0.4282580000000  0.4241000000000  0.3056960000000 1.0
C      1  0.4466530000000  0.3634610000000  0.5776650000000 1.0
C      1  0.4627450000000  0.6875800000000  0.6741600000000 1.0
C      1  0.3270290000000  0.5157990000000  0.5991360000000 1.0
C      1  0.6528980000000  0.4736230000000  0.3834270000000 1.0
C      1  0.6722970000000  0.5819640000000  0.3718890000000 1.0
C      1  0.4681420000000  0.6385130000000  0.3731520000000 1.0
C      1  0.5228800000000  0.5663160000000  0.7572370000000 1.0
C      1  0.2768770000000  0.4232870000000  0.3770740000000 1.0
C      1  0.4770160000000  0.7103460000000  0.4485420000000 1.0
C      1  0.3704040000000  0.5260710000000  0.6986580000000 1.0
C      1  0.6681510000000  0.6765880000000  0.6000190000000 1.0
C      1  0.4793570000000  0.2901840000000  0.4154930000000 1.0
END
