TITL C-986976-6631-761 0.0124546724892656 3375 -383.284481115629 0 0 60 (C6) n - 1
REM
REM in /home/bkarasulu/work/CARBON/AIRSS/Generating-Clusters/REBO/Higher-Symm/Only-C60
REM
REM
REM
REM
REM
REM ./C.cell (a2850807a9bf4ad07a5b6933b78d9264)
REM AIRSS Version 0.9.1 bugfix July 2018 build 013d7b7c2542+ Fri, 06 Jul 2018 19:26:36 +0100
REM compiler GCC version 9.2.1 20190827 (Red Hat 9.2.1-1)
REM options -cpp -mtune=generic -march=x86-64 -g -O0 -fpre-include=/usr/include/finclude/math-vector-fortran.h
REM seed 731365256 1070773379 -81828758 -917695610 -883154237 461773864 410676186 -1452295736 -56227046 -939755851 -1148697881 387855479 -193470186 796184582 -993100073 61548669 25304411 626367162 1356406664 1694397174 1018962800 -548395118 -1270583904 -1036609953 1276196101 1541956475 -182859505 -467308951 1864431966 792758759 1273835373 354769442 1462510034
REM
CELL 1.54180   15.00000   15.00000   15.00000   90.00000   90.00000   90.00000
LATT -1
SFAC C  
C      1  0.5376190000000  0.6798590000000  0.4654990000000 1.0
C      1  0.3630730000000  0.6224480000000  0.4655500000000 1.0
C      1  0.3255370000000  0.4425610000000  0.4654190000000 1.0
C      1  0.4623990000000  0.3201500000000  0.4654680000000 1.0
C      1  0.6370150000000  0.3775050000000  0.4654610000000 1.0
C      1  0.6745810000000  0.5574190000000  0.4654500000000 1.0
C      1  0.3291790000000  0.4453120000000  0.3687130000000 1.0
C      1  0.4619560000000  0.3246920000000  0.3686580000000 1.0
C      1  0.6328060000000  0.3793850000000  0.3686670000000 1.0
C      1  0.6708840000000  0.5546820000000  0.3686450000000 1.0
C      1  0.5380860000000  0.6752700000000  0.3686760000000 1.0
C      1  0.3672610000000  0.6205900000000  0.3687470000000 1.0
C      1  0.3748200000000  0.7128200000000  0.6079610000000 1.0
C      1  0.2531270000000  0.4978170000000  0.6079220000000 1.0
C      1  0.3783890000000  0.2850900000000  0.6078790000000 1.0
C      1  0.6251320000000  0.2871770000000  0.6078780000000 1.0
C      1  0.7468350000000  0.5020790000000  0.6079080000000 1.0
C      1  0.6216520000000  0.7148500000000  0.6079010000000 1.0
C      1  0.3426200000000  0.5343360000000  0.3246540000000 1.0
C      1  0.3915780000000  0.3808430000000  0.3246400000000 1.0
C      1  0.5490070000000  0.3465150000000  0.3245720000000 1.0
C      1  0.6574360000000  0.4656280000000  0.3245640000000 1.0
C      1  0.6084480000000  0.6191440000000  0.3246100000000 1.0
C      1  0.4510610000000  0.6534600000000  0.3246320000000 1.0
C      1  0.4264070000000  0.5626090000000  0.6835170000000 1.0
C      1  0.4090060000000  0.4675710000000  0.6834920000000 1.0
C      1  0.4826030000000  0.4049520000000  0.6834380000000 1.0
C      1  0.5735700000000  0.4374370000000  0.6834260000000 1.0
C      1  0.5909160000000  0.5324040000000  0.6834550000000 1.0
C      1  0.5174180000000  0.5950880000000  0.6834490000000 1.0
C      1  0.5949900000000  0.4792050000000  0.2479230000000 1.0
C      1  0.5655310000000  0.5718550000000  0.2479710000000 1.0
C      1  0.4705610000000  0.5926800000000  0.2479580000000 1.0
C      1  0.4050320000000  0.5208430000000  0.2479910000000 1.0
C      1  0.4344610000000  0.4281500000000  0.2479740000000 1.0
C      1  0.5294610000000  0.4073580000000  0.2478980000000 1.0
C      1  0.5341080000000  0.6859460000000  0.6562880000000 1.0
C      1  0.3558640000000  0.6226250000000  0.6562520000000 1.0
C      1  0.3216980000000  0.4365970000000  0.6562720000000 1.0
C      1  0.4657870000000  0.3140280000000  0.6561740000000 1.0
C      1  0.6439710000000  0.3774480000000  0.6561330000000 1.0
C      1  0.6782040000000  0.5633840000000  0.6561500000000 1.0
C      1  0.7289210000000  0.4104460000000  0.6059380000000 1.0
C      1  0.6919890000000  0.6535010000000  0.6059680000000 1.0
C      1  0.4631170000000  0.7430590000000  0.6059400000000 1.0
C      1  0.2710930000000  0.5896890000000  0.6059980000000 1.0
C      1  0.3078580000000  0.3466880000000  0.6060280000000 1.0
C      1  0.5367650000000  0.2569620000000  0.6059290000000 1.0
C      1  0.2652470000000  0.4181840000000  0.5376520000000 1.0
C      1  0.4536470000000  0.2558230000000  0.5376990000000 1.0
C      1  0.6882800000000  0.3377270000000  0.5376990000000 1.0
C      1  0.7346900000000  0.5818010000000  0.5376720000000 1.0
C      1  0.5463820000000  0.7441730000000  0.5376460000000 1.0
C      1  0.3117090000000  0.6622850000000  0.5377300000000 1.0
C      1  0.5890430000000  0.5290390000000  0.5020340000000 1.0
C      1  0.5193720000000  0.5915940000000  0.5020680000000 1.0
C      1  0.4303570000000  0.5625150000000  0.5020800000000 1.0
C      1  0.4110310000000  0.4708920000000  0.5021260000000 1.0
C      1  0.4807010000000  0.4083560000000  0.5020050000000 1.0
C      1  0.5697060000000  0.4374530000000  0.5019550000000 1.0
END
