TITL C-986975-4297-373 -4.39076493493787e-06 3375 -372.089436161839 0 0 60 (C1) n - 1
REM
REM in /home/bkarasulu/work/CARBON/AIRSS/Generating-Clusters/REBO/Higher-Symm/Only-C60
REM
REM
REM
REM
REM
REM ./C.cell (a2850807a9bf4ad07a5b6933b78d9264)
REM AIRSS Version 0.9.1 bugfix July 2018 build 013d7b7c2542+ Fri, 06 Jul 2018 19:26:36 +0100
REM compiler GCC version 9.2.1 20190827 (Red Hat 9.2.1-1)
REM options -cpp -mtune=generic -march=x86-64 -g -O0 -fpre-include=/usr/include/finclude/math-vector-fortran.h
REM seed -1550218208 1425602347 -714297431 903406343 1706256350 -1861393941 1532389371 503670273 2111748861 -946031845 -2002857251 -1596388127 -992003237 2076554932 1027098992 -969995744 502503608 1356215945 -1156862421 1684801709 -2030557568 -55830046 259194630 -1061987301 -39906323 -1345964816 1651454523 -757692667 231711265 -1252766042 -1158277221 -125453172 895865870
REM
CELL 1.54180   15.00000   15.00000   15.00000   90.00000   90.00000   90.00000
LATT -1
SFAC C  
C      1  0.7055510000000  0.4429490000000  0.6516270000000 1.0
C      1  0.6971300000000  0.6253050000000  0.6053740000000 1.0
C      1  0.7101340000000  0.6217930000000  0.4118920000000 1.0
C      1  0.7007490000000  0.4516150000000  0.3359810000000 1.0
C      1  0.7121370000000  0.3450360000000  0.4948080000000 1.0
C      1  0.6945460000000  0.5483140000000  0.6604410000000 1.0
C      1  0.7075460000000  0.3646910000000  0.5992670000000 1.0
C      1  0.7114250000000  0.3726850000000  0.4059460000000 1.0
C      1  0.7014910000000  0.5460940000000  0.3378580000000 1.0
C      1  0.7070730000000  0.6467030000000  0.5015830000000 1.0
C      1  0.2524160000000  0.5600800000000  0.6751880000000 1.0
C      1  0.2722190000000  0.6484970000000  0.5106920000000 1.0
C      1  0.2849090000000  0.5441340000000  0.3544910000000 1.0
C      1  0.2721530000000  0.3697510000000  0.4246650000000 1.0
C      1  0.2775330000000  0.3829940000000  0.6158060000000 1.0
C      1  0.2735490000000  0.4642910000000  0.6735840000000 1.0
C      1  0.2776180000000  0.3510880000000  0.5224010000000 1.0
C      1  0.2737540000000  0.4454190000000  0.3637620000000 1.0
C      1  0.2751720000000  0.6198240000000  0.4155270000000 1.0
C      1  0.2663420000000  0.6309030000000  0.6076720000000 1.0
C      1  0.4652090000000  0.6995840000000  0.6181600000000 1.0
C      1  0.4771640000000  0.6769290000000  0.3391140000000 1.0
C      1  0.4622920000000  0.4088410000000  0.2868400000000 1.0
C      1  0.4718170000000  0.2887170000000  0.5222350000000 1.0
C      1  0.4708220000000  0.4455180000000  0.7248650000000 1.0
C      1  0.4742290000000  0.2997260000000  0.6208420000000 1.0
C      1  0.4737690000000  0.3286170000000  0.3430180000000 1.0
C      1  0.4663100000000  0.6001750000000  0.2786490000000 1.0
C      1  0.4676550000000  0.7119830000000  0.5197990000000 1.0
C      1  0.4565090000000  0.5436330000000  0.7160590000000 1.0
C      1  0.3798170000000  0.6417930000000  0.3736190000000 1.0
C      1  0.3707150000000  0.4537300000000  0.3084360000000 1.0
C      1  0.3839530000000  0.3349350000000  0.4858060000000 1.0
C      1  0.3847920000000  0.4460090000000  0.6614210000000 1.0
C      1  0.3776800000000  0.6448830000000  0.5911790000000 1.0
C      1  0.3783780000000  0.3648920000000  0.3805610000000 1.0
C      1  0.3737650000000  0.5587460000000  0.2945430000000 1.0
C      1  0.3795960000000  0.6693200000000  0.4795670000000 1.0
C      1  0.3660470000000  0.5588630000000  0.6579530000000 1.0
C      1  0.3869770000000  0.3582280000000  0.5974500000000 1.0
C      1  0.6271570000000  0.5900870000000  0.2758460000000 1.0
C      1  0.6335880000000  0.3377090000000  0.3462380000000 1.0
C      1  0.6335450000000  0.2939120000000  0.6271890000000 1.0
C      1  0.6174020000000  0.5519670000000  0.7341040000000 1.0
C      1  0.6297350000000  0.7107390000000  0.5295280000000 1.0
C      1  0.6232830000000  0.4111930000000  0.2751660000000 1.0
C      1  0.6361270000000  0.6608630000000  0.3499510000000 1.0
C      1  0.6237420000000  0.6979920000000  0.6312870000000 1.0
C      1  0.6301270000000  0.4507760000000  0.7231980000000 1.0
C      1  0.6340680000000  0.2829950000000  0.5249060000000 1.0
C      1  0.5558210000000  0.6999870000000  0.3834020000000 1.0
C      1  0.5396930000000  0.4544380000000  0.2575590000000 1.0
C      1  0.5524750000000  0.2783650000000  0.4750490000000 1.0
C      1  0.5508460000000  0.3976410000000  0.7217570000000 1.0
C      1  0.5389140000000  0.6783110000000  0.6705770000000 1.0
C      1  0.5535050000000  0.3007440000000  0.3824610000000 1.0
C      1  0.5425720000000  0.5503060000000  0.2549770000000 1.0
C      1  0.5507770000000  0.7199020000000  0.4763790000000 1.0
C      1  0.5341130000000  0.5976490000000  0.7215200000000 1.0
C      1  0.5515700000000  0.3171350000000  0.6702250000000 1.0
END
