TITL C-986974-580-103 4.62692106166229e-05 3375 -315.412136268562 0 0 60 (Ci) n - 1
REM
REM in /home/bkarasulu/work/CARBON/AIRSS/Generating-Clusters/REBO/Higher-Symm/Only-C60
REM
REM
REM
REM
REM
REM ./C.cell (a2850807a9bf4ad07a5b6933b78d9264)
REM AIRSS Version 0.9.1 bugfix July 2018 build 013d7b7c2542+ Fri, 06 Jul 2018 19:26:36 +0100
REM compiler GCC version 9.2.1 20190827 (Red Hat 9.2.1-1)
REM options -cpp -mtune=generic -march=x86-64 -g -O0 -fpre-include=/usr/include/finclude/math-vector-fortran.h
REM seed 1575949774 1489253284 577660429 -1185244849 -353843165 1071119963 1830144246 -1460392969 410220318 -1697259566 2004176369 -848267748 -2114287731 980026266 -1461771997 -1674167832 -1213085670 -1331129083 -1350798406 -1857756230 1617258983 81979871 -171557966 -140945311 1128195647 -1314252940 -2134561401 965802772 734526926 -1066828027 -503770894 1367288654 -905033944
REM
CELL 1.54180   15.00000   15.00000   15.00000   90.00000   90.00000   90.00000
LATT -1
SFAC C  
C      1  0.6247520000000  0.1959730000000  0.4863230000000 1.0
C      1  0.5847530000000  0.8134840000000  0.4200910000000 1.0
C      1  0.5227190000000  0.2079790000000  0.3326030000000 1.0
C      1  0.4244960000000  0.7940680000000  0.3411720000000 1.0
C      1  0.3548590000000  0.1854100000000  0.4208720000000 1.0
C      1  0.3769430000000  0.8037800000000  0.5128710000000 1.0
C      1  0.4119690000000  0.1859480000000  0.5815110000000 1.0
C      1  0.4784940000000  0.7935620000000  0.6671390000000 1.0
C      1  0.5737340000000  0.2022590000000  0.6560840000000 1.0
C      1  0.6469310000000  0.8150110000000  0.5794190000000 1.0
C      1  0.6133850000000  0.6879500000000  0.3990640000000 1.0
C      1  0.4991510000000  0.3110210000000  0.3719560000000 1.0
C      1  0.4424990000000  0.6701650000000  0.3652800000000 1.0
C      1  0.3642910000000  0.3164560000000  0.4148850000000 1.0
C      1  0.3589200000000  0.6739000000000  0.5179350000000 1.0
C      1  0.3877860000000  0.3125590000000  0.6008910000000 1.0
C      1  0.5017130000000  0.6901510000000  0.6286070000000 1.0
C      1  0.5563590000000  0.3290820000000  0.6327560000000 1.0
C      1  0.6358730000000  0.6840790000000  0.5851150000000 1.0
C      1  0.6413210000000  0.3260540000000  0.4837950000000 1.0
C      1  0.3336480000000  0.5727450000000  0.4734480000000 1.0
C      1  0.3237070000000  0.4004590000000  0.5789020000000 1.0
C      1  0.3952890000000  0.5481150000000  0.6440230000000 1.0
C      1  0.5195760000000  0.4268420000000  0.6750640000000 1.0
C      1  0.6359090000000  0.5790520000000  0.6296560000000 1.0
C      1  0.6659890000000  0.4276390000000  0.5270190000000 1.0
C      1  0.6758630000000  0.5991930000000  0.4210680000000 1.0
C      1  0.6048190000000  0.4508230000000  0.3558620000000 1.0
C      1  0.4811810000000  0.5724330000000  0.3252970000000 1.0
C      1  0.3638530000000  0.4214070000000  0.3702070000000 1.0
C      1  0.3730580000000  0.7376490000000  0.4249720000000 1.0
C      1  0.3580700000000  0.2522820000000  0.5093000000000 1.0
C      1  0.4071100000000  0.7404950000000  0.5966100000000 1.0
C      1  0.4735690000000  0.2525300000000  0.6450170000000 1.0
C      1  0.5863050000000  0.7613910000000  0.6523630000000 1.0
C      1  0.6268760000000  0.2606630000000  0.5755990000000 1.0
C      1  0.6417450000000  0.7485300000000  0.4908500000000 1.0
C      1  0.5937900000000  0.2606130000000  0.4037580000000 1.0
C      1  0.5262250000000  0.7460240000000  0.3550080000000 1.0
C      1  0.4148130000000  0.2395560000000  0.3478750000000 1.0
C      1  0.5697140000000  0.4023820000000  0.4386360000000 1.0
C      1  0.5430620000000  0.6002930000000  0.4154570000000 1.0
C      1  0.4680390000000  0.3984910000000  0.4107910000000 1.0
C      1  0.4382580000000  0.5936220000000  0.4489470000000 1.0
C      1  0.3978080000000  0.3905380000000  0.4944400000000 1.0
C      1  0.4305270000000  0.5967100000000  0.5614990000000 1.0
C      1  0.4565090000000  0.4013890000000  0.5845830000000 1.0
C      1  0.5316810000000  0.6026310000000  0.5894730000000 1.0
C      1  0.5611740000000  0.4072720000000  0.5507540000000 1.0
C      1  0.6017710000000  0.6102670000000  0.5055700000000 1.0
C      1  0.5369430000000  0.4796700000000  0.2991520000000 1.0
C      1  0.4300900000000  0.4731930000000  0.3075130000000 1.0
C      1  0.3005160000000  0.4823380000000  0.4176200000000 1.0
C      1  0.2824160000000  0.4906350000000  0.5264340000000 1.0
C      1  0.3176800000000  0.4969340000000  0.6303940000000 1.0
C      1  0.4630030000000  0.5193870000000  0.7009000000000 1.0
C      1  0.5697170000000  0.5268400000000  0.6919840000000 1.0
C      1  0.6993870000000  0.5181540000000  0.5823870000000 1.0
C      1  0.7173320000000  0.5092940000000  0.4735740000000 1.0
C      1  0.6820280000000  0.5026300000000  0.3696270000000 1.0
END
