TITL C-986978-6805-475 1.96398766567412e-05 3375 -341.529888372998 0 0 60 (C1) n - 1
REM
REM in /home/bkarasulu/work/CARBON/AIRSS/Generating-Clusters/REBO/Higher-Symm/Only-C60
REM
REM
REM
REM
REM
REM ./C.cell (a2850807a9bf4ad07a5b6933b78d9264)
REM AIRSS Version 0.9.1 bugfix July 2018 build 013d7b7c2542+ Fri, 06 Jul 2018 19:26:36 +0100
REM compiler GCC version 9.2.1 20190827 (Red Hat 9.2.1-1)
REM options -cpp -mtune=generic -march=x86-64 -g -O0 -fpre-include=/usr/include/finclude/math-vector-fortran.h
REM seed -943412157 1620054241 -1270823302 988129155 -1287923629 -822090139 634422964 130846852 794817807 -1848980680 -1052823638 -370690351 -1225361350 -2042403182 -1692545412 -1976209901 554044485 2145346443 47179858 -1746002985 -1862147195 1405459845 1993936044 1360094220 1857606502 -507630548 -1373436169 -1930813843 -1878589138 1811321964 -158103276 1431289834 -152943631
REM
CELL 1.54180   15.00000   15.00000   15.00000   90.00000   90.00000   90.00000
LATT -1
SFAC C  
C      1  0.4872040000000  0.4446640000000  0.3396430000000 1.0
C      1  0.5103500000000  0.4477020000000  0.6605830000000 1.0
C      1  0.6205450000000  0.5519560000000  0.3201890000000 1.0
C      1  0.3812020000000  0.5509700000000  0.6966280000000 1.0
C      1  0.4278450000000  0.4080440000000  0.6791730000000 1.0
C      1  0.5696050000000  0.4063310000000  0.3234470000000 1.0
C      1  0.6698330000000  0.4011510000000  0.2927180000000 1.0
C      1  0.3268100000000  0.4014670000000  0.7067410000000 1.0
C      1  0.5900690000000  0.4944150000000  0.4688290000000 1.0
C      1  0.4018790000000  0.4860820000000  0.5335340000000 1.0
C      1  0.6283330000000  0.6899830000000  0.6000830000000 1.0
C      1  0.3693870000000  0.6893820000000  0.3968410000000 1.0
C      1  0.5464460000000  0.2758010000000  0.4966920000000 1.0
C      1  0.4515070000000  0.2752550000000  0.5044300000000 1.0
C      1  0.5012810000000  0.4964740000000  0.5670990000000 1.0
C      1  0.4902200000000  0.4967090000000  0.4346120000000 1.0
C      1  0.5718340000000  0.2998050000000  0.4093270000000 1.0
C      1  0.4261390000000  0.3019010000000  0.5911070000000 1.0
C      1  0.4088380000000  0.3192780000000  0.4199830000000 1.0
C      1  0.5882880000000  0.3233620000000  0.5795730000000 1.0
C      1  0.7518070000000  0.6297080000000  0.4308170000000 1.0
C      1  0.2982060000000  0.6310860000000  0.5272160000000 1.0
C      1  0.5042360000000  0.3054850000000  0.6423040000000 1.0
C      1  0.4939300000000  0.3023080000000  0.3578980000000 1.0
C      1  0.5418670000000  0.5845950000000  0.5223080000000 1.0
C      1  0.4415910000000  0.5796350000000  0.4818840000000 1.0
C      1  0.4008420000000  0.6579900000000  0.6818020000000 1.0
C      1  0.5997390000000  0.6569650000000  0.3433360000000 1.0
C      1  0.5395530000000  0.6703180000000  0.5781380000000 1.0
C      1  0.4543800000000  0.6713010000000  0.4352920000000 1.0
C      1  0.3484470000000  0.3732150000000  0.5994360000000 1.0
C      1  0.6509450000000  0.3692300000000  0.3995690000000 1.0
C      1  0.2207930000000  0.5206990000000  0.3303900000000 1.0
C      1  0.7760960000000  0.5437720000000  0.6468230000000 1.0
C      1  0.6126630000000  0.4977970000000  0.6396870000000 1.0
C      1  0.3837990000000  0.4925910000000  0.3550800000000 1.0
C      1  0.4425730000000  0.5617800000000  0.2956590000000 1.0
C      1  0.5602330000000  0.5605780000000  0.7099530000000 1.0
C      1  0.7030180000000  0.5399780000000  0.5858090000000 1.0
C      1  0.2913160000000  0.5297170000000  0.3917820000000 1.0
C      1  0.3445550000000  0.5059600000000  0.6260530000000 1.0
C      1  0.6554510000000  0.5056030000000  0.3927130000000 1.0
C      1  0.5912040000000  0.4271390000000  0.5570680000000 1.0
C      1  0.4034750000000  0.4235740000000  0.4407010000000 1.0
C      1  0.2745510000000  0.4800530000000  0.4865230000000 1.0
C      1  0.7264210000000  0.4807560000000  0.5027650000000 1.0
C      1  0.7457610000000  0.5354130000000  0.4232900000000 1.0
C      1  0.2830540000000  0.5415590000000  0.5572230000000 1.0
C      1  0.2951450000000  0.3923310000000  0.5125650000000 1.0
C      1  0.7018780000000  0.3929230000000  0.4840770000000 1.0
C      1  0.5263780000000  0.5896380000000  0.2898170000000 1.0
C      1  0.4768710000000  0.5865910000000  0.7251170000000 1.0
C      1  0.3527010000000  0.6843240000000  0.5826500000000 1.0
C      1  0.6550590000000  0.6744890000000  0.4408880000000 1.0
C      1  0.3023410000000  0.6310860000000  0.4308190000000 1.0
C      1  0.6835200000000  0.6390430000000  0.5447310000000 1.0
C      1  0.6893940000000  0.3371880000000  0.5553250000000 1.0
C      1  0.3072800000000  0.3316230000000  0.4450800000000 1.0
C      1  0.4568030000000  0.7035070000000  0.5989080000000 1.0
C      1  0.5445100000000  0.6977220000000  0.4272750000000 1.0
END
