TITL C-986978-6805-424 -6.66834832991524e-06 3375 -344.833036392197 0 0 60 (C1) n - 1
REM
REM in /home/bkarasulu/work/CARBON/AIRSS/Generating-Clusters/REBO/Higher-Symm/Only-C60
REM
REM
REM
REM
REM
REM ./C.cell (a2850807a9bf4ad07a5b6933b78d9264)
REM AIRSS Version 0.9.1 bugfix July 2018 build 013d7b7c2542+ Fri, 06 Jul 2018 19:26:36 +0100
REM compiler GCC version 9.2.1 20190827 (Red Hat 9.2.1-1)
REM options -cpp -mtune=generic -march=x86-64 -g -O0 -fpre-include=/usr/include/finclude/math-vector-fortran.h
REM seed 1746878270 210543223 1221177601 391632626 -519183236 543175844 -694314477 -1778458580 -2095812632 1636695876 996820119 1461966507 -467406021 -1378411110 -126598607 1207251420 1897732509 821791278 -1847989865 -956754459 366126483 948215750 1805520462 1377907190 1128461460 1813612057 -2011653390 -839035866 411521248 277962122 543657251 -1414517387 -1484713345
REM
CELL 1.54180   15.00000   15.00000   15.00000   90.00000   90.00000   90.00000
LATT -1
SFAC C  
C      1  0.4521370000000  0.5852830000000  0.2917190000000 1.0
C      1  0.5941860000000  0.4995290000000  0.3051060000000 1.0
C      1  0.4479800000000  0.4198690000000  0.3118860000000 1.0
C      1  0.5480430000000  0.5832080000000  0.3034340000000 1.0
C      1  0.4017200000000  0.5040230000000  0.3011880000000 1.0
C      1  0.5435560000000  0.4180420000000  0.3164790000000 1.0
C      1  0.2980260000000  0.5039370000000  0.4675110000000 1.0
C      1  0.6100410000000  0.6776810000000  0.4775590000000 1.0
C      1  0.6016720000000  0.3336370000000  0.4795630000000 1.0
C      1  0.6993340000000  0.5017340000000  0.4742250000000 1.0
C      1  0.3791840000000  0.6769030000000  0.4723010000000 1.0
C      1  0.3938040000000  0.3324850000000  0.4651230000000 1.0
C      1  0.5452150000000  0.5971760000000  0.4425670000000 1.0
C      1  0.5460830000000  0.4213070000000  0.4724260000000 1.0
C      1  0.3976080000000  0.5106060000000  0.4389040000000 1.0
C      1  0.4419510000000  0.6002640000000  0.4235820000000 1.0
C      1  0.4471750000000  0.4202830000000  0.4497330000000 1.0
C      1  0.5970380000000  0.5093270000000  0.4546530000000 1.0
C      1  0.3824160000000  0.3598490000000  0.6700180000000 1.0
C      1  0.4436600000000  0.6837530000000  0.6728200000000 1.0
C      1  0.6748480000000  0.4509490000000  0.6771820000000 1.0
C      1  0.6340550000000  0.3566450000000  0.6826290000000 1.0
C      1  0.5472680000000  0.6798220000000  0.6812980000000 1.0
C      1  0.3419920000000  0.4538510000000  0.6670510000000 1.0
C      1  0.2917350000000  0.3119000000000  0.5101000000000 1.0
C      1  0.4505370000000  0.7574850000000  0.5043690000000 1.0
C      1  0.7535850000000  0.4054410000000  0.5033160000000 1.0
C      1  0.7073690000000  0.3101610000000  0.5150720000000 1.0
C      1  0.5542850000000  0.7655460000000  0.5186330000000 1.0
C      1  0.2464370000000  0.4076870000000  0.5016930000000 1.0
C      1  0.5581830000000  0.5845420000000  0.5567270000000 1.0
C      1  0.5544400000000  0.3986980000000  0.5852130000000 1.0
C      1  0.3996160000000  0.4902090000000  0.5524860000000 1.0
C      1  0.4509900000000  0.5846090000000  0.5359270000000 1.0
C      1  0.4525910000000  0.3985250000000  0.5641000000000 1.0
C      1  0.6068380000000  0.4899610000000  0.5690400000000 1.0
C      1  0.4560300000000  0.5936450000000  0.7237420000000 1.0
C      1  0.6056290000000  0.5093350000000  0.7266720000000 1.0
C      1  0.4602430000000  0.4166490000000  0.7141130000000 1.0
C      1  0.5607700000000  0.5906760000000  0.7333510000000 1.0
C      1  0.4118490000000  0.5118750000000  0.7144380000000 1.0
C      1  0.5548570000000  0.4155130000000  0.7208740000000 1.0
C      1  0.7370980000000  0.4359380000000  0.3942270000000 1.0
C      1  0.3014880000000  0.3411740000000  0.4001580000000 1.0
C      1  0.4351940000000  0.7297020000000  0.3928010000000 1.0
C      1  0.2525250000000  0.4370410000000  0.3913730000000 1.0
C      1  0.6880990000000  0.3407740000000  0.4070020000000 1.0
C      1  0.5402560000000  0.7349090000000  0.4087000000000 1.0
C      1  0.3081430000000  0.4985720000000  0.3211000000000 1.0
C      1  0.5845710000000  0.6660150000000  0.3356280000000 1.0
C      1  0.5961360000000  0.3442590000000  0.3469210000000 1.0
C      1  0.6886050000000  0.4893400000000  0.3167680000000 1.0
C      1  0.4148090000000  0.6723660000000  0.3077380000000 1.0
C      1  0.3899970000000  0.3468060000000  0.3332120000000 1.0
C      1  0.2925350000000  0.4780270000000  0.5778390000000 1.0
C      1  0.5907400000000  0.6844410000000  0.5894600000000 1.0
C      1  0.6230810000000  0.3104250000000  0.5892350000000 1.0
C      1  0.7155430000000  0.4760170000000  0.5835810000000 1.0
C      1  0.4132360000000  0.6795170000000  0.5786790000000 1.0
C      1  0.3829660000000  0.3120570000000  0.5767570000000 1.0
END
