TITL C-986976-6631-980 -7.86020390894817e-06 3375 -338.789484240822 0 0 60 (C1) n - 1
REM
REM in /home/bkarasulu/work/CARBON/AIRSS/Generating-Clusters/REBO/Higher-Symm/Only-C60
REM
REM
REM
REM
REM
REM ./C.cell (a2850807a9bf4ad07a5b6933b78d9264)
REM AIRSS Version 0.9.1 bugfix July 2018 build 013d7b7c2542+ Fri, 06 Jul 2018 19:26:36 +0100
REM compiler GCC version 9.2.1 20190827 (Red Hat 9.2.1-1)
REM options -cpp -mtune=generic -march=x86-64 -g -O0 -fpre-include=/usr/include/finclude/math-vector-fortran.h
REM seed 2104235182 1046737827 -1163368417 -2114717612 1450358378 -1485665920 1570217365 -529210347 1431380201 -948156388 -630237932 1206075534 1572986387 1780229213 -19692923 1072282658 798179234 226784938 -834321098 203394252 81949708 1599147446 -260813296 -18329689 -609075140 1761794350 -1347475317 -1078372514 -535949657 -835731939 334453453 1941104967 -1825971180
REM
CELL 1.54180   15.00000   15.00000   15.00000   90.00000   90.00000   90.00000
LATT -1
SFAC C  
C      1  0.4499740000000  0.6138760000000  0.2582990000000 1.0
C      1  0.5417510000000  0.6109100000000  0.2585040000000 1.0
C      1  0.6040320000000  0.5209280000000  0.7323670000000 1.0
C      1  0.3939980000000  0.5188470000000  0.7323840000000 1.0
C      1  0.5960100000000  0.5352050000000  0.4010220000000 1.0
C      1  0.3948120000000  0.5395830000000  0.4002230000000 1.0
C      1  0.3938760000000  0.2925210000000  0.5346220000000 1.0
C      1  0.6103110000000  0.2943960000000  0.5361520000000 1.0
C      1  0.6178160000000  0.3364890000000  0.6416320000000 1.0
C      1  0.3809930000000  0.3353150000000  0.6394330000000 1.0
C      1  0.6153630000000  0.5972070000000  0.3105560000000 1.0
C      1  0.3764450000000  0.6042410000000  0.3117930000000 1.0
C      1  0.4343460000000  0.2511990000000  0.3746890000000 1.0
C      1  0.5391430000000  0.2573360000000  0.3863320000000 1.0
C      1  0.5467460000000  0.6359960000000  0.4173450000000 1.0
C      1  0.4482020000000  0.6379560000000  0.4182110000000 1.0
C      1  0.5479930000000  0.5449790000000  0.5472450000000 1.0
C      1  0.4525110000000  0.5450140000000  0.5494790000000 1.0
C      1  0.4167620000000  0.7309370000000  0.4755310000000 1.0
C      1  0.5820760000000  0.7289670000000  0.4724650000000 1.0
C      1  0.6950050000000  0.5380410000000  0.5823790000000 1.0
C      1  0.3059340000000  0.5393610000000  0.5828690000000 1.0
C      1  0.6465610000000  0.5805660000000  0.6725920000000 1.0
C      1  0.3534620000000  0.5807420000000  0.6736260000000 1.0
C      1  0.6916960000000  0.3437390000000  0.4776330000000 1.0
C      1  0.3238220000000  0.3528060000000  0.4713510000000 1.0
C      1  0.2921170000000  0.6260750000000  0.5108280000000 1.0
C      1  0.7055280000000  0.6220880000000  0.5068080000000 1.0
C      1  0.5452410000000  0.4538590000000  0.6843500000000 1.0
C      1  0.4536000000000  0.4531340000000  0.6838650000000 1.0
C      1  0.2914270000000  0.3641720000000  0.5795910000000 1.0
C      1  0.7113480000000  0.3639890000000  0.5874520000000 1.0
C      1  0.5780500000000  0.4615670000000  0.5103550000000 1.0
C      1  0.4206500000000  0.4622080000000  0.5137110000000 1.0
C      1  0.5464460000000  0.4457130000000  0.4064670000000 1.0
C      1  0.4419830000000  0.4517820000000  0.4103340000000 1.0
C      1  0.6609070000000  0.7061770000000  0.5438100000000 1.0
C      1  0.3398370000000  0.7079570000000  0.5488710000000 1.0
C      1  0.5865110000000  0.6129370000000  0.6007340000000 1.0
C      1  0.4148470000000  0.6133020000000  0.6029630000000 1.0
C      1  0.3016620000000  0.5330560000000  0.4505470000000 1.0
C      1  0.6901650000000  0.5268840000000  0.4504470000000 1.0
C      1  0.4474660000000  0.2304810000000  0.4775780000000 1.0
C      1  0.5531820000000  0.2316600000000  0.4844440000000 1.0
C      1  0.7117830000000  0.4485860000000  0.5144930000000 1.0
C      1  0.2882360000000  0.4520660000000  0.5125150000000 1.0
C      1  0.3541690000000  0.4465690000000  0.6280920000000 1.0
C      1  0.6453010000000  0.4472510000000  0.6297290000000 1.0
C      1  0.3736920000000  0.7140330000000  0.3772780000000 1.0
C      1  0.6229730000000  0.7087940000000  0.3738220000000 1.0
C      1  0.4505180000000  0.7100200000000  0.5785200000000 1.0
C      1  0.5511770000000  0.7096870000000  0.5768020000000 1.0
C      1  0.4616520000000  0.3591160000000  0.3516480000000 1.0
C      1  0.5753760000000  0.3547510000000  0.3582520000000 1.0
C      1  0.6752330000000  0.3397690000000  0.3847920000000 1.0
C      1  0.3539970000000  0.3556520000000  0.3823720000000 1.0
C      1  0.6932540000000  0.6245480000000  0.3926110000000 1.0
C      1  0.3007710000000  0.6326060000000  0.3963760000000 1.0
C      1  0.4519910000000  0.3810990000000  0.5656280000000 1.0
C      1  0.5492680000000  0.3812550000000  0.5651840000000 1.0
END
