TITL C-986978-6805-1139 2.22742600217304 3375 -287.89998291306 0 0 60 (C2v) n - 1
REM
REM in /home/bkarasulu/work/CARBON/AIRSS/Generating-Clusters/REBO/Higher-Symm/Only-C60
REM
REM
REM
REM
REM
REM ./C.cell (a2850807a9bf4ad07a5b6933b78d9264)
REM AIRSS Version 0.9.1 bugfix July 2018 build 013d7b7c2542+ Fri, 06 Jul 2018 19:26:36 +0100
REM compiler GCC version 9.2.1 20190827 (Red Hat 9.2.1-1)
REM options -cpp -mtune=generic -march=x86-64 -g -O0 -fpre-include=/usr/include/finclude/math-vector-fortran.h
REM seed -2137551870 -1702949998 -950146048 664495089 -2051471214 -556845447 -1767967723 -947734924 91310647 -1843152366 -43272549 -89364548 711006610 -1844049110 -1913254889 139561248 1759903805 1112242874 -731160130 894127776 514003115 353855339 -962196589 -1002566704 -1031604178 -838563831 875951714 1865389885 1135375832 503398648 354420431 1164196478 -459083403
REM
CELL 1.54180   15.00000   15.00000   15.00000   90.00000   90.00000   90.00000
LATT -1
SFAC C  
C      1  0.6228070000000  0.7001890000000  0.5072870000000 1.0
C      1  0.3771930000000  0.2998120000000  0.5072870000000 1.0
C      1  0.3771550000000  0.7002220000000  0.4924680000000 1.0
C      1  0.6228450000000  0.2997770000000  0.4924680000000 1.0
C      1  0.7001890000000  0.6228070000000  0.5072870000000 1.0
C      1  0.2998120000000  0.3771930000000  0.5072870000000 1.0
C      1  0.7002220000000  0.3771550000000  0.4924670000000 1.0
C      1  0.2997780000000  0.6228440000000  0.4924680000000 1.0
C      1  0.6043870000000  0.6769950000000  0.4083440000000 1.0
C      1  0.3956140000000  0.3230050000000  0.4083440000000 1.0
C      1  0.3959540000000  0.6768150000000  0.5915760000000 1.0
C      1  0.6040500000000  0.3231830000000  0.5915760000000 1.0
C      1  0.6769950000000  0.6043870000000  0.4083440000000 1.0
C      1  0.3230050000000  0.3956140000000  0.4083440000000 1.0
C      1  0.6768170000000  0.3959500000000  0.5915750000000 1.0
C      1  0.3231850000000  0.6040460000000  0.5915760000000 1.0
C      1  0.6032510000000  0.5441560000000  0.7317250000000 1.0
C      1  0.3967440000000  0.4558410000000  0.7317180000000 1.0
C      1  0.3982870000000  0.5436730000000  0.2689070000000 1.0
C      1  0.6017220000000  0.4563650000000  0.2689130000000 1.0
C      1  0.5441590000000  0.6032550000000  0.7317180000000 1.0
C      1  0.4558440000000  0.3967480000000  0.7317250000000 1.0
C      1  0.5436730000000  0.3982880000000  0.2689070000000 1.0
C      1  0.4563650000000  0.6017230000000  0.2689130000000 1.0
C      1  0.6757120000000  0.6018400000000  0.6054040000000 1.0
C      1  0.3243020000000  0.3981700000000  0.6053940000000 1.0
C      1  0.3237880000000  0.6016980000000  0.3938330000000 1.0
C      1  0.6762140000000  0.3983030000000  0.3938330000000 1.0
C      1  0.6018320000000  0.6757000000000  0.6053950000000 1.0
C      1  0.3981620000000  0.3242900000000  0.6054030000000 1.0
C      1  0.6016980000000  0.3237880000000  0.3938340000000 1.0
C      1  0.3983030000000  0.6762140000000  0.3938330000000 1.0
C      1  0.3332310000000  0.4970060000000  0.3773180000000 1.0
C      1  0.6667580000000  0.5030010000000  0.3773070000000 1.0
C      1  0.6731990000000  0.4988290000000  0.6232400000000 1.0
C      1  0.3268090000000  0.5011710000000  0.6232420000000 1.0
C      1  0.4970060000000  0.3332340000000  0.3773180000000 1.0
C      1  0.5030010000000  0.6667600000000  0.3773070000000 1.0
C      1  0.4988270000000  0.6731880000000  0.6232420000000 1.0
C      1  0.5011700000000  0.3267990000000  0.6232400000000 1.0
C      1  0.4072750000000  0.5195900000000  0.4565950000000 1.0
C      1  0.5927170000000  0.4804170000000  0.4565880000000 1.0
C      1  0.5897880000000  0.5187770000000  0.5481010000000 1.0
C      1  0.4102000000000  0.4812080000000  0.5481180000000 1.0
C      1  0.5195900000000  0.4072740000000  0.4565930000000 1.0
C      1  0.4804170000000  0.5927170000000  0.4565900000000 1.0
C      1  0.5187870000000  0.5897990000000  0.5481120000000 1.0
C      1  0.4812170000000  0.4102110000000  0.5481070000000 1.0
C      1  0.4459190000000  0.6300340000000  0.7094940000000 1.0
C      1  0.5540790000000  0.3699680000000  0.7094950000000 1.0
C      1  0.5548350000000  0.6295660000000  0.2884250000000 1.0
C      1  0.4451060000000  0.3702070000000  0.2882520000000 1.0
C      1  0.6300330000000  0.4459220000000  0.7094970000000 1.0
C      1  0.3699680000000  0.5540810000000  0.7094930000000 1.0
C      1  0.6295660000000  0.5548350000000  0.2884260000000 1.0
C      1  0.3702070000000  0.4451060000000  0.2882520000000 1.0
C      1  0.4604060000000  0.4604040000000  0.3685030000000 1.0
C      1  0.5398360000000  0.5398340000000  0.3681830000000 1.0
C      1  0.5501110000000  0.4498900000000  0.6264020000000 1.0
C      1  0.4498750000000  0.5501260000000  0.6264050000000 1.0
END
