TITL C-986975-4297-899 1.96744141917874e-06 3375 -410.523830779632 0 0 60 (Ih) n - 1
REM
REM in /home/bkarasulu/work/CARBON/AIRSS/Generating-Clusters/REBO/Higher-Symm/Only-C60
REM
REM
REM
REM
REM
REM ./C.cell (a2850807a9bf4ad07a5b6933b78d9264)
REM AIRSS Version 0.9.1 bugfix July 2018 build 013d7b7c2542+ Fri, 06 Jul 2018 19:26:36 +0100
REM compiler GCC version 9.2.1 20190827 (Red Hat 9.2.1-1)
REM options -cpp -mtune=generic -march=x86-64 -g -O0 -fpre-include=/usr/include/finclude/math-vector-fortran.h
REM seed 1411607887 1991517466 701225611 1135547569 1934523192 -166300609 1240771956 1832808231 187270998 -1698525585 -1700352384 -1486903052 776325586 729181608 340998037 1988372880 1128640326 -1395234564 -1818228371 712128660 968653949 477758379 424883575 526667008 -1540707343 -1486244785 -287850132 -1306326976 1571946449 702769125 126704708 713689126 1840524225
REM
CELL 1.54180   15.00000   15.00000   15.00000   90.00000   90.00000   90.00000
LATT -1
SFAC C  
C      1  0.4035330000000  0.7049870000000  0.5791210000000 1.0
C      1  0.7049870000000  0.5791210000000  0.4035330000000 1.0
C      1  0.5791210000000  0.4035330000000  0.7049870000000 1.0
C      1  0.4035330000000  0.2950130000000  0.4208790000000 1.0
C      1  0.5964670000000  0.7049870000000  0.4208790000000 1.0
C      1  0.5964670000000  0.2950130000000  0.5791210000000 1.0
C      1  0.7049870000000  0.4208790000000  0.5964670000000 1.0
C      1  0.2950130000000  0.5791210000000  0.5964670000000 1.0
C      1  0.2950130000000  0.4208790000000  0.4035330000000 1.0
C      1  0.5791210000000  0.5964670000000  0.2950130000000 1.0
C      1  0.4208790000000  0.4035330000000  0.2950130000000 1.0
C      1  0.4208790000000  0.5964670000000  0.7049870000000 1.0
C      1  0.5964670000000  0.7049870000000  0.5791210000000 1.0
C      1  0.2950130000000  0.5791210000000  0.4035330000000 1.0
C      1  0.4208790000000  0.4035330000000  0.7049870000000 1.0
C      1  0.5964670000000  0.2950130000000  0.4208790000000 1.0
C      1  0.4035330000000  0.7049870000000  0.4208790000000 1.0
C      1  0.4035330000000  0.2950130000000  0.5791210000000 1.0
C      1  0.2950130000000  0.4208790000000  0.5964670000000 1.0
C      1  0.7049870000000  0.5791210000000  0.5964670000000 1.0
C      1  0.7049870000000  0.4208790000000  0.4035330000000 1.0
C      1  0.4208790000000  0.5964670000000  0.2950130000000 1.0
C      1  0.5791210000000  0.4035330000000  0.2950130000000 1.0
C      1  0.5791210000000  0.5964670000000  0.7049870000000 1.0
C      1  0.5488990000000  0.3244120000000  0.6560880000000 1.0
C      1  0.3244120000000  0.6560880000000  0.5488990000000 1.0
C      1  0.6560880000000  0.5488990000000  0.3244120000000 1.0
C      1  0.5488990000000  0.6755880000000  0.3439120000000 1.0
C      1  0.4511010000000  0.3244120000000  0.3439120000000 1.0
C      1  0.4511010000000  0.6755880000000  0.6560880000000 1.0
C      1  0.3244120000000  0.3439120000000  0.4511010000000 1.0
C      1  0.6755880000000  0.6560880000000  0.4511010000000 1.0
C      1  0.6755880000000  0.3439120000000  0.5488990000000 1.0
C      1  0.6560880000000  0.4511010000000  0.6755880000000 1.0
C      1  0.3439120000000  0.5488990000000  0.6755880000000 1.0
C      1  0.3439120000000  0.4511010000000  0.3244120000000 1.0
C      1  0.4511010000000  0.3244120000000  0.6560880000000 1.0
C      1  0.6755880000000  0.6560880000000  0.5488990000000 1.0
C      1  0.3439120000000  0.5488990000000  0.3244120000000 1.0
C      1  0.4511010000000  0.6755880000000  0.3439120000000 1.0
C      1  0.5488990000000  0.3244120000000  0.3439120000000 1.0
C      1  0.5488990000000  0.6755880000000  0.6560880000000 1.0
C      1  0.6755880000000  0.3439120000000  0.4511010000000 1.0
C      1  0.3244120000000  0.6560880000000  0.4511010000000 1.0
C      1  0.3244120000000  0.3439120000000  0.5488990000000 1.0
C      1  0.3439120000000  0.4511010000000  0.6755880000000 1.0
C      1  0.6560880000000  0.5488990000000  0.6755880000000 1.0
C      1  0.6560880000000  0.4511010000000  0.3244120000000 1.0
C      1  0.7352080000000  0.5000000000000  0.5475680000000 1.0
C      1  0.5000000000000  0.5475680000000  0.2647920000000 1.0
C      1  0.5000000000000  0.4524320000000  0.7352080000000 1.0
C      1  0.5475680000000  0.2647920000000  0.5000000000000 1.0
C      1  0.4524320000000  0.7352080000000  0.5000000000000 1.0
C      1  0.7352080000000  0.5000000000000  0.4524320000000 1.0
C      1  0.2647920000000  0.5000000000000  0.4524320000000 1.0
C      1  0.2647920000000  0.5000000000000  0.5475680000000 1.0
C      1  0.5000000000000  0.5475680000000  0.7352080000000 1.0
C      1  0.5475680000000  0.7352080000000  0.5000000000000 1.0
C      1  0.5000000000000  0.4524320000000  0.2647920000000 1.0
C      1  0.4524320000000  0.2647920000000  0.5000000000000 1.0
END
