TITL C-986978-6805-199 0.0641042602084604 3375 -337.655082229619 0 0 60 (C1) n - 1
REM
REM in /home/bkarasulu/work/CARBON/AIRSS/Generating-Clusters/REBO/Higher-Symm/Only-C60
REM
REM
REM
REM
REM
REM ./C.cell (a2850807a9bf4ad07a5b6933b78d9264)
REM AIRSS Version 0.9.1 bugfix July 2018 build 013d7b7c2542+ Fri, 06 Jul 2018 19:26:36 +0100
REM compiler GCC version 9.2.1 20190827 (Red Hat 9.2.1-1)
REM options -cpp -mtune=generic -march=x86-64 -g -O0 -fpre-include=/usr/include/finclude/math-vector-fortran.h
REM seed -1826542834 1869267747 708683087 282680694 -1259884593 -780034387 620395475 1103344459 -231539155 -1833389732 310030335 830618448 -781842117 1457876252 -1865595533 -1646756761 -1813238729 -1811850216 -1140628233 103762319 1964884765 -1829711529 -563139808 1647371979 526824947 1523522244 326285934 -1785216014 709059634 -1782276154 2040563914 -1796036484 1085766435
REM
CELL 1.54180   15.00000   15.00000   15.00000   90.00000   90.00000   90.00000
LATT -1
SFAC C  
C      1  0.4377920000000  0.2700000000000  0.5919290000000 1.0
C      1  0.7419830000000  0.4969660000000  0.4781470000000 1.0
C      1  0.5898300000000  0.4547150000000  0.4931360000000 1.0
C      1  0.6707160000000  0.5569340000000  0.5209620000000 1.0
C      1  0.7078700000000  0.5253120000000  0.6673730000000 1.0
C      1  0.5347050000000  0.6564380000000  0.5219110000000 1.0
C      1  0.4265350000000  0.6426690000000  0.5470940000000 1.0
C      1  0.5350920000000  0.4023940000000  0.6024940000000 1.0
C      1  0.4732590000000  0.6991400000000  0.4361410000000 1.0
C      1  0.6466920000000  0.5736810000000  0.6111590000000 1.0
C      1  0.3167620000000  0.5437540000000  0.3671750000000 1.0
C      1  0.4422320000000  0.5781120000000  0.2988130000000 1.0
C      1  0.3770810000000  0.5051640000000  0.2784980000000 1.0
C      1  0.5712900000000  0.6969820000000  0.3823850000000 1.0
C      1  0.4556900000000  0.7479780000000  0.5775870000000 1.0
C      1  0.4675820000000  0.3826490000000  0.3728140000000 1.0
C      1  0.5113250000000  0.2817400000000  0.3883380000000 1.0
C      1  0.6367020000000  0.4126070000000  0.5853580000000 1.0
C      1  0.2717320000000  0.5312440000000  0.5635280000000 1.0
C      1  0.3680510000000  0.4810430000000  0.5815130000000 1.0
C      1  0.5413950000000  0.7669680000000  0.6066120000000 1.0
C      1  0.3830600000000  0.4059340000000  0.6467060000000 1.0
C      1  0.7558880000000  0.4162540000000  0.5285530000000 1.0
C      1  0.6235120000000  0.7432530000000  0.5743330000000 1.0
C      1  0.6953460000000  0.3298830000000  0.4997710000000 1.0
C      1  0.4237330000000  0.2707220000000  0.4293470000000 1.0
C      1  0.3702670000000  0.4241900000000  0.3427640000000 1.0
C      1  0.5556590000000  0.6042240000000  0.6152890000000 1.0
C      1  0.5176670000000  0.2985240000000  0.5196230000000 1.0
C      1  0.2987880000000  0.6410340000000  0.5876090000000 1.0
C      1  0.3592760000000  0.3248010000000  0.6021730000000 1.0
C      1  0.2981620000000  0.4462900000000  0.4158290000000 1.0
C      1  0.3082180000000  0.7157720000000  0.5016610000000 1.0
C      1  0.6604830000000  0.6585720000000  0.4028620000000 1.0
C      1  0.5913010000000  0.5549230000000  0.4470330000000 1.0
C      1  0.3968190000000  0.7601640000000  0.4934770000000 1.0
C      1  0.4107220000000  0.6350150000000  0.3890290000000 1.0
C      1  0.6914370000000  0.5501370000000  0.3906500000000 1.0
C      1  0.4735340000000  0.4094810000000  0.6861060000000 1.0
C      1  0.4941840000000  0.4033560000000  0.5041220000000 1.0
C      1  0.4834980000000  0.5722810000000  0.6673930000000 1.0
C      1  0.4086200000000  0.4554070000000  0.4900520000000 1.0
C      1  0.7288960000000  0.4399110000000  0.6270470000000 1.0
C      1  0.6783630000000  0.3467030000000  0.3934970000000 1.0
C      1  0.4173130000000  0.5233950000000  0.4173030000000 1.0
C      1  0.5420430000000  0.4474670000000  0.3877800000000 1.0
C      1  0.5277000000000  0.3038010000000  0.6508030000000 1.0
C      1  0.2701430000000  0.4344320000000  0.5042350000000 1.0
C      1  0.6162030000000  0.3011030000000  0.5767670000000 1.0
C      1  0.3015790000000  0.6470970000000  0.4111980000000 1.0
C      1  0.2857760000000  0.3480880000000  0.5441400000000 1.0
C      1  0.3404540000000  0.5891820000000  0.4978310000000 1.0
C      1  0.5146570000000  0.5530130000000  0.3773000000000 1.0
C      1  0.3824580000000  0.3536310000000  0.4526270000000 1.0
C      1  0.3878640000000  0.5773100000000  0.6215690000000 1.0
C      1  0.6470030000000  0.4508830000000  0.3658540000000 1.0
C      1  0.6026310000000  0.2875400000000  0.4453640000000 1.0
C      1  0.6379870000000  0.6835810000000  0.4967050000000 1.0
C      1  0.4923610000000  0.4994050000000  0.7250300000000 1.0
C      1  0.7020770000000  0.3867510000000  0.2976010000000 1.0
END
