TITL C-986979-5873-131 -6.06316754147611e-05 3375 -336.92992578147 0 0 60 (Th) n - 1
REM
REM in /home/bkarasulu/work/CARBON/AIRSS/Generating-Clusters/REBO/Higher-Symm/Only-C60
REM
REM
REM
REM
REM
REM ./C.cell (a2850807a9bf4ad07a5b6933b78d9264)
REM AIRSS Version 0.9.1 bugfix July 2018 build 013d7b7c2542+ Fri, 06 Jul 2018 19:26:36 +0100
REM compiler GCC version 9.2.1 20190827 (Red Hat 9.2.1-1)
REM options -cpp -mtune=generic -march=x86-64 -g -O0 -fpre-include=/usr/include/finclude/math-vector-fortran.h
REM seed -795739176 2094058364 -859004631 1356257703 -1729237822 282290483 2056523952 -1261444699 1166710767 1122317663 -297252290 319144191 970212392 1585474002 652120691 580714647 -80985645 489611294 1253885098 -2055681683 402665763 1648352720 582042155 -1075562200 1713068160 1027186796 1523351600 -1033481925 99713381 1536099545 -36406639 1212883281 -554399350
REM
CELL 1.54180   15.00000   15.00000   15.00000   90.00000   90.00000   90.00000
LATT -1
SFAC C  
C      1  0.3144400000000  0.4457020000000  0.5872690000000 1.0
C      1  0.5872690000000  0.3144390000000  0.4457020000000 1.0
C      1  0.4457020000000  0.5872690000000  0.3144390000000 1.0
C      1  0.6855600000000  0.5542980000000  0.5872690000000 1.0
C      1  0.6855610000000  0.4457020000000  0.4127310000000 1.0
C      1  0.3144400000000  0.5542980000000  0.4127310000000 1.0
C      1  0.4127310000000  0.6855610000000  0.4457020000000 1.0
C      1  0.4127310000000  0.3144390000000  0.5542980000000 1.0
C      1  0.5872690000000  0.6855610000000  0.5542980000000 1.0
C      1  0.5542980000000  0.4127310000000  0.3144390000000 1.0
C      1  0.5542980000000  0.5872690000000  0.6855610000000 1.0
C      1  0.4457020000000  0.4127300000000  0.6855610000000 1.0
C      1  0.3144400000000  0.4457020000000  0.4127310000000 1.0
C      1  0.5872690000000  0.3144390000000  0.5542980000000 1.0
C      1  0.4457020000000  0.5872690000000  0.6855610000000 1.0
C      1  0.6855600000000  0.5542980000000  0.4127310000000 1.0
C      1  0.6855610000000  0.4457020000000  0.5872690000000 1.0
C      1  0.3144400000000  0.5542980000000  0.5872690000000 1.0
C      1  0.4127310000000  0.6855610000000  0.5542980000000 1.0
C      1  0.4127310000000  0.3144390000000  0.4457020000000 1.0
C      1  0.5872690000000  0.6855610000000  0.4457020000000 1.0
C      1  0.5542980000000  0.4127310000000  0.6855610000000 1.0
C      1  0.5542980000000  0.5872700000000  0.3144390000000 1.0
C      1  0.4457020000000  0.4127310000000  0.3144390000000 1.0
C      1  0.5965550000000  0.4575750000000  0.2271650000000 1.0
C      1  0.2271650000000  0.5965550000000  0.4575750000000 1.0
C      1  0.4575750000000  0.2271650000000  0.5965550000000 1.0
C      1  0.4034450000000  0.5424250000000  0.2271650000000 1.0
C      1  0.4034450000000  0.4575750000000  0.7728350000000 1.0
C      1  0.5965550000000  0.5424250000000  0.7728350000000 1.0
C      1  0.7728350000000  0.4034450000000  0.4575750000000 1.0
C      1  0.7728350000000  0.5965550000000  0.5424250000000 1.0
C      1  0.2271650000000  0.4034450000000  0.5424250000000 1.0
C      1  0.5424250000000  0.7728350000000  0.5965550000000 1.0
C      1  0.5424250000000  0.2271650000000  0.4034450000000 1.0
C      1  0.4575750000000  0.7728350000000  0.4034450000000 1.0
C      1  0.5965550000000  0.4575750000000  0.7728350000000 1.0
C      1  0.2271650000000  0.5965550000000  0.5424250000000 1.0
C      1  0.4575750000000  0.2271650000000  0.4034450000000 1.0
C      1  0.4034450000000  0.5424250000000  0.7728350000000 1.0
C      1  0.4034450000000  0.4575750000000  0.2271650000000 1.0
C      1  0.5965550000000  0.5424250000000  0.2271650000000 1.0
C      1  0.7728350000000  0.4034450000000  0.5424250000000 1.0
C      1  0.7728350000000  0.5965550000000  0.4575750000000 1.0
C      1  0.2271650000000  0.4034450000000  0.4575750000000 1.0
C      1  0.5424250000000  0.7728350000000  0.4034450000000 1.0
C      1  0.5424250000000  0.2271650000000  0.5965550000000 1.0
C      1  0.4575750000000  0.7728350000000  0.5965550000000 1.0
C      1  0.6470900000000  0.3920560000000  0.5000000000000 1.0
C      1  0.5000000000000  0.6470900000000  0.3920560000000 1.0
C      1  0.3920560000000  0.5000000000000  0.6470900000000 1.0
C      1  0.3529100000000  0.6079440000000  0.5000000000000 1.0
C      1  0.3529100000000  0.3920560000000  0.5000000000000 1.0
C      1  0.6470900000000  0.6079440000000  0.5000000000000 1.0
C      1  0.5000000000000  0.3529100000000  0.3920560000000 1.0
C      1  0.5000000000000  0.6470900000000  0.6079440000000 1.0
C      1  0.5000000000000  0.3529100000000  0.6079440000000 1.0
C      1  0.6079440000000  0.5000000000000  0.6470900000000 1.0
C      1  0.6079440000000  0.5000000000000  0.3529100000000 1.0
C      1  0.3920560000000  0.5000000000000  0.3529100000000 1.0
END
