TITL C-986977-940-96 -1.11996036662939e-05 3375 -341.254635729009 0 0 60 (C5) n - 1
REM
REM in /home/bkarasulu/work/CARBON/AIRSS/Generating-Clusters/REBO/Higher-Symm/Only-C60
REM
REM
REM
REM
REM
REM ./C.cell (a2850807a9bf4ad07a5b6933b78d9264)
REM AIRSS Version 0.9.1 bugfix July 2018 build 013d7b7c2542+ Fri, 06 Jul 2018 19:26:36 +0100
REM compiler GCC version 9.2.1 20190827 (Red Hat 9.2.1-1)
REM options -cpp -mtune=generic -march=x86-64 -g -O0 -fpre-include=/usr/include/finclude/math-vector-fortran.h
REM seed -660098525 -1514292472 737023846 238835790 -393288570 1747412953 -381116695 368522796 -614701929 -1493388411 1529951875 -984894389 -1295194497 -2082554449 1637349026 -189054295 -1945596470 693076590 497012254 2037385184 -1143456262 -1772735534 -1813446151 2137753436 -987468219 411613691 -702580067 2051115841 403791765 1373593954 637680359 -1916369627 -1425926885
REM
CELL 1.54180   15.00000   15.00000   15.00000   90.00000   90.00000   90.00000
LATT -1
SFAC C  
C      1  0.5741360000000  0.4531430000000  0.5216730000000 1.0
C      1  0.5674700000000  0.5560290000000  0.5216780000000 1.0
C      1  0.4675600000000  0.5814830000000  0.5216720000000 1.0
C      1  0.4124790000000  0.4943280000000  0.5216630000000 1.0
C      1  0.4783460000000  0.4150100000000  0.5216630000000 1.0
C      1  0.6969100000000  0.4687760000000  0.6153530000000 1.0
C      1  0.5905320000000  0.6776280000000  0.6153570000000 1.0
C      1  0.3590290000000  0.6409950000000  0.6153370000000 1.0
C      1  0.3223310000000  0.4095030000000  0.6153210000000 1.0
C      1  0.5311530000000  0.3030660000000  0.6153310000000 1.0
C      1  0.5937210000000  0.5074790000000  0.6429280000000 1.0
C      1  0.5218330000000  0.5914510000000  0.6429270000000 1.0
C      1  0.4197570000000  0.5490290000000  0.6429170000000 1.0
C      1  0.4285590000000  0.4388400000000  0.6429110000000 1.0
C      1  0.5360750000000  0.4131610000000  0.6429180000000 1.0
C      1  0.6514530000000  0.5985470000000  0.6149220000000 1.0
C      1  0.4530660000000  0.6744970000000  0.6149110000000 1.0
C      1  0.3195280000000  0.5092890000000  0.6148910000000 1.0
C      1  0.4353840000000  0.3312350000000  0.6148900000000 1.0
C      1  0.6405250000000  0.3863990000000  0.6149090000000 1.0
C      1  0.7684480000000  0.5559000000000  0.4726000000000 1.0
C      1  0.5297940000000  0.7725830000000  0.4725940000000 1.0
C      1  0.2499680000000  0.6125680000000  0.4725630000000 1.0
C      1  0.3156810000000  0.2969900000000  0.4725510000000 1.0
C      1  0.6361190000000  0.2619680000000  0.4725730000000 1.0
C      1  0.4481300000000  0.4254200000000  0.4138810000000 1.0
C      1  0.5549100000000  0.4276200000000  0.4138890000000 1.0
C      1  0.5858150000000  0.5298530000000  0.4138970000000 1.0
C      1  0.4981360000000  0.5908370000000  0.4138940000000 1.0
C      1  0.4130420000000  0.5262940000000  0.4138840000000 1.0
C      1  0.5617970000000  0.1384650000000  0.5791560000000 1.0
C      1  0.8629280000000  0.4470540000000  0.5791970000000 1.0
C      1  0.6624970000000  0.8288070000000  0.5792020000000 1.0
C      1  0.2374920000000  0.7561540000000  0.5791660000000 1.0
C      1  0.1752560000000  0.3294990000000  0.5791370000000 1.0
C      1  0.4862540000000  0.7435750000000  0.5655570000000 1.0
C      1  0.2640920000000  0.5621980000000  0.5655300000000 1.0
C      1  0.3679390000000  0.2948610000000  0.5655230000000 1.0
C      1  0.6542830000000  0.3110140000000  0.5655460000000 1.0
C      1  0.7274060000000  0.5883340000000  0.5655670000000 1.0
C      1  0.5187160000000  0.7489390000000  0.3841740000000 1.0
C      1  0.2690410000000  0.5947220000000  0.3841460000000 1.0
C      1  0.3385560000000  0.3096120000000  0.3841360000000 1.0
C      1  0.6311930000000  0.2876200000000  0.3841570000000 1.0
C      1  0.7425380000000  0.5591390000000  0.3841810000000 1.0
C      1  0.5491380000000  0.4306790000000  0.2809320000000 1.0
C      1  0.5811360000000  0.5253040000000  0.2809390000000 1.0
C      1  0.5010300000000  0.5849770000000  0.2809370000000 1.0
C      1  0.4195240000000  0.5272320000000  0.2809270000000 1.0
C      1  0.4492560000000  0.4318700000000  0.2809240000000 1.0
C      1  0.7860910000000  0.4931290000000  0.5648750000000 1.0
C      1  0.5949350000000  0.7699680000000  0.5648760000000 1.0
C      1  0.2725750000000  0.6737160000000  0.5648460000000 1.0
C      1  0.2645020000000  0.3373900000000  0.5648260000000 1.0
C      1  0.5818720000000  0.2257810000000  0.5648450000000 1.0
C      1  0.4006350000000  0.3662770000000  0.3440240000000 1.0
C      1  0.5964890000000  0.3641700000000  0.3440390000000 1.0
C      1  0.6590150000000  0.5497870000000  0.3440550000000 1.0
C      1  0.5018040000000  0.6666120000000  0.3440490000000 1.0
C      1  0.3421170000000  0.5531960000000  0.3440300000000 1.0
END
