TITL C-986974-580-599 -0.000277356813734706 3375 -347.240139545963 0 0 60 (C4) n - 1
REM
REM in /home/bkarasulu/work/CARBON/AIRSS/Generating-Clusters/REBO/Higher-Symm/Only-C60
REM
REM
REM
REM
REM
REM ./C.cell (a2850807a9bf4ad07a5b6933b78d9264)
REM AIRSS Version 0.9.1 bugfix July 2018 build 013d7b7c2542+ Fri, 06 Jul 2018 19:26:36 +0100
REM compiler GCC version 9.2.1 20190827 (Red Hat 9.2.1-1)
REM options -cpp -mtune=generic -march=x86-64 -g -O0 -fpre-include=/usr/include/finclude/math-vector-fortran.h
REM seed -153589990 -969553799 977750923 -776480909 -1499126645 429427013 1572488389 -1819542337 -922657797 -143521954 324263672 -1371422329 622487117 12733424 1422762335 1968500923 561009245 1222528284 -764604068 161518211 -1411333829 -95758114 2004284276 824850544 -1221367696 -591768530 2070411135 -1324384869 -559705950 -1194052886 1666081153 1552252120 -1461883493
REM
CELL 1.54180   15.00000   15.00000   15.00000   90.00000   90.00000   90.00000
LATT -1
SFAC C  
C      1  0.4330870000000  0.4915120000000  0.6235420000000 1.0
C      1  0.4330770000000  0.6234930000000  0.5084980000000 1.0
C      1  0.4330830000000  0.5084890000000  0.3764610000000 1.0
C      1  0.4330750000000  0.3765080000000  0.4915050000000 1.0
C      1  0.5402580000000  0.4960760000000  0.6277590000000 1.0
C      1  0.5402560000000  0.6277130000000  0.5039310000000 1.0
C      1  0.5402540000000  0.5039240000000  0.3722410000000 1.0
C      1  0.5402530000000  0.3722860000000  0.4960690000000 1.0
C      1  0.4586530000000  0.6900240000000  0.4200250000000 1.0
C      1  0.4586530000000  0.4199880000000  0.3099670000000 1.0
C      1  0.4586520000000  0.3099770000000  0.5799770000000 1.0
C      1  0.4586600000000  0.5800120000000  0.6900350000000 1.0
C      1  0.5604760000000  0.7080320000000  0.4255320000000 1.0
C      1  0.5604800000000  0.4254710000000  0.2919770000000 1.0
C      1  0.5604740000000  0.2919660000000  0.5744670000000 1.0
C      1  0.5604870000000  0.5745310000000  0.7080190000000 1.0
C      1  0.3112560000000  0.3603030000000  0.5422320000000 1.0
C      1  0.3112520000000  0.5422060000000  0.6397200000000 1.0
C      1  0.3112570000000  0.6396990000000  0.4577750000000 1.0
C      1  0.3112460000000  0.4577960000000  0.3602860000000 1.0
C      1  0.6653390000000  0.3842510000000  0.5403240000000 1.0
C      1  0.6653670000000  0.5402410000000  0.6156980000000 1.0
C      1  0.6653390000000  0.6157520000000  0.4596670000000 1.0
C      1  0.6653610000000  0.4597510000000  0.3842940000000 1.0
C      1  0.3193310000000  0.3129910000000  0.4631860000000 1.0
C      1  0.3193400000000  0.4631640000000  0.6870390000000 1.0
C      1  0.3193340000000  0.6870100000000  0.5368200000000 1.0
C      1  0.3193340000000  0.5368380000000  0.3129670000000 1.0
C      1  0.6921280000000  0.3471040000000  0.4614690000000 1.0
C      1  0.6921870000000  0.4613940000000  0.6528410000000 1.0
C      1  0.6921260000000  0.6529020000000  0.5385210000000 1.0
C      1  0.6921800000000  0.5385980000000  0.3471510000000 1.0
C      1  0.4364820000000  0.6737970000000  0.6676250000000 1.0
C      1  0.4364980000000  0.6676280000000  0.3262290000000 1.0
C      1  0.4364790000000  0.3262020000000  0.3323810000000 1.0
C      1  0.4365010000000  0.3323720000000  0.6737740000000 1.0
C      1  0.5984910000000  0.6629630000000  0.6849750000000 1.0
C      1  0.5985060000000  0.6850180000000  0.3371010000000 1.0
C      1  0.5984870000000  0.3370410000000  0.3150210000000 1.0
C      1  0.5985070000000  0.3149780000000  0.6628970000000 1.0
C      1  0.3825980000000  0.5820800000000  0.4212640000000 1.0
C      1  0.3825880000000  0.4212760000000  0.4179030000000 1.0
C      1  0.3825990000000  0.4179210000000  0.5787400000000 1.0
C      1  0.3825920000000  0.5787250000000  0.5821010000000 1.0
C      1  0.5860050000000  0.5787840000000  0.4169120000000 1.0
C      1  0.5860330000000  0.4169570000000  0.4212280000000 1.0
C      1  0.5860060000000  0.4212140000000  0.5830860000000 1.0
C      1  0.5860400000000  0.5830380000000  0.5787680000000 1.0
C      1  0.3650480000000  0.7065520000000  0.6137210000000 1.0
C      1  0.3650670000000  0.6137350000000  0.2934440000000 1.0
C      1  0.3650460000000  0.2934480000000  0.3862860000000 1.0
C      1  0.3650720000000  0.3862670000000  0.7065610000000 1.0
C      1  0.6719460000000  0.6733910000000  0.6252070000000 1.0
C      1  0.6719930000000  0.6252870000000  0.3266710000000 1.0
C      1  0.6719470000000  0.3266160000000  0.3747830000000 1.0
C      1  0.6719960000000  0.3747070000000  0.6733220000000 1.0
C      1  0.5210510000000  0.3232400000000  0.7225810000000 1.0
C      1  0.5210200000000  0.7226280000000  0.6767290000000 1.0
C      1  0.5210470000000  0.6767570000000  0.2774190000000 1.0
C      1  0.5210180000000  0.2773740000000  0.3232730000000 1.0
END
