TITL C-986978-6805-1130 0.00665827329916601 3375 -342.589858555316 0 0 60 (C3) n - 1
REM
REM in /home/bkarasulu/work/CARBON/AIRSS/Generating-Clusters/REBO/Higher-Symm/Only-C60
REM
REM
REM
REM
REM
REM ./C.cell (a2850807a9bf4ad07a5b6933b78d9264)
REM AIRSS Version 0.9.1 bugfix July 2018 build 013d7b7c2542+ Fri, 06 Jul 2018 19:26:36 +0100
REM compiler GCC version 9.2.1 20190827 (Red Hat 9.2.1-1)
REM options -cpp -mtune=generic -march=x86-64 -g -O0 -fpre-include=/usr/include/finclude/math-vector-fortran.h
REM seed -1530615253 2108532473 744982143 1812835090 504139947 1113148317 1587413092 -1124613531 -703972945 669678595 709878367 1948048478 355704061 190146156 642632116 -1215667446 72666800 128096427 -1983182826 -833394195 2046257836 2062816289 119165940 13412384 -1804745697 -1804487042 10013888 712834404 1825198138 -1250367725 883946902 -1068061171 -364376825
REM
CELL 1.54180   15.00000   15.00000   15.00000   90.00000   90.00000   90.00000
LATT -1
SFAC C  
C      1  0.5314420000000  0.6733740000000  0.6373580000000 1.0
C      1  0.5314550000000  0.2942960000000  0.5814410000000 1.0
C      1  0.5314410000000  0.5322600000000  0.2811840000000 1.0
C      1  0.5311940000000  0.3710530000000  0.4740260000000 1.0
C      1  0.5312270000000  0.5869750000000  0.4013330000000 1.0
C      1  0.5312430000000  0.5419730000000  0.6246570000000 1.0
C      1  0.4176640000000  0.5341190000000  0.4313420000000 1.0
C      1  0.4176230000000  0.5425030000000  0.5637590000000 1.0
C      1  0.4176740000000  0.4235640000000  0.5049000000000 1.0
C      1  0.6983600000000  0.5977340000000  0.4878120000000 1.0
C      1  0.6983520000000  0.4616460000000  0.5907670000000 1.0
C      1  0.6983360000000  0.4405310000000  0.4214220000000 1.0
C      1  0.5718130000000  0.4646900000000  0.7252540000000 1.0
C      1  0.5717940000000  0.3225650000000  0.3567930000000 1.0
C      1  0.5718090000000  0.7127520000000  0.4180760000000 1.0
C      1  0.3646960000000  0.5740680000000  0.3157940000000 1.0
C      1  0.3646790000000  0.6224710000000  0.6562020000000 1.0
C      1  0.3646640000000  0.3034170000000  0.5279750000000 1.0
C      1  0.4893920000000  0.3497850000000  0.2901080000000 1.0
C      1  0.4893720000000  0.7568920000000  0.4748910000000 1.0
C      1  0.4894130000000  0.3933300000000  0.7350010000000 1.0
C      1  0.6065740000000  0.2521100000000  0.4255510000000 1.0
C      1  0.6063520000000  0.6884760000000  0.3225650000000 1.0
C      1  0.6065680000000  0.5594780000000  0.7518690000000 1.0
C      1  0.3625070000000  0.5160200000000  0.6818940000000 1.0
C      1  0.3624880000000  0.3344510000000  0.4229050000000 1.0
C      1  0.3625850000000  0.6494450000000  0.3951810000000 1.0
C      1  0.7020910000000  0.4045850000000  0.5081450000000 1.0
C      1  0.7021140000000  0.5406140000000  0.4133120000000 1.0
C      1  0.7021310000000  0.5547260000000  0.5785460000000 1.0
C      1  0.4633620000000  0.6159650000000  0.3155820000000 1.0
C      1  0.4633630000000  0.6017730000000  0.6926210000000 1.0
C      1  0.4633360000000  0.2822830000000  0.4918130000000 1.0
C      1  0.4626640000000  0.4990530000000  0.7304710000000 1.0
C      1  0.4626430000000  0.3008670000000  0.3839390000000 1.0
C      1  0.4626770000000  0.7000840000000  0.3855890000000 1.0
C      1  0.4781650000000  0.4504330000000  0.5924450000000 1.0
C      1  0.4781550000000  0.4447000000000  0.4108590000000 1.0
C      1  0.4781710000000  0.6048410000000  0.4966850000000 1.0
C      1  0.6261390000000  0.4274460000000  0.6501210000000 1.0
C      1  0.6261160000000  0.4062560000000  0.3621150000000 1.0
C      1  0.6261710000000  0.6662550000000  0.4877800000000 1.0
C      1  0.6086950000000  0.6108940000000  0.5852580000000 1.0
C      1  0.6086470000000  0.3707350000000  0.5534330000000 1.0
C      1  0.6086670000000  0.5183550000000  0.3613390000000 1.0
C      1  0.3241940000000  0.4381460000000  0.6353380000000 1.0
C      1  0.3241950000000  0.4137320000000  0.3787560000000 1.0
C      1  0.3241940000000  0.6481460000000  0.4858930000000 1.0
C      1  0.4708150000000  0.3505790000000  0.6440540000000 1.0
C      1  0.4707900000000  0.4499200000000  0.2985520000000 1.0
C      1  0.4707630000000  0.6994970000000  0.5573740000000 1.0
C      1  0.5926860000000  0.2428600000000  0.5065230000000 1.0
C      1  0.5924380000000  0.6230000000000  0.2740580000000 1.0
C      1  0.5927100000000  0.6341990000000  0.7193220000000 1.0
C      1  0.3698440000000  0.4768230000000  0.3021410000000 1.0
C      1  0.3698330000000  0.6829850000000  0.5788690000000 1.0
C      1  0.3698420000000  0.3402760000000  0.6189880000000 1.0
C      1  0.3279110000000  0.5065060000000  0.4239300000000 1.0
C      1  0.3278890000000  0.5625870000000  0.5436520000000 1.0
C      1  0.3278750000000  0.4309000000000  0.5324350000000 1.0
END
