TITL C-986976-6631-375 -1.54244720204881e-07 3375 -380.842085620551 0 0 60 (D5) n - 1
REM
REM in /home/bkarasulu/work/CARBON/AIRSS/Generating-Clusters/REBO/Higher-Symm/Only-C60
REM
REM
REM
REM
REM
REM ./C.cell (a2850807a9bf4ad07a5b6933b78d9264)
REM AIRSS Version 0.9.1 bugfix July 2018 build 013d7b7c2542+ Fri, 06 Jul 2018 19:26:36 +0100
REM compiler GCC version 9.2.1 20190827 (Red Hat 9.2.1-1)
REM options -cpp -mtune=generic -march=x86-64 -g -O0 -fpre-include=/usr/include/finclude/math-vector-fortran.h
REM seed -209634906 -1674996476 -1505633593 500509447 987935818 648111839 -199055909 2090194837 148497246 -2013050806 -298586685 1441782352 -290706499 870075657 -1911284488 1599009471 -1094903741 969601828 573507393 2112110291 1796256626 2045532535 -724314361 647806752 -1155781711 -1636613160 1197839720 226350830 1535825887 -1006755445 -744504582 1553425345 -430602726
REM
CELL 1.54180   15.00000   15.00000   15.00000   90.00000   90.00000   90.00000
LATT -1
SFAC C  
C      1  0.4535980000000  0.4166000000000  0.7069890000000 1.0
C      1  0.4535970000000  0.6710860000000  0.6432820000000 1.0
C      1  0.4535970000000  0.6891370000000  0.3815640000000 1.0
C      1  0.4535970000000  0.4458070000000  0.2835210000000 1.0
C      1  0.4535970000000  0.2773700000000  0.4846450000000 1.0
C      1  0.5464020000000  0.4166000000000  0.2930110000000 1.0
C      1  0.5464030000000  0.6710860000000  0.3567180000000 1.0
C      1  0.5464030000000  0.6891370000000  0.6184360000000 1.0
C      1  0.5464030000000  0.4458070000000  0.7164790000000 1.0
C      1  0.5464030000000  0.2773700000000  0.5153550000000 1.0
C      1  0.2651420000000  0.4578810000000  0.4283940000000 1.0
C      1  0.2651430000000  0.4188820000000  0.5179300000000 1.0
C      1  0.2651430000000  0.4919860000000  0.5826880000000 1.0
C      1  0.2651430000000  0.5761640000000  0.5331750000000 1.0
C      1  0.2651420000000  0.5550870000000  0.4378150000000 1.0
C      1  0.7348580000000  0.4578810000000  0.5716060000000 1.0
C      1  0.7348570000000  0.4188820000000  0.4820700000000 1.0
C      1  0.7348570000000  0.4919860000000  0.4173120000000 1.0
C      1  0.7348570000000  0.5761640000000  0.4668250000000 1.0
C      1  0.7348580000000  0.5550870000000  0.5621850000000 1.0
C      1  0.3055080000000  0.6106400000000  0.3735490000000 1.0
C      1  0.3055080000000  0.4139270000000  0.3557000000000 1.0
C      1  0.3055080000000  0.3361640000000  0.5372690000000 1.0
C      1  0.3055080000000  0.4848170000000  0.6673340000000 1.0
C      1  0.3055080000000  0.6544520000000  0.5661490000000 1.0
C      1  0.6944920000000  0.6106400000000  0.6264510000000 1.0
C      1  0.6944920000000  0.4139270000000  0.6443000000000 1.0
C      1  0.6944920000000  0.3361640000000  0.4627310000000 1.0
C      1  0.6944920000000  0.4848170000000  0.3326660000000 1.0
C      1  0.6944920000000  0.6544520000000  0.4338510000000 1.0
C      1  0.3921950000000  0.3890640000000  0.3304210000000 1.0
C      1  0.3921950000000  0.3044400000000  0.5531030000000 1.0
C      1  0.3921950000000  0.4900730000000  0.7023990000000 1.0
C      1  0.3921950000000  0.6894250000000  0.5719860000000 1.0
C      1  0.3921950000000  0.6269980000000  0.3420910000000 1.0
C      1  0.6078050000000  0.3890640000000  0.6695790000000 1.0
C      1  0.6078050000000  0.3044400000000  0.4468970000000 1.0
C      1  0.6078050000000  0.4900730000000  0.2976010000000 1.0
C      1  0.6078050000000  0.6894250000000  0.4280140000000 1.0
C      1  0.6078050000000  0.6269980000000  0.6579090000000 1.0
C      1  0.5503400000000  0.3421780000000  0.5945450000000 1.0
C      1  0.5503400000000  0.5411480000000  0.6793140000000 1.0
C      1  0.5503400000000  0.6832530000000  0.5162770000000 1.0
C      1  0.5503400000000  0.5721080000000  0.3307460000000 1.0
C      1  0.5503400000000  0.3613120000000  0.3791180000000 1.0
C      1  0.4496600000000  0.3421780000000  0.4054550000000 1.0
C      1  0.4496600000000  0.5411480000000  0.3206860000000 1.0
C      1  0.4496600000000  0.6832530000000  0.4837230000000 1.0
C      1  0.4496600000000  0.5721080000000  0.6692540000000 1.0
C      1  0.4496600000000  0.3613120000000  0.6208820000000 1.0
C      1  0.5860220000000  0.5281730000000  0.4234800000000 1.0
C      1  0.5860220000000  0.4359310000000  0.4495600000000 1.0
C      1  0.5860220000000  0.4322300000000  0.5453460000000 1.0
C      1  0.5860220000000  0.5221850000000  0.5784660000000 1.0
C      1  0.5860220000000  0.5814810000000  0.5031480000000 1.0
C      1  0.4139780000000  0.5281730000000  0.5765200000000 1.0
C      1  0.4139780000000  0.4359310000000  0.5504400000000 1.0
C      1  0.4139780000000  0.4322300000000  0.4546540000000 1.0
C      1  0.4139780000000  0.5221850000000  0.4215340000000 1.0
C      1  0.4139780000000  0.5814810000000  0.4968520000000 1.0
END
