TITL C-986979-5873-1117 1.08273412623698e-08 3375 -351.940254228573 0 0 60 (Td) n - 1
REM
REM in /home/bkarasulu/work/CARBON/AIRSS/Generating-Clusters/REBO/Higher-Symm/Only-C60
REM
REM
REM
REM
REM
REM ./C.cell (a2850807a9bf4ad07a5b6933b78d9264)
REM AIRSS Version 0.9.1 bugfix July 2018 build 013d7b7c2542+ Fri, 06 Jul 2018 19:26:36 +0100
REM compiler GCC version 9.2.1 20190827 (Red Hat 9.2.1-1)
REM options -cpp -mtune=generic -march=x86-64 -g -O0 -fpre-include=/usr/include/finclude/math-vector-fortran.h
REM seed 546241858 -181001314 -1782631876 -1565459145 14973247 -1803141831 456952150 -252284527 -503904877 -1836004275 -239579231 -1198487676 -1902211336 -726154425 -927412270 1114203906 -1042869697 1809634596 645326739 2085214491 1375764794 -856121160 1671584537 -186015496 -1626915039 63849999 901707597 1376119427 -8561286 391236428 -1350977589 -1706838181 1737723915
REM
CELL 1.54180   15.00000   15.00000   15.00000   90.00000   90.00000   90.00000
LATT -1
SFAC C  
C      1  0.5303860000000  0.5959570000000  0.7734390000000 1.0
C      1  0.7734390000000  0.5303860000000  0.5959570000000 1.0
C      1  0.5959570000000  0.7734390000000  0.5303860000000 1.0
C      1  0.4696140000000  0.5959570000000  0.2265610000000 1.0
C      1  0.5303860000000  0.4040430000000  0.2265610000000 1.0
C      1  0.4696140000000  0.4040430000000  0.7734390000000 1.0
C      1  0.2265610000000  0.5303860000000  0.4040430000000 1.0
C      1  0.7734390000000  0.4696140000000  0.4040430000000 1.0
C      1  0.2265610000000  0.4696140000000  0.5959570000000 1.0
C      1  0.4040430000000  0.7734390000000  0.4696140000000 1.0
C      1  0.5959570000000  0.2265610000000  0.4696140000000 1.0
C      1  0.4040430000000  0.2265610000000  0.5303860000000 1.0
C      1  0.7734390000000  0.5959570000000  0.5303860000000 1.0
C      1  0.5959570000000  0.5303860000000  0.7734390000000 1.0
C      1  0.5303860000000  0.7734390000000  0.5959570000000 1.0
C      1  0.2265610000000  0.5959570000000  0.4696140000000 1.0
C      1  0.2265610000000  0.4040430000000  0.5303860000000 1.0
C      1  0.7734390000000  0.4040430000000  0.4696140000000 1.0
C      1  0.4040430000000  0.5303860000000  0.2265610000000 1.0
C      1  0.4040430000000  0.4696140000000  0.7734390000000 1.0
C      1  0.5959570000000  0.4696140000000  0.2265610000000 1.0
C      1  0.4696140000000  0.7734390000000  0.4040430000000 1.0
C      1  0.4696140000000  0.2265610000000  0.5959570000000 1.0
C      1  0.5303860000000  0.2265610000000  0.4040430000000 1.0
C      1  0.3035160000000  0.5259900000000  0.5922170000000 1.0
C      1  0.5922170000000  0.3035160000000  0.5259900000000 1.0
C      1  0.5259900000000  0.5922170000000  0.3035160000000 1.0
C      1  0.6964840000000  0.5259900000000  0.4077830000000 1.0
C      1  0.3035160000000  0.4740100000000  0.4077830000000 1.0
C      1  0.6964840000000  0.4740100000000  0.5922170000000 1.0
C      1  0.4077830000000  0.3035160000000  0.4740100000000 1.0
C      1  0.5922170000000  0.6964840000000  0.4740100000000 1.0
C      1  0.4077830000000  0.6964840000000  0.5259900000000 1.0
C      1  0.4740100000000  0.5922170000000  0.6964840000000 1.0
C      1  0.5259900000000  0.4077830000000  0.6964840000000 1.0
C      1  0.4740100000000  0.4077830000000  0.3035160000000 1.0
C      1  0.5922170000000  0.5259900000000  0.3035160000000 1.0
C      1  0.5259900000000  0.3035160000000  0.5922170000000 1.0
C      1  0.3035160000000  0.5922170000000  0.5259900000000 1.0
C      1  0.4077830000000  0.5259900000000  0.6964840000000 1.0
C      1  0.4077830000000  0.4740100000000  0.3035160000000 1.0
C      1  0.5922170000000  0.4740100000000  0.6964840000000 1.0
C      1  0.4740100000000  0.3035160000000  0.4077830000000 1.0
C      1  0.4740100000000  0.6964840000000  0.5922170000000 1.0
C      1  0.5259900000000  0.6964840000000  0.4077830000000 1.0
C      1  0.6964840000000  0.5922170000000  0.4740100000000 1.0
C      1  0.6964840000000  0.4077830000000  0.5259900000000 1.0
C      1  0.3035160000000  0.4077830000000  0.4740100000000 1.0
C      1  0.6070880000000  0.4731870000000  0.3929120000000 1.0
C      1  0.4731870000000  0.3929120000000  0.6070880000000 1.0
C      1  0.4731870000000  0.6070880000000  0.3929120000000 1.0
C      1  0.5268130000000  0.3929120000000  0.3929120000000 1.0
C      1  0.3929120000000  0.5268130000000  0.3929120000000 1.0
C      1  0.3929120000000  0.3929120000000  0.5268130000000 1.0
C      1  0.3929120000000  0.4731870000000  0.6070880000000 1.0
C      1  0.6070880000000  0.3929120000000  0.4731870000000 1.0
C      1  0.3929120000000  0.6070880000000  0.4731870000000 1.0
C      1  0.6070880000000  0.6070880000000  0.5268130000000 1.0
C      1  0.5268130000000  0.6070880000000  0.6070880000000 1.0
C      1  0.6070880000000  0.5268130000000  0.6070880000000 1.0
END
