TITL C-986979-5873-408 5.20146177501493e-06 3375 -354.794870739805 0 0 60 (C1) n - 1
REM
REM in /home/bkarasulu/work/CARBON/AIRSS/Generating-Clusters/REBO/Higher-Symm/Only-C60
REM
REM
REM
REM
REM
REM ./C.cell (a2850807a9bf4ad07a5b6933b78d9264)
REM AIRSS Version 0.9.1 bugfix July 2018 build 013d7b7c2542+ Fri, 06 Jul 2018 19:26:36 +0100
REM compiler GCC version 9.2.1 20190827 (Red Hat 9.2.1-1)
REM options -cpp -mtune=generic -march=x86-64 -g -O0 -fpre-include=/usr/include/finclude/math-vector-fortran.h
REM seed -1758731855 1432616087 1859894773 -2012664364 1986752430 792062009 1570658117 353020157 -647300616 138716425 -1797640250 -359359503 -130012474 -312598465 1557165490 -262071618 43967566 -1258318650 1659208477 2075115559 -1113421932 -1529168181 -1576820189 924937618 1085363921 -999647242 -1347223635 418135855 1563667718 -909100819 1974277210 1452824300 -82788551
REM
CELL 1.54180   15.00000   15.00000   15.00000   90.00000   90.00000   90.00000
LATT -1
SFAC C  
C      1  0.4193670000000  0.3071560000000  0.6170590000000 1.0
C      1  0.4008700000000  0.3302300000000  0.5061000000000 1.0
C      1  0.5065360000000  0.3660290000000  0.3864380000000 1.0
C      1  0.6024610000000  0.3662050000000  0.4300720000000 1.0
C      1  0.5921200000000  0.3488750000000  0.5977160000000 1.0
C      1  0.5480480000000  0.4667530000000  0.7760880000000 1.0
C      1  0.2280550000000  0.4857900000000  0.6408340000000 1.0
C      1  0.3115490000000  0.4593570000000  0.3049840000000 1.0
C      1  0.6415730000000  0.5016310000000  0.2172900000000 1.0
C      1  0.7976020000000  0.4692780000000  0.5301360000000 1.0
C      1  0.7131100000000  0.6027020000000  0.5031100000000 1.0
C      1  0.5629360000000  0.6049250000000  0.7019150000000 1.0
C      1  0.3223580000000  0.6390250000000  0.6242420000000 1.0
C      1  0.3407170000000  0.6012660000000  0.3737610000000 1.0
C      1  0.5751440000000  0.6153820000000  0.2944580000000 1.0
C      1  0.6387430000000  0.5770710000000  0.6515640000000 1.0
C      1  0.4037780000000  0.5755810000000  0.6495060000000 1.0
C      1  0.3220590000000  0.5761180000000  0.4736730000000 1.0
C      1  0.4842510000000  0.5841930000000  0.2939540000000 1.0
C      1  0.6951400000000  0.5806750000000  0.4115770000000 1.0
C      1  0.5959090000000  0.3823410000000  0.3214480000000 1.0
C      1  0.6552400000000  0.3787450000000  0.5175380000000 1.0
C      1  0.4988360000000  0.3592780000000  0.6629070000000 1.0
C      1  0.3321600000000  0.3673060000000  0.5883800000000 1.0
C      1  0.4063370000000  0.3747650000000  0.4165440000000 1.0
C      1  0.6624990000000  0.4856070000000  0.6505130000000 1.0
C      1  0.3924060000000  0.4880670000000  0.6972930000000 1.0
C      1  0.2791420000000  0.4826950000000  0.4725240000000 1.0
C      1  0.4762190000000  0.4901430000000  0.2752320000000 1.0
C      1  0.7132530000000  0.4903990000000  0.3839330000000 1.0
C      1  0.3102400000000  0.4288480000000  0.4022490000000 1.0
C      1  0.5567910000000  0.4493820000000  0.2470080000000 1.0
C      1  0.7355380000000  0.4310330000000  0.4553950000000 1.0
C      1  0.5943000000000  0.4194260000000  0.6868890000000 1.0
C      1  0.3167720000000  0.4398810000000  0.6708730000000 1.0
C      1  0.2593420000000  0.4985110000000  0.2448550000000 1.0
C      1  0.6669180000000  0.5624240000000  0.1578650000000 1.0
C      1  0.8752740000000  0.5114300000000  0.5381760000000 1.0
C      1  0.5749460000000  0.5142560000000  0.8478280000000 1.0
C      1  0.1679150000000  0.5437860000000  0.6706440000000 1.0
C      1  0.4953660000000  0.6961990000000  0.5863300000000 1.0
C      1  0.4191130000000  0.7097750000000  0.5202910000000 1.0
C      1  0.4627860000000  0.6917790000000  0.4199990000000 1.0
C      1  0.5698300000000  0.6775470000000  0.4406820000000 1.0
C      1  0.5831520000000  0.6869060000000  0.5446080000000 1.0
C      1  0.6257010000000  0.6322960000000  0.3723860000000 1.0
C      1  0.6555130000000  0.6309290000000  0.5736630000000 1.0
C      1  0.4840760000000  0.6377890000000  0.6619350000000 1.0
C      1  0.3333510000000  0.6666440000000  0.5360660000000 1.0
C      1  0.4216090000000  0.6333580000000  0.3467160000000 1.0
C      1  0.4117120000000  0.4359370000000  0.3193110000000 1.0
C      1  0.6748640000000  0.4567610000000  0.3050220000000 1.0
C      1  0.7140080000000  0.4478230000000  0.5838940000000 1.0
C      1  0.4685470000000  0.4409110000000  0.7231890000000 1.0
C      1  0.2590710000000  0.4410470000000  0.5527050000000 1.0
C      1  0.5088600000000  0.4076410000000  0.5127740000000 1.0
C      1  0.4135120000000  0.5609600000000  0.5389930000000 1.0
C      1  0.5046430000000  0.3016490000000  0.5437160000000 1.0
C      1  0.4946760000000  0.6063190000000  0.4880760000000 1.0
C      1  0.4753520000000  0.4806150000000  0.5126420000000 1.0
END
