TITL C-986979-5873-758 -6.62390538392941e-06 3375 -330.030677755034 0 0 60 (C4) n - 1
REM
REM in /home/bkarasulu/work/CARBON/AIRSS/Generating-Clusters/REBO/Higher-Symm/Only-C60
REM
REM
REM
REM
REM
REM ./C.cell (a2850807a9bf4ad07a5b6933b78d9264)
REM AIRSS Version 0.9.1 bugfix July 2018 build 013d7b7c2542+ Fri, 06 Jul 2018 19:26:36 +0100
REM compiler GCC version 9.2.1 20190827 (Red Hat 9.2.1-1)
REM options -cpp -mtune=generic -march=x86-64 -g -O0 -fpre-include=/usr/include/finclude/math-vector-fortran.h
REM seed 1495204409 1922039191 1057947769 -1997048898 -1593351211 -192914570 2038894535 1113482757 381301053 -127821585 597816259 -1733010853 105172181 1169761863 -1903939260 -1800051289 -1708894099 1625114832 -653379096 -23273593 -365171035 1121396218 1287990208 634890917 426741737 1494947529 -2100754266 -441547506 2041848058 487359675 -1933690070 11277588 173825693
REM
CELL 1.54180   15.00000   15.00000   15.00000   90.00000   90.00000   90.00000
LATT -1
SFAC C  
C      1  0.5994410000000  0.6686880000000  0.6379200000000 1.0
C      1  0.6003000000000  0.7161850000000  0.5367930000000 1.0
C      1  0.5986550000000  0.7005260000000  0.4235630000000 1.0
C      1  0.5994410000000  0.6379200000000  0.3313120000000 1.0
C      1  0.6003000000000  0.5367930000000  0.2838160000000 1.0
C      1  0.5986550000000  0.4235630000000  0.2994740000000 1.0
C      1  0.5994410000000  0.3313120000000  0.3620800000000 1.0
C      1  0.6003000000000  0.2838150000000  0.4632070000000 1.0
C      1  0.5986550000000  0.2994740000000  0.5764370000000 1.0
C      1  0.5994410000000  0.3620800000000  0.6686880000000 1.0
C      1  0.6003000000000  0.4632070000000  0.7161840000000 1.0
C      1  0.5986550000000  0.5764370000000  0.7005260000000 1.0
C      1  0.5005020000000  0.7108360000000  0.6366130000000 1.0
C      1  0.5045940000000  0.7422070000000  0.5073860000000 1.0
C      1  0.4921110000000  0.7238170000000  0.4071470000000 1.0
C      1  0.5005020000000  0.6366130000000  0.2891640000000 1.0
C      1  0.5045940000000  0.5073860000000  0.2577930000000 1.0
C      1  0.4921110000000  0.4071470000000  0.2761830000000 1.0
C      1  0.5005020000000  0.2891640000000  0.3633870000000 1.0
C      1  0.5045940000000  0.2577930000000  0.4926140000000 1.0
C      1  0.4921110000000  0.2761830000000  0.5928530000000 1.0
C      1  0.5005020000000  0.3633870000000  0.7108360000000 1.0
C      1  0.5045940000000  0.4926140000000  0.7422070000000 1.0
C      1  0.4921110000000  0.5928530000000  0.7238170000000 1.0
C      1  0.3984970000000  0.6110870000000  0.6846750000000 1.0
C      1  0.4086000000000  0.6870960000000  0.6067540000000 1.0
C      1  0.3988880000000  0.7098000000000  0.5006360000000 1.0
C      1  0.3984970000000  0.6846750000000  0.3889130000000 1.0
C      1  0.4086000000000  0.6067540000000  0.3129040000000 1.0
C      1  0.3988880000000  0.5006360000000  0.2902000000000 1.0
C      1  0.3984970000000  0.3889130000000  0.3153250000000 1.0
C      1  0.4086000000000  0.3129040000000  0.3932460000000 1.0
C      1  0.3988880000000  0.2902000000000  0.4993640000000 1.0
C      1  0.3984970000000  0.3153250000000  0.6110870000000 1.0
C      1  0.4086000000000  0.3932460000000  0.6870960000000 1.0
C      1  0.3988880000000  0.4993640000000  0.7098000000000 1.0
C      1  0.2959220000000  0.3782540000000  0.3532530000000 1.0
C      1  0.2922640000000  0.3228730000000  0.4305420000000 1.0
C      1  0.2939770000000  0.3166400000000  0.5296510000000 1.0
C      1  0.2959220000000  0.3532530000000  0.6217460000000 1.0
C      1  0.2922640000000  0.4305420000000  0.6771270000000 1.0
C      1  0.2939770000000  0.5296510000000  0.6833600000000 1.0
C      1  0.2959220000000  0.6217460000000  0.6467470000000 1.0
C      1  0.2922640000000  0.6771270000000  0.5694580000000 1.0
C      1  0.2939770000000  0.6833600000000  0.4703490000000 1.0
C      1  0.2959220000000  0.6467470000000  0.3782540000000 1.0
C      1  0.2922640000000  0.5694580000000  0.3228730000000 1.0
C      1  0.2939770000000  0.4703490000000  0.3166400000000 1.0
C      1  0.7060190000000  0.4024850000000  0.6642640000000 1.0
C      1  0.7053960000000  0.4978100000000  0.6913500000000 1.0
C      1  0.7048320000000  0.5925800000000  0.6649100000000 1.0
C      1  0.7060190000000  0.6642650000000  0.5975160000000 1.0
C      1  0.7053960000000  0.6913500000000  0.5021900000000 1.0
C      1  0.7048320000000  0.6649100000000  0.4074200000000 1.0
C      1  0.7060190000000  0.5975150000000  0.3357360000000 1.0
C      1  0.7053960000000  0.5021900000000  0.3086500000000 1.0
C      1  0.7048320000000  0.4074200000000  0.3350900000000 1.0
C      1  0.7060190000000  0.3357350000000  0.4024840000000 1.0
C      1  0.7053960000000  0.3086500000000  0.4978100000000 1.0
C      1  0.7048320000000  0.3350900000000  0.5925800000000 1.0
END
