TITL C-986978-6805-138 5.80802178722047e-06 3375 -361.621434781672 0 0 60 (C3i) n - 1
REM
REM in /home/bkarasulu/work/CARBON/AIRSS/Generating-Clusters/REBO/Higher-Symm/Only-C60
REM
REM
REM
REM
REM
REM ./C.cell (a2850807a9bf4ad07a5b6933b78d9264)
REM AIRSS Version 0.9.1 bugfix July 2018 build 013d7b7c2542+ Fri, 06 Jul 2018 19:26:36 +0100
REM compiler GCC version 9.2.1 20190827 (Red Hat 9.2.1-1)
REM options -cpp -mtune=generic -march=x86-64 -g -O0 -fpre-include=/usr/include/finclude/math-vector-fortran.h
REM seed -1395533413 1087956696 1138123447 1243280143 258335438 848700200 -1070941817 -1837367889 1407647856 852331369 1011566417 -1298791139 -1233940899 1470714592 -760850308 -24060295 -1224494296 -2015345423 698686191 -456074195 1326951977 -447541592 990684867 -193634035 -830851249 599808380 -81898557 2136711595 -1744398362 -1495796819 1394719264 -1402395738 -966471843
REM
CELL 1.54180   15.00000   15.00000   15.00000   90.00000   90.00000   90.00000
LATT -1
SFAC C  
C      1  0.6047760000000  0.4501260000000  0.6752110000000 1.0
C      1  0.7041280000000  0.5498610000000  0.4968670000000 1.0
C      1  0.5993480000000  0.4501320000000  0.3216530000000 1.0
C      1  0.3952240000000  0.5498740000000  0.3247890000000 1.0
C      1  0.2958720000000  0.4501390000000  0.5031330000000 1.0
C      1  0.4006520000000  0.5498680000000  0.6783470000000 1.0
C      1  0.5525540000000  0.4096910000000  0.4068470000000 1.0
C      1  0.4456100000000  0.5903120000000  0.4079110000000 1.0
C      1  0.3930480000000  0.4096950000000  0.5010590000000 1.0
C      1  0.4474460000000  0.5903090000000  0.5931530000000 1.0
C      1  0.5543900000000  0.4096880000000  0.5920890000000 1.0
C      1  0.6069520000000  0.5903050000000  0.4989410000000 1.0
C      1  0.3660560000000  0.3537340000000  0.6185700000000 1.0
C      1  0.5357220000000  0.6462640000000  0.6752840000000 1.0
C      1  0.6696520000000  0.3537260000000  0.5567060000000 1.0
C      1  0.6339440000000  0.6462660000000  0.3814300000000 1.0
C      1  0.4642780000000  0.3537360000000  0.3247160000000 1.0
C      1  0.3303480000000  0.6462740000000  0.4432940000000 1.0
C      1  0.4230810000000  0.5417640000000  0.5008480000000 1.0
C      1  0.4622720000000  0.4582390000000  0.5670380000000 1.0
C      1  0.5391950000000  0.5417590000000  0.5661920000000 1.0
C      1  0.5769190000000  0.4582360000000  0.4991520000000 1.0
C      1  0.5377280000000  0.5417610000000  0.4329620000000 1.0
C      1  0.4608050000000  0.4582410000000  0.4338080000000 1.0
C      1  0.4240860000000  0.2948070000000  0.4212450000000 1.0
C      1  0.3938520000000  0.7051990000000  0.5263660000000 1.0
C      1  0.4697470000000  0.2948030000000  0.6051100000000 1.0
C      1  0.5759140000000  0.7051930000000  0.5787550000000 1.0
C      1  0.6061480000000  0.2948010000000  0.4736340000000 1.0
C      1  0.5302530000000  0.7051970000000  0.3948900000000 1.0
C      1  0.6829470000000  0.4372320000000  0.6121630000000 1.0
C      1  0.6886130000000  0.5627570000000  0.3976440000000 1.0
C      1  0.5056600000000  0.4372430000000  0.2854780000000 1.0
C      1  0.3170530000000  0.5627680000000  0.3878370000000 1.0
C      1  0.3113870000000  0.4372430000000  0.6023560000000 1.0
C      1  0.4943400000000  0.5627570000000  0.7145220000000 1.0
C      1  0.4770670000000  0.4068400000000  0.7554890000000 1.0
C      1  0.7097990000000  0.5931470000000  0.6476050000000 1.0
C      1  0.7327240000000  0.4068390000000  0.3921110000000 1.0
C      1  0.5229330000000  0.5931600000000  0.2445110000000 1.0
C      1  0.2902010000000  0.4068530000000  0.3523950000000 1.0
C      1  0.2672760000000  0.5931610000000  0.6078890000000 1.0
C      1  0.4631410000000  0.5208090000000  0.2644880000000 1.0
C      1  0.2776100000000  0.4792050000000  0.4141650000000 1.0
C      1  0.3144710000000  0.5208070000000  0.6496780000000 1.0
C      1  0.5368590000000  0.4791910000000  0.7355120000000 1.0
C      1  0.7223900000000  0.5207950000000  0.5858350000000 1.0
C      1  0.6855290000000  0.4791930000000  0.3503220000000 1.0
C      1  0.5323210000000  0.3053870000000  0.4028150000000 1.0
C      1  0.4320070000000  0.6946170000000  0.4234170000000 1.0
C      1  0.3996690000000  0.3053890000000  0.5205920000000 1.0
C      1  0.4676790000000  0.6946130000000  0.5971850000000 1.0
C      1  0.5679930000000  0.3053830000000  0.5765830000000 1.0
C      1  0.6003310000000  0.6946110000000  0.4794080000000 1.0
C      1  0.5601150000000  0.6514650000000  0.3011360000000 1.0
C      1  0.3578270000000  0.3485430000000  0.3485070000000 1.0
C      1  0.2977260000000  0.6514690000000  0.5473790000000 1.0
C      1  0.4398850000000  0.3485350000000  0.6988640000000 1.0
C      1  0.6421730000000  0.6514570000000  0.6514930000000 1.0
C      1  0.7022740000000  0.3485310000000  0.4526210000000 1.0
END
