TITL C-986974-580-192 0.000753541030659202 3375 -335.385078722705 0 0 60 (C2) n - 1
REM
REM in /home/bkarasulu/work/CARBON/AIRSS/Generating-Clusters/REBO/Higher-Symm/Only-C60
REM
REM
REM
REM
REM
REM ./C.cell (a2850807a9bf4ad07a5b6933b78d9264)
REM AIRSS Version 0.9.1 bugfix July 2018 build 013d7b7c2542+ Fri, 06 Jul 2018 19:26:36 +0100
REM compiler GCC version 9.2.1 20190827 (Red Hat 9.2.1-1)
REM options -cpp -mtune=generic -march=x86-64 -g -O0 -fpre-include=/usr/include/finclude/math-vector-fortran.h
REM seed 185732212 1114712328 -1739395143 -1730866978 780471950 1547859201 1662340612 -1483894466 1402237432 -574571726 1578234688 1458473514 -15170127 805287631 -1713275790 -1495793772 124732485 -241560648 -257751106 1600746858 -303944140 -1619700128 -394193757 1225199705 311253376 2094418320 395718508 309739266 -321400133 -705732478 1680368593 1277867331 -1095887366
REM
CELL 1.54180   15.00000   15.00000   15.00000   90.00000   90.00000   90.00000
LATT -1
SFAC C  
C      1  0.7349800000000  0.5535460000000  0.4505570000000 1.0
C      1  0.5446120000000  0.2680780000000  0.4506200000000 1.0
C      1  0.2650410000000  0.4464500000000  0.4505460000000 1.0
C      1  0.4553770000000  0.7319310000000  0.4506170000000 1.0
C      1  0.4765550000000  0.3812870000000  0.4750220000000 1.0
C      1  0.3771560000000  0.5195080000000  0.4743500000000 1.0
C      1  0.5234420000000  0.6187320000000  0.4750190000000 1.0
C      1  0.6228610000000  0.4804890000000  0.4743580000000 1.0
C      1  0.6058370000000  0.5706970000000  0.4256980000000 1.0
C      1  0.5720420000000  0.3961020000000  0.4296890000000 1.0
C      1  0.3941690000000  0.4293210000000  0.4256840000000 1.0
C      1  0.4279830000000  0.6038980000000  0.4296950000000 1.0
C      1  0.6634700000000  0.4176750000000  0.6405690000000 1.0
C      1  0.4208020000000  0.3498510000000  0.6446640000000 1.0
C      1  0.3365170000000  0.5823250000000  0.6405690000000 1.0
C      1  0.5791960000000  0.6501370000000  0.6446790000000 1.0
C      1  0.6907920000000  0.5524790000000  0.3563310000000 1.0
C      1  0.5418250000000  0.3171040000000  0.3588450000000 1.0
C      1  0.3092020000000  0.4474970000000  0.3563280000000 1.0
C      1  0.4581760000000  0.6829080000000  0.3588430000000 1.0
C      1  0.3778850000000  0.7035400000000  0.5020330000000 1.0
C      1  0.6985300000000  0.6289720000000  0.5012060000000 1.0
C      1  0.6221240000000  0.2964580000000  0.5020350000000 1.0
C      1  0.3014770000000  0.3710210000000  0.5012100000000 1.0
C      1  0.6131440000000  0.3560490000000  0.7132880000000 1.0
C      1  0.3671980000000  0.3978590000000  0.7212340000000 1.0
C      1  0.3868490000000  0.6439550000000  0.7132770000000 1.0
C      1  0.6328010000000  0.6021510000000  0.7212550000000 1.0
C      1  0.5196030000000  0.3499530000000  0.2749730000000 1.0
C      1  0.3360150000000  0.4717440000000  0.2709160000000 1.0
C      1  0.4803690000000  0.6500540000000  0.2749630000000 1.0
C      1  0.6639590000000  0.5282310000000  0.2709310000000 1.0
C      1  0.4190560000000  0.4895800000000  0.2326890000000 1.0
C      1  0.4916250000000  0.5658490000000  0.2342820000000 1.0
C      1  0.5809170000000  0.5104190000000  0.2327050000000 1.0
C      1  0.5083430000000  0.4341520000000  0.2342850000000 1.0
C      1  0.5255150000000  0.3807170000000  0.6454260000000 1.0
C      1  0.3783310000000  0.4794430000000  0.6433680000000 1.0
C      1  0.4744830000000  0.6192950000000  0.6454220000000 1.0
C      1  0.6216720000000  0.5205510000000  0.6433500000000 1.0
C      1  0.5607530000000  0.4379810000000  0.5593610000000 1.0
C      1  0.4487590000000  0.4497330000000  0.5614360000000 1.0
C      1  0.4392650000000  0.5620180000000  0.5593410000000 1.0
C      1  0.5512580000000  0.5502460000000  0.5614550000000 1.0
C      1  0.4496990000000  0.2724270000000  0.4933360000000 1.0
C      1  0.2671690000000  0.5437210000000  0.4876990000000 1.0
C      1  0.5503320000000  0.7275620000000  0.4933430000000 1.0
C      1  0.7328490000000  0.4562870000000  0.4877120000000 1.0
C      1  0.6319880000000  0.6817160000000  0.4341690000000 1.0
C      1  0.6823650000000  0.3674550000000  0.4397440000000 1.0
C      1  0.3680200000000  0.3182840000000  0.4341550000000 1.0
C      1  0.3176420000000  0.6325560000000  0.4397360000000 1.0
C      1  0.5272590000000  0.5606740000000  0.7280040000000 1.0
C      1  0.5811520000000  0.4629830000000  0.7333700000000 1.0
C      1  0.4727270000000  0.4393360000000  0.7280000000000 1.0
C      1  0.4188290000000  0.5370070000000  0.7333560000000 1.0
C      1  0.3813290000000  0.3278870000000  0.5635880000000 1.0
C      1  0.3154680000000  0.6227660000000  0.5535250000000 1.0
C      1  0.6186750000000  0.6721150000000  0.5635800000000 1.0
C      1  0.6845320000000  0.3772380000000  0.5535590000000 1.0
END
