TITL C-986978-6805-963 9.65882510090678e-07 3375 -328.858373180105 0 0 60 (C3i) n - 1
REM
REM in /home/bkarasulu/work/CARBON/AIRSS/Generating-Clusters/REBO/Higher-Symm/Only-C60
REM
REM
REM
REM
REM
REM ./C.cell (a2850807a9bf4ad07a5b6933b78d9264)
REM AIRSS Version 0.9.1 bugfix July 2018 build 013d7b7c2542+ Fri, 06 Jul 2018 19:26:36 +0100
REM compiler GCC version 9.2.1 20190827 (Red Hat 9.2.1-1)
REM options -cpp -mtune=generic -march=x86-64 -g -O0 -fpre-include=/usr/include/finclude/math-vector-fortran.h
REM seed 103806196 2137240984 1733166768 -1721122557 674247909 -2035612626 -1226299960 -1922863418 -1139458582 481260113 -1944587428 -551748869 1323768459 -636050667 -1841895271 1398684256 -1128758846 915076364 222731075 1087650420 -1044979571 -703962586 -224970310 1749489482 1338468515 -737291065 1804094113 -849586594 555186559 -772733746 1060689631 253079472 1739731736
REM
CELL 1.54180   15.00000   15.00000   15.00000   90.00000   90.00000   90.00000
LATT -1
SFAC C  
C      1  0.5141760000000  0.2537160000000  0.5148300000000 1.0
C      1  0.7203760000000  0.3891360000000  0.4851630000000 1.0
C      1  0.7062000000000  0.6354190000000  0.5148400000000 1.0
C      1  0.4858240000000  0.7462840000000  0.4851700000000 1.0
C      1  0.2796240000000  0.6108640000000  0.5148370000000 1.0
C      1  0.2938000000000  0.3645810000000  0.4851600000000 1.0
C      1  0.4122720000000  0.4999390000000  0.3831150000000 1.0
C      1  0.4561910000000  0.4239900000000  0.6168820000000 1.0
C      1  0.5439200000000  0.4240600000000  0.3831140000000 1.0
C      1  0.5877280000000  0.5000610000000  0.6168850000000 1.0
C      1  0.5438090000000  0.5760100000000  0.3831180000000 1.0
C      1  0.4560800000000  0.5759400000000  0.6168860000000 1.0
C      1  0.4482930000000  0.5405450000000  0.2885520000000 1.0
C      1  0.4390370000000  0.4754840000000  0.7114480000000 1.0
C      1  0.4907470000000  0.4349550000000  0.2885500000000 1.0
C      1  0.5517070000000  0.4594550000000  0.7114480000000 1.0
C      1  0.5609630000000  0.5245160000000  0.2885520000000 1.0
C      1  0.5092530000000  0.5650450000000  0.7114500000000 1.0
C      1  0.6315650000000  0.4601590000000  0.3808330000000 1.0
C      1  0.6002870000000  0.5940130000000  0.6191700000000 1.0
C      1  0.4687240000000  0.6338630000000  0.3808360000000 1.0
C      1  0.3684350000000  0.5398410000000  0.6191670000000 1.0
C      1  0.3997130000000  0.4059870000000  0.3808300000000 1.0
C      1  0.5312760000000  0.3661370000000  0.6191640000000 1.0
C      1  0.6872620000000  0.5344400000000  0.5378380000000 1.0
C      1  0.5638040000000  0.6793950000000  0.4621680000000 1.0
C      1  0.3765420000000  0.6449520000000  0.5378390000000 1.0
C      1  0.3127380000000  0.4655600000000  0.4621620000000 1.0
C      1  0.4361960000000  0.3206050000000  0.5378320000000 1.0
C      1  0.6234580000000  0.3550480000000  0.4621610000000 1.0
C      1  0.5482300000000  0.3117350000000  0.4002950000000 1.0
C      1  0.6871590000000  0.4476320000000  0.5997000000000 1.0
C      1  0.6389300000000  0.6359040000000  0.4003040000000 1.0
C      1  0.4517700000000  0.6882650000000  0.5997050000000 1.0
C      1  0.3128410000000  0.5523680000000  0.4003000000000 1.0
C      1  0.3610700000000  0.3640960000000  0.5996960000000 1.0
C      1  0.7537650000000  0.4651080000000  0.4468560000000 1.0
C      1  0.6571000000000  0.7023180000000  0.5531500000000 1.0
C      1  0.4033370000000  0.7372140000000  0.4468610000000 1.0
C      1  0.2462350000000  0.5348920000000  0.5531440000000 1.0
C      1  0.3429000000000  0.2976820000000  0.4468500000000 1.0
C      1  0.5966630000000  0.2627860000000  0.5531390000000 1.0
C      1  0.7314240000000  0.5734440000000  0.4217410000000 1.0
C      1  0.5521090000000  0.7371380000000  0.5782680000000 1.0
C      1  0.3206860000000  0.6637000000000  0.4217410000000 1.0
C      1  0.2685760000000  0.4265560000000  0.5782590000000 1.0
C      1  0.4478910000000  0.2628620000000  0.4217320000000 1.0
C      1  0.6793140000000  0.3363000000000  0.5782590000000 1.0
C      1  0.3368930000000  0.4542020000000  0.6651140000000 1.0
C      1  0.4581070000000  0.3358530000000  0.3348790000000 1.0
C      1  0.6212110000000  0.3816390000000  0.6651140000000 1.0
C      1  0.6631070000000  0.5457980000000  0.3348860000000 1.0
C      1  0.5418930000000  0.6641470000000  0.6651210000000 1.0
C      1  0.3787890000000  0.6183610000000  0.3348860000000 1.0
C      1  0.5805990000000  0.4404890000000  0.5201400000000 1.0
C      1  0.5918370000000  0.5400460000000  0.4798610000000 1.0
C      1  0.5112380000000  0.5995550000000  0.5201430000000 1.0
C      1  0.4194010000000  0.5595110000000  0.4798600000000 1.0
C      1  0.4081630000000  0.4599540000000  0.5201390000000 1.0
C      1  0.4887620000000  0.4004450000000  0.4798570000000 1.0
END
