TITL C-986972-3822-79 0.650039509876873 3375 -333.62039769978 0 0 60 (C1) n - 1
REM
REM in /home/bkarasulu/work/CARBON/AIRSS/Generating-Clusters/REBO/Higher-Symm/Only-C60
REM
REM
REM
REM
REM
REM ./C.cell (a2850807a9bf4ad07a5b6933b78d9264)
REM AIRSS Version 0.9.1 bugfix July 2018 build 013d7b7c2542+ Fri, 06 Jul 2018 19:26:36 +0100
REM compiler GCC version 9.2.1 20190827 (Red Hat 9.2.1-1)
REM options -cpp -mtune=generic -march=x86-64 -g -O0 -fpre-include=/usr/include/finclude/math-vector-fortran.h
REM seed -1778563503 1501023613 -1654782869 -1650032205 -1373996389 1275339274 -693445040 -231960681 -156920785 -2049061156 -997863432 -1793598794 1839985069 766675560 -1593612350 -1549627020 401568680 -1114156116 1976156650 71654887 -1755197801 -1400477244 -91307862 -1395039179 159900175 16061799 -216602644 -1769856919 1046826710 -688702416 -1586005840 1659173802 1373510272
REM
CELL 1.54180   15.00000   15.00000   15.00000   90.00000   90.00000   90.00000
LATT -1
SFAC C  
C      1  0.6597270000000  0.6265490000000  0.4310990000000 1.0
C      1  0.7008300000000  0.4542180000000  0.4313570000000 1.0
C      1  0.5922600000000  0.3136380000000  0.4296140000000 1.0
C      1  0.4132780000000  0.3109930000000  0.4280020000000 1.0
C      1  0.2992880000000  0.4508080000000  0.4264620000000 1.0
C      1  0.3387800000000  0.6266220000000  0.4253470000000 1.0
C      1  0.5003510000000  0.7039910000000  0.4271950000000 1.0
C      1  0.5248480000000  0.6210100000000  0.7036580000000 1.0
C      1  0.6149790000000  0.5589880000000  0.7065440000000 1.0
C      1  0.6180330000000  0.4456940000000  0.7060800000000 1.0
C      1  0.5328630000000  0.3787690000000  0.7024670000000 1.0
C      1  0.4389450000000  0.4055650000000  0.6922390000000 1.0
C      1  0.3960010000000  0.4949920000000  0.6875520000000 1.0
C      1  0.4322880000000  0.5875010000000  0.6931160000000 1.0
C      1  0.6712190000000  0.3656380000000  0.4874370000000 1.0
C      1  0.5039160000000  0.2770990000000  0.4834030000000 1.0
C      1  0.3257180000000  0.3554430000000  0.4792750000000 1.0
C      1  0.2800720000000  0.5468390000000  0.4782820000000 1.0
C      1  0.4028120000000  0.6978200000000  0.4795500000000 1.0
C      1  0.5921330000000  0.6941600000000  0.4861980000000 1.0
C      1  0.7081030000000  0.5480430000000  0.4892210000000 1.0
C      1  0.5864480000000  0.4265220000000  0.5146010000000 1.0
C      1  0.4987180000000  0.3791060000000  0.5168050000000 1.0
C      1  0.4019220000000  0.4202220000000  0.5195270000000 1.0
C      1  0.3775890000000  0.5269320000000  0.5190390000000 1.0
C      1  0.4471160000000  0.6057750000000  0.5153190000000 1.0
C      1  0.5468340000000  0.6003970000000  0.5131000000000 1.0
C      1  0.6060400000000  0.5224860000000  0.5137820000000 1.0
C      1  0.7336290000000  0.5814190000000  0.5846820000000 1.0
C      1  0.7113890000000  0.3681090000000  0.5842650000000 1.0
C      1  0.5295920000000  0.2516550000000  0.5838030000000 1.0
C      1  0.3298940000000  0.3249950000000  0.5817690000000 1.0
C      1  0.2581510000000  0.5250890000000  0.5812070000000 1.0
C      1  0.3717090000000  0.7066810000000  0.5810180000000 1.0
C      1  0.5830860000000  0.7325200000000  0.5840180000000 1.0
C      1  0.5024360000000  0.3663190000000  0.3843860000000 1.0
C      1  0.3994700000000  0.4156190000000  0.3864010000000 1.0
C      1  0.3734690000000  0.5266240000000  0.3857000000000 1.0
C      1  0.4437950000000  0.6163620000000  0.3825340000000 1.0
C      1  0.5580060000000  0.6171240000000  0.3815540000000 1.0
C      1  0.6298300000000  0.5281320000000  0.3819190000000 1.0
C      1  0.6052160000000  0.4164150000000  0.3823170000000 1.0
C      1  0.3080370000000  0.4938820000000  0.6495890000000 1.0
C      1  0.3755550000000  0.6529540000000  0.6531200000000 1.0
C      1  0.5432730000000  0.7035590000000  0.6600370000000 1.0
C      1  0.6931260000000  0.5945540000000  0.6557480000000 1.0
C      1  0.6948370000000  0.4062210000000  0.6558380000000 1.0
C      1  0.5512470000000  0.2954760000000  0.6598570000000 1.0
C      1  0.3836270000000  0.3389930000000  0.6524280000000 1.0
C      1  0.5050340000000  0.4987890000000  0.1922500000000 1.0
C      1  0.5230450000000  0.4997180000000  0.6504850000000 1.0
C      1  0.4987270000000  0.4977260000000  0.8423350000000 1.0
C      1  0.5024200000000  0.4982580000000  0.1048030000000 1.0
C      1  0.4993610000000  0.4976250000000  0.0173364000000 1.0
C      1  0.5058630000000  0.4987890000000  0.2795600000000 1.0
C      1  0.4884820000000  0.4965110000000  0.5695370000000 1.0
C      1  0.4968070000000  0.4973200000000  0.9297990000000 1.0
C      1  0.4897790000000  0.4957270000000  0.4562370000000 1.0
C      1  0.5100510000000  0.4986500000000  0.7551050000000 1.0
C      1  0.5015960000000  0.4978920000000  0.3668530000000 1.0
END
