TITL C-986975-4297-1115 2.69727998444383e-05 3375 -344.804126958511 0 0 60 (Th) n - 1
REM
REM in /home/bkarasulu/work/CARBON/AIRSS/Generating-Clusters/REBO/Higher-Symm/Only-C60
REM
REM
REM
REM
REM
REM ./C.cell (a2850807a9bf4ad07a5b6933b78d9264)
REM AIRSS Version 0.9.1 bugfix July 2018 build 013d7b7c2542+ Fri, 06 Jul 2018 19:26:36 +0100
REM compiler GCC version 9.2.1 20190827 (Red Hat 9.2.1-1)
REM options -cpp -mtune=generic -march=x86-64 -g -O0 -fpre-include=/usr/include/finclude/math-vector-fortran.h
REM seed -1264842260 -299345808 -1263411593 1578953291 -263783878 -764477277 217549175 -2141224592 -1342630436 567934028 -1695643202 1673190020 540693675 360977813 1763752024 193958197 92927671 -701737561 112124749 -725155774 2081865513 -1263910624 -63187140 -97456543 1241522131 -1042066652 -313848488 -1594997608 504459641 -1764854349 2060081201 -2001057468 -348292946
REM
CELL 1.54180   15.00000   15.00000   15.00000   90.00000   90.00000   90.00000
LATT -1
SFAC C  
C      1  0.3288180000000  0.4111260000000  0.4016520000000 1.0
C      1  0.4016520000000  0.3288180000000  0.4111260000000 1.0
C      1  0.4111260000000  0.4016520000000  0.3288180000000 1.0
C      1  0.6711820000000  0.5888740000000  0.4016520000000 1.0
C      1  0.6711820000000  0.4111260000000  0.5983480000000 1.0
C      1  0.3288180000000  0.5888740000000  0.5983480000000 1.0
C      1  0.5983480000000  0.6711820000000  0.4111260000000 1.0
C      1  0.5983480000000  0.3288180000000  0.5888740000000 1.0
C      1  0.4016520000000  0.6711820000000  0.5888740000000 1.0
C      1  0.5888740000000  0.5983480000000  0.3288180000000 1.0
C      1  0.5888740000000  0.4016520000000  0.6711820000000 1.0
C      1  0.4111260000000  0.5983480000000  0.6711820000000 1.0
C      1  0.3288180000000  0.4111260000000  0.5983480000000 1.0
C      1  0.4016520000000  0.3288180000000  0.5888740000000 1.0
C      1  0.4111260000000  0.4016520000000  0.6711820000000 1.0
C      1  0.6711820000000  0.5888740000000  0.5983480000000 1.0
C      1  0.6711820000000  0.4111260000000  0.4016520000000 1.0
C      1  0.3288180000000  0.5888740000000  0.4016520000000 1.0
C      1  0.5983480000000  0.6711820000000  0.5888740000000 1.0
C      1  0.5983480000000  0.3288180000000  0.4111260000000 1.0
C      1  0.4016520000000  0.6711820000000  0.4111260000000 1.0
C      1  0.5888740000000  0.5983480000000  0.6711820000000 1.0
C      1  0.5888740000000  0.4016520000000  0.3288180000000 1.0
C      1  0.4111260000000  0.5983480000000  0.3288180000000 1.0
C      1  0.5524420000000  0.7645140000000  0.4467510000000 1.0
C      1  0.4467510000000  0.5524420000000  0.7645140000000 1.0
C      1  0.7645140000000  0.4467510000000  0.5524420000000 1.0
C      1  0.4475580000000  0.2354860000000  0.4467510000000 1.0
C      1  0.4475580000000  0.7645140000000  0.5532490000000 1.0
C      1  0.5524420000000  0.2354860000000  0.5532490000000 1.0
C      1  0.5532490000000  0.4475580000000  0.7645140000000 1.0
C      1  0.5532490000000  0.5524420000000  0.2354860000000 1.0
C      1  0.4467510000000  0.4475580000000  0.2354860000000 1.0
C      1  0.2354860000000  0.5532490000000  0.5524420000000 1.0
C      1  0.2354860000000  0.4467510000000  0.4475580000000 1.0
C      1  0.7645140000000  0.5532490000000  0.4475580000000 1.0
C      1  0.5524420000000  0.7645140000000  0.5532490000000 1.0
C      1  0.4467510000000  0.5524420000000  0.2354860000000 1.0
C      1  0.7645140000000  0.4467510000000  0.4475580000000 1.0
C      1  0.4475580000000  0.2354860000000  0.5532490000000 1.0
C      1  0.4475580000000  0.7645140000000  0.4467510000000 1.0
C      1  0.5524420000000  0.2354860000000  0.4467510000000 1.0
C      1  0.5532490000000  0.4475580000000  0.2354860000000 1.0
C      1  0.5532490000000  0.5524420000000  0.7645140000000 1.0
C      1  0.4467510000000  0.4475580000000  0.7645140000000 1.0
C      1  0.2354860000000  0.5532490000000  0.4475580000000 1.0
C      1  0.2354860000000  0.4467510000000  0.5524420000000 1.0
C      1  0.7645140000000  0.5532490000000  0.5524420000000 1.0
C      1  0.4544530000000  0.6431040000000  0.5000000000000 1.0
C      1  0.5000000000000  0.4544530000000  0.6431040000000 1.0
C      1  0.6431040000000  0.5000000000000  0.4544530000000 1.0
C      1  0.5455470000000  0.3568960000000  0.5000000000000 1.0
C      1  0.5455470000000  0.6431040000000  0.5000000000000 1.0
C      1  0.5000000000000  0.5455470000000  0.6431040000000 1.0
C      1  0.5000000000000  0.4544530000000  0.3568960000000 1.0
C      1  0.5000000000000  0.5455470000000  0.3568960000000 1.0
C      1  0.3568960000000  0.5000000000000  0.4544530000000 1.0
C      1  0.3568960000000  0.5000000000000  0.5455470000000 1.0
C      1  0.6431040000000  0.5000000000000  0.5455470000000 1.0
C      1  0.4544530000000  0.3568960000000  0.5000000000000 1.0
END
