TITL C-986978-6805-999 0.00534968945021178 3375 -336.891827515004 0 0 60 (C6) n - 1
REM
REM in /home/bkarasulu/work/CARBON/AIRSS/Generating-Clusters/REBO/Higher-Symm/Only-C60
REM
REM
REM
REM
REM
REM ./C.cell (a2850807a9bf4ad07a5b6933b78d9264)
REM AIRSS Version 0.9.1 bugfix July 2018 build 013d7b7c2542+ Fri, 06 Jul 2018 19:26:36 +0100
REM compiler GCC version 9.2.1 20190827 (Red Hat 9.2.1-1)
REM options -cpp -mtune=generic -march=x86-64 -g -O0 -fpre-include=/usr/include/finclude/math-vector-fortran.h
REM seed -1444084524 -2059161322 -1256051498 1002798060 1100367867 503943149 -1997457224 -1148703264 873222678 1954916168 9992101 1343650812 1716927523 -1471972733 -1413059891 -450449456 -497768375 48391354 -713574444 -342955264 -1631518295 1938449256 1159734287 -1818236427 -115243120 -20671019 -1084748170 945320466 -377894553 -131335368 -1551227918 -1576638269 12819568
REM
CELL 1.54180   15.00000   15.00000   15.00000   90.00000   90.00000   90.00000
LATT -1
SFAC C  
C      1  0.6752860000000  0.6294790000000  0.4530730000000 1.0
C      1  0.6997720000000  0.4129380000000  0.4530750000000 1.0
C      1  0.5244870000000  0.2834560000000  0.4530780000000 1.0
C      1  0.3247150000000  0.3705200000000  0.4530730000000 1.0
C      1  0.3002290000000  0.5870620000000  0.4530750000000 1.0
C      1  0.4755120000000  0.7165420000000  0.4530790000000 1.0
C      1  0.7534760000000  0.5103050000000  0.5850630000000 1.0
C      1  0.6356660000000  0.2856370000000  0.5850690000000 1.0
C      1  0.3821820000000  0.2753310000000  0.5850660000000 1.0
C      1  0.2465250000000  0.4896960000000  0.5850620000000 1.0
C      1  0.3643320000000  0.7143630000000  0.5850690000000 1.0
C      1  0.6178180000000  0.7246690000000  0.5850670000000 1.0
C      1  0.5119650000000  0.2988300000000  0.3563740000000 1.0
C      1  0.3317670000000  0.3890560000000  0.3563710000000 1.0
C      1  0.3198060000000  0.5902230000000  0.3563720000000 1.0
C      1  0.4880330000000  0.7011710000000  0.3563740000000 1.0
C      1  0.6682310000000  0.6109440000000  0.3563710000000 1.0
C      1  0.6801950000000  0.4097770000000  0.3563720000000 1.0
C      1  0.4299530000000  0.5767280000000  0.4300450000000 1.0
C      1  0.5314260000000  0.5990320000000  0.4300420000000 1.0
C      1  0.6014730000000  0.5223010000000  0.4300450000000 1.0
C      1  0.5700470000000  0.4232740000000  0.4300440000000 1.0
C      1  0.4685750000000  0.4009690000000  0.4300430000000 1.0
C      1  0.3985300000000  0.4776980000000  0.4300430000000 1.0
C      1  0.4839900000000  0.2592640000000  0.5534420000000 1.0
C      1  0.2835150000000  0.3934940000000  0.5534360000000 1.0
C      1  0.2995200000000  0.6342260000000  0.5534380000000 1.0
C      1  0.5160100000000  0.7407370000000  0.5534410000000 1.0
C      1  0.7164850000000  0.6065060000000  0.5534360000000 1.0
C      1  0.7004780000000  0.3657750000000  0.5534380000000 1.0
C      1  0.5216620000000  0.4083780000000  0.6695950000000 1.0
C      1  0.4314850000000  0.4354290000000  0.6695970000000 1.0
C      1  0.4098240000000  0.5270510000000  0.6695960000000 1.0
C      1  0.4783380000000  0.5916220000000  0.6695970000000 1.0
C      1  0.5685150000000  0.5645710000000  0.6695950000000 1.0
C      1  0.5901760000000  0.4729490000000  0.6695960000000 1.0
C      1  0.4085430000000  0.4431330000000  0.3192480000000 1.0
C      1  0.4050260000000  0.5507710000000  0.3192490000000 1.0
C      1  0.4964830000000  0.6076420000000  0.3192480000000 1.0
C      1  0.5914570000000  0.5568670000000  0.3192460000000 1.0
C      1  0.5949740000000  0.4492290000000  0.3192500000000 1.0
C      1  0.5035180000000  0.3923580000000  0.3192500000000 1.0
C      1  0.6366330000000  0.6282080000000  0.6170430000000 1.0
C      1  0.6793460000000  0.4457810000000  0.6170430000000 1.0
C      1  0.5427180000000  0.3175660000000  0.6170420000000 1.0
C      1  0.3633660000000  0.3717930000000  0.6170440000000 1.0
C      1  0.3206530000000  0.5542200000000  0.6170420000000 1.0
C      1  0.4572820000000  0.6824350000000  0.6170420000000 1.0
C      1  0.4095270000000  0.2983650000000  0.4770210000000 1.0
C      1  0.2801430000000  0.4775330000000  0.4770160000000 1.0
C      1  0.3706210000000  0.6791630000000  0.4770230000000 1.0
C      1  0.5904730000000  0.7016330000000  0.4770220000000 1.0
C      1  0.7198550000000  0.5224660000000  0.4770160000000 1.0
C      1  0.6293790000000  0.3208350000000  0.4770230000000 1.0
C      1  0.4063230000000  0.4428210000000  0.5390970000000 1.0
C      1  0.4036470000000  0.5525400000000  0.5390970000000 1.0
C      1  0.4973250000000  0.6097190000000  0.5390970000000 1.0
C      1  0.5936780000000  0.5571780000000  0.5390960000000 1.0
C      1  0.5963540000000  0.4474620000000  0.5390960000000 1.0
C      1  0.5026770000000  0.3902810000000  0.5390960000000 1.0
END
