TITL C-986978-6805-322 1.86419360371073e-05 3375 -360.00814824636 0 0 60 (C6) n - 1
REM
REM in /home/bkarasulu/work/CARBON/AIRSS/Generating-Clusters/REBO/Higher-Symm/Only-C60
REM
REM
REM
REM
REM
REM ./C.cell (a2850807a9bf4ad07a5b6933b78d9264)
REM AIRSS Version 0.9.1 bugfix July 2018 build 013d7b7c2542+ Fri, 06 Jul 2018 19:26:36 +0100
REM compiler GCC version 9.2.1 20190827 (Red Hat 9.2.1-1)
REM options -cpp -mtune=generic -march=x86-64 -g -O0 -fpre-include=/usr/include/finclude/math-vector-fortran.h
REM seed -552892649 -1454737229 965876096 249367610 1334045184 -1899014262 740490869 775480369 -679849172 -1179637603 -258206414 222442758 983809132 1238552630 1360819770 -1038159110 235979371 818012324 -455840115 2076840482 1626106541 -71218510 -81807927 1356625373 2133526561 1514981335 -1407931213 -409094227 -1399487862 -587015540 -2067796036 -2024214699 398757466
REM
CELL 1.54180   15.00000   15.00000   15.00000   90.00000   90.00000   90.00000
LATT -1
SFAC C  
C      1  0.4095410000000  0.5478830000000  0.3086700000000 1.0
C      1  0.4962380000000  0.6022820000000  0.3086700000000 1.0
C      1  0.5866980000000  0.5543990000000  0.3086700000000 1.0
C      1  0.5904590000000  0.4521170000000  0.3086700000000 1.0
C      1  0.5037620000000  0.3977180000000  0.3086700000000 1.0
C      1  0.4133020000000  0.4456010000000  0.3086700000000 1.0
C      1  0.4095410000000  0.4521170000000  0.6913300000000 1.0
C      1  0.4962380000000  0.3977180000000  0.6913300000000 1.0
C      1  0.5866980000000  0.4456010000000  0.6913300000000 1.0
C      1  0.5904590000000  0.5478830000000  0.6913300000000 1.0
C      1  0.5037620000000  0.6022820000000  0.6913300000000 1.0
C      1  0.4133020000000  0.5543990000000  0.6913300000000 1.0
C      1  0.4756580000000  0.4109920000000  0.4379620000000 1.0
C      1  0.4107460000000  0.4765770000000  0.4379620000000 1.0
C      1  0.4350880000000  0.5655850000000  0.4379620000000 1.0
C      1  0.5243420000000  0.5890080000000  0.4379620000000 1.0
C      1  0.5892540000000  0.5234230000000  0.4379620000000 1.0
C      1  0.5649120000000  0.4344150000000  0.4379620000000 1.0
C      1  0.4756580000000  0.5890080000000  0.5620380000000 1.0
C      1  0.4107460000000  0.5234230000000  0.5620380000000 1.0
C      1  0.4350880000000  0.4344150000000  0.5620380000000 1.0
C      1  0.5243420000000  0.4109920000000  0.5620380000000 1.0
C      1  0.5892540000000  0.4765770000000  0.5620380000000 1.0
C      1  0.5649120000000  0.5655850000000  0.5620380000000 1.0
C      1  0.4432890000000  0.6951140000000  0.5451980000000 1.0
C      1  0.6406180000000  0.6466700000000  0.5451980000000 1.0
C      1  0.6973290000000  0.4515560000000  0.5451980000000 1.0
C      1  0.5567110000000  0.3048860000000  0.5451980000000 1.0
C      1  0.3593820000000  0.3533300000000  0.5451980000000 1.0
C      1  0.3026710000000  0.5484440000000  0.5451980000000 1.0
C      1  0.4432890000000  0.3048860000000  0.4548020000000 1.0
C      1  0.6406180000000  0.3533300000000  0.4548020000000 1.0
C      1  0.6973290000000  0.5484440000000  0.4548020000000 1.0
C      1  0.5567110000000  0.6951140000000  0.4548020000000 1.0
C      1  0.3593820000000  0.6466700000000  0.4548020000000 1.0
C      1  0.3026710000000  0.4515560000000  0.4548020000000 1.0
C      1  0.4315570000000  0.2766790000000  0.5643100000000 1.0
C      1  0.2723770000000  0.4476130000000  0.5643100000000 1.0
C      1  0.3408200000000  0.6709340000000  0.5643100000000 1.0
C      1  0.5684430000000  0.7233210000000  0.5643100000000 1.0
C      1  0.7276230000000  0.5523870000000  0.5643100000000 1.0
C      1  0.6591800000000  0.3290660000000  0.5643100000000 1.0
C      1  0.4315570000000  0.7233210000000  0.4356900000000 1.0
C      1  0.2723770000000  0.5523870000000  0.4356900000000 1.0
C      1  0.3408200000000  0.3290660000000  0.4356900000000 1.0
C      1  0.5684430000000  0.2766790000000  0.4356900000000 1.0
C      1  0.7276230000000  0.4476130000000  0.4356900000000 1.0
C      1  0.6591800000000  0.6709340000000  0.4356900000000 1.0
C      1  0.3320760000000  0.5909650000000  0.3587810000000 1.0
C      1  0.4948160000000  0.6909090000000  0.3587810000000 1.0
C      1  0.6627400000000  0.5999440000000  0.3587810000000 1.0
C      1  0.6679240000000  0.4090350000000  0.3587810000000 1.0
C      1  0.5051840000000  0.3090910000000  0.3587810000000 1.0
C      1  0.3372600000000  0.4000560000000  0.3587810000000 1.0
C      1  0.3320760000000  0.4090350000000  0.6412190000000 1.0
C      1  0.4948160000000  0.3090910000000  0.6412190000000 1.0
C      1  0.6627400000000  0.4000560000000  0.6412190000000 1.0
C      1  0.6679240000000  0.5909650000000  0.6412190000000 1.0
C      1  0.5051840000000  0.6909090000000  0.6412190000000 1.0
C      1  0.3372600000000  0.5999440000000  0.6412190000000 1.0
END
