TITL C-986974-580-56 -7.89676735869494e-06 3375 -358.960479525268 0 0 60 (C2) n - 1
REM
REM in /home/bkarasulu/work/CARBON/AIRSS/Generating-Clusters/REBO/Higher-Symm/Only-C60
REM
REM
REM
REM
REM
REM ./C.cell (a2850807a9bf4ad07a5b6933b78d9264)
REM AIRSS Version 0.9.1 bugfix July 2018 build 013d7b7c2542+ Fri, 06 Jul 2018 19:26:36 +0100
REM compiler GCC version 9.2.1 20190827 (Red Hat 9.2.1-1)
REM options -cpp -mtune=generic -march=x86-64 -g -O0 -fpre-include=/usr/include/finclude/math-vector-fortran.h
REM seed -720039305 -478866386 -1740690638 423705948 335148706 377000935 1253160583 -283510291 -1100398915 1577362059 201401995 436732699 -2113105925 -436939943 130881550 629075277 -906997765 927852378 1142918239 -969842565 176859928 -1577464378 1441476571 916278344 2058194092 1306029295 -1993262327 206734528 2025781346 -1023518021 2011953727 191711355 603968536
REM
CELL 1.54180   15.00000   15.00000   15.00000   90.00000   90.00000   90.00000
LATT -1
SFAC C  
C      1  0.4000620000000  0.7110440000000  0.3937870000000 1.0
C      1  0.4571930000000  0.7115780000000  0.6380010000000 1.0
C      1  0.6383750000000  0.7153910000000  0.4658330000000 1.0
C      1  0.4000620000000  0.2889560000000  0.6062130000000 1.0
C      1  0.4571930000000  0.2884220000000  0.3619990000000 1.0
C      1  0.6383750000000  0.2846090000000  0.5341670000000 1.0
C      1  0.5359730000000  0.3843120000000  0.4460380000000 1.0
C      1  0.4389860000000  0.3860660000000  0.4959490000000 1.0
C      1  0.5298890000000  0.3864630000000  0.5556630000000 1.0
C      1  0.5359730000000  0.6156880000000  0.5539620000000 1.0
C      1  0.4389860000000  0.6139340000000  0.5040510000000 1.0
C      1  0.5298890000000  0.6135370000000  0.4443370000000 1.0
C      1  0.7188300000000  0.4321040000000  0.6022090000000 1.0
C      1  0.4848280000000  0.4251620000000  0.2548900000000 1.0
C      1  0.2961430000000  0.4248570000000  0.6360750000000 1.0
C      1  0.7188300000000  0.5678960000000  0.3977910000000 1.0
C      1  0.4848280000000  0.5748380000000  0.7451100000000 1.0
C      1  0.2961430000000  0.5751430000000  0.3639250000000 1.0
C      1  0.5288610000000  0.5434630000000  0.3773610000000 1.0
C      1  0.3812500000000  0.5437070000000  0.5366500000000 1.0
C      1  0.5932990000000  0.5458850000000  0.5914180000000 1.0
C      1  0.5288610000000  0.4565370000000  0.6226390000000 1.0
C      1  0.3812500000000  0.4562930000000  0.4633500000000 1.0
C      1  0.5932990000000  0.4541150000000  0.4085810000000 1.0
C      1  0.6532350000000  0.5231420000000  0.3400850000000 1.0
C      1  0.2868060000000  0.5186930000000  0.4482290000000 1.0
C      1  0.5631690000000  0.5142780000000  0.7151890000000 1.0
C      1  0.6532360000000  0.4768580000000  0.6599150000000 1.0
C      1  0.2868070000000  0.4813070000000  0.5517710000000 1.0
C      1  0.5631690000000  0.4857220000000  0.2848110000000 1.0
C      1  0.3004370000000  0.5153650000000  0.6798890000000 1.0
C      1  0.7563260000000  0.5090790000000  0.5495790000000 1.0
C      1  0.4426480000000  0.5151490000000  0.2364800000000 1.0
C      1  0.3004370000000  0.4846350000000  0.3201110000000 1.0
C      1  0.7563260000000  0.4909210000000  0.4504210000000 1.0
C      1  0.4426490000000  0.4848510000000  0.7635200000000 1.0
C      1  0.3762520000000  0.3715730000000  0.6533320000000 1.0
C      1  0.6914570000000  0.3659500000000  0.5308260000000 1.0
C      1  0.4306230000000  0.3717520000000  0.3170780000000 1.0
C      1  0.3762520000000  0.6284270000000  0.3466680000000 1.0
C      1  0.6914570000000  0.6340500000000  0.4691740000000 1.0
C      1  0.4306240000000  0.6282480000000  0.6829220000000 1.0
C      1  0.3908010000000  0.2971990000000  0.5091740000000 1.0
C      1  0.5603510000000  0.2951510000000  0.5920240000000 1.0
C      1  0.5474870000000  0.2930150000000  0.4008460000000 1.0
C      1  0.3908010000000  0.7028010000000  0.4908260000000 1.0
C      1  0.5603510000000  0.7048490000000  0.4079760000000 1.0
C      1  0.5474870000000  0.7069850000000  0.5991540000000 1.0
C      1  0.6148560000000  0.7542060000000  0.5515010000000 1.0
C      1  0.4857010000000  0.7491990000000  0.3700650000000 1.0
C      1  0.3936080000000  0.7483050000000  0.5744320000000 1.0
C      1  0.6148550000000  0.2457940000000  0.4484990000000 1.0
C      1  0.4857010000000  0.2508010000000  0.6299350000000 1.0
C      1  0.3936080000000  0.2516950000000  0.4255680000000 1.0
C      1  0.4486690000000  0.4257260000000  0.6895770000000 1.0
C      1  0.6912480000000  0.4172740000000  0.4461260000000 1.0
C      1  0.3626350000000  0.4260810000000  0.3611320000000 1.0
C      1  0.4486690000000  0.5742740000000  0.3104230000000 1.0
C      1  0.6912490000000  0.5827260000000  0.5538740000000 1.0
C      1  0.3626350000000  0.5739190000000  0.6388680000000 1.0
END
