TITL C-986976-6631-1078 6.98444327483251e-05 3375 -349.818931994545 0 0 60 (C1) n - 1
REM
REM in /home/bkarasulu/work/CARBON/AIRSS/Generating-Clusters/REBO/Higher-Symm/Only-C60
REM
REM
REM
REM
REM
REM ./C.cell (a2850807a9bf4ad07a5b6933b78d9264)
REM AIRSS Version 0.9.1 bugfix July 2018 build 013d7b7c2542+ Fri, 06 Jul 2018 19:26:36 +0100
REM compiler GCC version 9.2.1 20190827 (Red Hat 9.2.1-1)
REM options -cpp -mtune=generic -march=x86-64 -g -O0 -fpre-include=/usr/include/finclude/math-vector-fortran.h
REM seed 1426281089 -1398671469 -663019957 -2083906941 50857088 -1560514117 199741760 764027884 -1007155379 1111846070 -1685508423 -1889768787 -1386648180 1724040893 747044804 -1398831657 877722025 -395330797 -686216071 1230302825 1768313923 1436124315 2100367406 -254035706 -92581520 -2012231392 662211609 -1797305045 -1156499637 1467426684 89317564 -2076410551 -620405900
REM
CELL 1.54180   15.00000   15.00000   15.00000   90.00000   90.00000   90.00000
LATT -1
SFAC C  
C      1  0.6779010000000  0.4091240000000  0.5437190000000 1.0
C      1  0.6957270000000  0.4971880000000  0.4014080000000 1.0
C      1  0.6967490000000  0.5796990000000  0.5451580000000 1.0
C      1  0.2961000000000  0.4028060000000  0.5534910000000 1.0
C      1  0.3142660000000  0.4885960000000  0.4087760000000 1.0
C      1  0.3101510000000  0.5758480000000  0.5558510000000 1.0
C      1  0.6839220000000  0.4096010000000  0.4463460000000 1.0
C      1  0.6882970000000  0.4954370000000  0.5912350000000 1.0
C      1  0.7040440000000  0.5815470000000  0.4486900000000 1.0
C      1  0.3078920000000  0.4050510000000  0.4575660000000 1.0
C      1  0.2993630000000  0.4897270000000  0.6029890000000 1.0
C      1  0.3183960000000  0.5746400000000  0.4532250000000 1.0
C      1  0.5470340000000  0.4906480000000  0.4011940000000 1.0
C      1  0.5551210000000  0.5793270000000  0.5438460000000 1.0
C      1  0.5105280000000  0.3997000000000  0.5506910000000 1.0
C      1  0.4475440000000  0.5392040000000  0.4131300000000 1.0
C      1  0.4650930000000  0.6475400000000  0.5526090000000 1.0
C      1  0.4172750000000  0.4566750000000  0.5516780000000 1.0
C      1  0.5362770000000  0.4969520000000  0.5923310000000 1.0
C      1  0.5714070000000  0.5724990000000  0.4471500000000 1.0
C      1  0.5251720000000  0.3934680000000  0.4405430000000 1.0
C      1  0.4353300000000  0.5463110000000  0.5902150000000 1.0
C      1  0.4803870000000  0.6363500000000  0.4504100000000 1.0
C      1  0.4331350000000  0.4501990000000  0.4551430000000 1.0
C      1  0.6546190000000  0.6519770000000  0.5929190000000 1.0
C      1  0.6220100000000  0.3379510000000  0.5861450000000 1.0
C      1  0.6568050000000  0.5102920000000  0.3153130000000 1.0
C      1  0.3517740000000  0.6477020000000  0.6191080000000 1.0
C      1  0.3510780000000  0.3310270000000  0.5875980000000 1.0
C      1  0.3613810000000  0.4855900000000  0.3268250000000 1.0
C      1  0.6626050000000  0.6561060000000  0.4013090000000 1.0
C      1  0.6364120000000  0.3361040000000  0.3977740000000 1.0
C      1  0.6510090000000  0.5098160000000  0.6781540000000 1.0
C      1  0.3624450000000  0.6460710000000  0.3931550000000 1.0
C      1  0.3652470000000  0.3348560000000  0.4278770000000 1.0
C      1  0.3522750000000  0.4885570000000  0.6826560000000 1.0
C      1  0.3852600000000  0.7280380000000  0.5596560000000 1.0
C      1  0.4301180000000  0.3439750000000  0.6540710000000 1.0
C      1  0.4392770000000  0.4186150000000  0.3053210000000 1.0
C      1  0.5818410000000  0.7094360000000  0.5452800000000 1.0
C      1  0.5575910000000  0.3806730000000  0.6532760000000 1.0
C      1  0.5796490000000  0.4509960000000  0.2793930000000 1.0
C      1  0.4007980000000  0.7171760000000  0.4597240000000 1.0
C      1  0.4385300000000  0.3407270000000  0.3544870000000 1.0
C      1  0.4317170000000  0.4224830000000  0.7011580000000 1.0
C      1  0.5879500000000  0.7121960000000  0.4493510000000 1.0
C      1  0.5649450000000  0.3772850000000  0.3344840000000 1.0
C      1  0.5729720000000  0.4510490000000  0.7110760000000 1.0
C      1  0.5607900000000  0.2772420000000  0.5376140000000 1.0
C      1  0.5600600000000  0.5641750000000  0.2914120000000 1.0
C      1  0.5547300000000  0.6621610000000  0.6474950000000 1.0
C      1  0.4505740000000  0.2822640000000  0.5604980000000 1.0
C      1  0.4545150000000  0.5290940000000  0.2811600000000 1.0
C      1  0.4478100000000  0.6374470000000  0.6793770000000 1.0
C      1  0.5758640000000  0.2702070000000  0.4408090000000 1.0
C      1  0.5552640000000  0.5647570000000  0.7047900000000 1.0
C      1  0.5606910000000  0.6612860000000  0.3491070000000 1.0
C      1  0.4626060000000  0.2783000000000  0.4475650000000 1.0
C      1  0.4491080000000  0.5331310000000  0.7215620000000 1.0
C      1  0.4525690000000  0.6331010000000  0.3251070000000 1.0
END
