TITL C-986978-6805-696 -3.54631055936847e-07 3375 -351.526692034259 0 0 60 (S4) n - 1
REM
REM in /home/bkarasulu/work/CARBON/AIRSS/Generating-Clusters/REBO/Higher-Symm/Only-C60
REM
REM
REM
REM
REM
REM ./C.cell (a2850807a9bf4ad07a5b6933b78d9264)
REM AIRSS Version 0.9.1 bugfix July 2018 build 013d7b7c2542+ Fri, 06 Jul 2018 19:26:36 +0100
REM compiler GCC version 9.2.1 20190827 (Red Hat 9.2.1-1)
REM options -cpp -mtune=generic -march=x86-64 -g -O0 -fpre-include=/usr/include/finclude/math-vector-fortran.h
REM seed 1063288019 -2039277071 1004315689 -977618716 1217144647 -1293872462 691271089 726688370 308757926 184598407 1216053060 -559464810 -1795857571 265467499 -14726283 985350576 99352207 -1101737316 1377696679 -1392652510 1468845774 -405899153 1414691141 1465494180 -365401279 944814718 445263158 -1817875694 -422607508 -560136137 219730541 -787634905 1716475628
REM
CELL 1.54180   15.00000   15.00000   15.00000   90.00000   90.00000   90.00000
LATT -1
SFAC C  
C      1  0.4533930000000  0.5030010000000  0.3848690000000 1.0
C      1  0.5030010000000  0.5466070000000  0.6151310000000 1.0
C      1  0.5466070000000  0.4969990000000  0.3848690000000 1.0
C      1  0.4969990000000  0.4533930000000  0.6151310000000 1.0
C      1  0.3975830000000  0.4899830000000  0.2645530000000 1.0
C      1  0.4899830000000  0.6024170000000  0.7354470000000 1.0
C      1  0.6024170000000  0.5100170000000  0.2645530000000 1.0
C      1  0.5100170000000  0.3975830000000  0.7354470000000 1.0
C      1  0.6755040000000  0.4878110000000  0.3199350000000 1.0
C      1  0.4878110000000  0.3244960000000  0.6800650000000 1.0
C      1  0.3244960000000  0.5121890000000  0.3199350000000 1.0
C      1  0.5121890000000  0.6755040000000  0.6800650000000 1.0
C      1  0.5981780000000  0.3145450000000  0.4954230000000 1.0
C      1  0.3145450000000  0.4018220000000  0.5045770000000 1.0
C      1  0.4018220000000  0.6854550000000  0.4954230000000 1.0
C      1  0.6854550000000  0.5981780000000  0.5045770000000 1.0
C      1  0.3193770000000  0.5729670000000  0.6869570000000 1.0
C      1  0.5729670000000  0.6806230000000  0.3130430000000 1.0
C      1  0.6806230000000  0.4270330000000  0.6869570000000 1.0
C      1  0.4270330000000  0.3193770000000  0.3130430000000 1.0
C      1  0.4320850000000  0.2918130000000  0.5641860000000 1.0
C      1  0.2918130000000  0.5679150000000  0.4358140000000 1.0
C      1  0.5679150000000  0.7081870000000  0.5641860000000 1.0
C      1  0.7081870000000  0.4320850000000  0.4358140000000 1.0
C      1  0.4097480000000  0.4196980000000  0.6294380000000 1.0
C      1  0.4196980000000  0.5902520000000  0.3705620000000 1.0
C      1  0.5902520000000  0.5803020000000  0.6294380000000 1.0
C      1  0.5803020000000  0.4097480000000  0.3705620000000 1.0
C      1  0.2905080000000  0.6085350000000  0.3451180000000 1.0
C      1  0.6085350000000  0.7094920000000  0.6548820000000 1.0
C      1  0.7094920000000  0.3914650000000  0.3451180000000 1.0
C      1  0.3914650000000  0.2905080000000  0.6548820000000 1.0
C      1  0.6901320000000  0.4607840000000  0.6001880000000 1.0
C      1  0.4607840000000  0.3098680000000  0.3998120000000 1.0
C      1  0.3098680000000  0.5392160000000  0.6001880000000 1.0
C      1  0.5392160000000  0.6901320000000  0.3998120000000 1.0
C      1  0.6630260000000  0.3993570000000  0.5201220000000 1.0
C      1  0.3993570000000  0.3369740000000  0.4798780000000 1.0
C      1  0.3369740000000  0.6006430000000  0.5201220000000 1.0
C      1  0.6006430000000  0.6630260000000  0.4798780000000 1.0
C      1  0.2962420000000  0.4617180000000  0.4181010000000 1.0
C      1  0.4617180000000  0.7037580000000  0.5818990000000 1.0
C      1  0.7037580000000  0.5382820000000  0.4181010000000 1.0
C      1  0.5382820000000  0.2962420000000  0.5818990000000 1.0
C      1  0.5634300000000  0.6068480000000  0.2578270000000 1.0
C      1  0.6068480000000  0.4365700000000  0.7421730000000 1.0
C      1  0.4365700000000  0.3931520000000  0.2578270000000 1.0
C      1  0.3931520000000  0.5634300000000  0.7421730000000 1.0
C      1  0.4296070000000  0.5984550000000  0.5878250000000 1.0
C      1  0.5984550000000  0.5703930000000  0.4121750000000 1.0
C      1  0.5703930000000  0.4015450000000  0.5878250000000 1.0
C      1  0.4015450000000  0.4296070000000  0.4121750000000 1.0
C      1  0.4489690000000  0.4797950000000  0.7659570000000 1.0
C      1  0.4797950000000  0.5510310000000  0.2340430000000 1.0
C      1  0.5510310000000  0.5202050000000  0.7659570000000 1.0
C      1  0.5202050000000  0.4489690000000  0.2340430000000 1.0
C      1  0.5530460000000  0.3296000000000  0.4134020000000 1.0
C      1  0.3296000000000  0.4469540000000  0.5865980000000 1.0
C      1  0.4469540000000  0.6704000000000  0.4134020000000 1.0
C      1  0.6704000000000  0.5530460000000  0.5865980000000 1.0
END
