TITL C-986975-4297-768 -4.03141664907616e-06 3375 -330.809854391062 0 0 60 (C3i) n - 1
REM
REM in /home/bkarasulu/work/CARBON/AIRSS/Generating-Clusters/REBO/Higher-Symm/Only-C60
REM
REM
REM
REM
REM
REM ./C.cell (a2850807a9bf4ad07a5b6933b78d9264)
REM AIRSS Version 0.9.1 bugfix July 2018 build 013d7b7c2542+ Fri, 06 Jul 2018 19:26:36 +0100
REM compiler GCC version 9.2.1 20190827 (Red Hat 9.2.1-1)
REM options -cpp -mtune=generic -march=x86-64 -g -O0 -fpre-include=/usr/include/finclude/math-vector-fortran.h
REM seed -1619445748 643128726 989300005 -1128465979 1389899066 -1777524270 2041142233 -1342132382 -1716039381 995386007 806447494 1324578100 -1731341450 -2085446986 -490694907 -1667182105 1014925060 -1487165220 -1445891760 -2129613397 1463242150 657471418 1001899499 2041042597 -1859791525 1039663530 499426561 -938433221 -1083075214 1858917852 -957314315 -459877996 1513632319
REM
CELL 1.54180   15.00000   15.00000   15.00000   90.00000   90.00000   90.00000
LATT -1
SFAC C  
C      1  0.2772800000000  0.3596330000000  0.4883960000000 1.0
C      1  0.3986900000000  0.6403520000000  0.3013060000000 1.0
C      1  0.6214190000000  0.3596320000000  0.3129270000000 1.0
C      1  0.7227200000000  0.6403670000000  0.5116040000000 1.0
C      1  0.6013100000000  0.3596480000000  0.6986940000000 1.0
C      1  0.3785810000000  0.6403680000000  0.6870730000000 1.0
C      1  0.6834370000000  0.4311000000000  0.5578550000000 1.0
C      1  0.5416150000000  0.5689150000000  0.6877830000000 1.0
C      1  0.3581820000000  0.4310970000000  0.6299360000000 1.0
C      1  0.3165630000000  0.5689000000000  0.4421450000000 1.0
C      1  0.4583850000000  0.4310850000000  0.3122170000000 1.0
C      1  0.6418180000000  0.5689030000000  0.3700640000000 1.0
C      1  0.3072060000000  0.4544350000000  0.5094220000000 1.0
C      1  0.3954440000000  0.5455530000000  0.3377430000000 1.0
C      1  0.5882410000000  0.4544330000000  0.3283270000000 1.0
C      1  0.6927940000000  0.5455650000000  0.4905780000000 1.0
C      1  0.6045560000000  0.4544470000000  0.6622570000000 1.0
C      1  0.4117590000000  0.5455670000000  0.6716730000000 1.0
C      1  0.3947020000000  0.4247500000000  0.7238070000000 1.0
C      1  0.2535290000000  0.5752530000000  0.5207060000000 1.0
C      1  0.3588320000000  0.4247320000000  0.2969090000000 1.0
C      1  0.6052980000000  0.5752500000000  0.2761930000000 1.0
C      1  0.7464710000000  0.4247470000000  0.4792940000000 1.0
C      1  0.6411680000000  0.5752680000000  0.7030910000000 1.0
C      1  0.3008010000000  0.4978150000000  0.3615210000000 1.0
C      1  0.5203270000000  0.5021660000000  0.2582490000000 1.0
C      1  0.7195260000000  0.4978250000000  0.3967280000000 1.0
C      1  0.6991990000000  0.5021850000000  0.6384790000000 1.0
C      1  0.4796730000000  0.4978340000000  0.7417510000000 1.0
C      1  0.2804740000000  0.5021750000000  0.6032720000000 1.0
C      1  0.6856070000000  0.3913480000000  0.3934900000000 1.0
C      1  0.6850440000000  0.6086600000000  0.6074770000000 1.0
C      1  0.4994440000000  0.3913570000000  0.7140000000000 1.0
C      1  0.3143930000000  0.6086520000000  0.6065100000000 1.0
C      1  0.3149560000000  0.3913400000000  0.3925230000000 1.0
C      1  0.5005560000000  0.6086430000000  0.2860000000000 1.0
C      1  0.4014140000000  0.7108150000000  0.3779490000000 1.0
C      1  0.5564050000000  0.2891740000000  0.3536120000000 1.0
C      1  0.6549790000000  0.7108240000000  0.4756380000000 1.0
C      1  0.5985860000000  0.2891850000000  0.6220510000000 1.0
C      1  0.4435950000000  0.7108260000000  0.6463880000000 1.0
C      1  0.3450210000000  0.2891760000000  0.5243620000000 1.0
C      1  0.4937490000000  0.6444620000000  0.3937190000000 1.0
C      1  0.5889160000000  0.3555330000000  0.4414570000000 1.0
C      1  0.5951580000000  0.6444710000000  0.5477210000000 1.0
C      1  0.5062510000000  0.3555380000000  0.6062810000000 1.0
C      1  0.4110840000000  0.6444670000000  0.5585430000000 1.0
C      1  0.4048420000000  0.3555290000000  0.4522790000000 1.0
C      1  0.4158910000000  0.3654720000000  0.5651710000000 1.0
C      1  0.4015060000000  0.6345250000000  0.4597350000000 1.0
C      1  0.4856230000000  0.3654660000000  0.3945800000000 1.0
C      1  0.5841090000000  0.6345280000000  0.4348290000000 1.0
C      1  0.5984940000000  0.3654750000000  0.5402650000000 1.0
C      1  0.5143770000000  0.6345340000000  0.6054200000000 1.0
C      1  0.5242540000000  0.5017040000000  0.6002590000000 1.0
C      1  0.4253000000000  0.4983030000000  0.5711340000000 1.0
C      1  0.4010460000000  0.5016960000000  0.4708750000000 1.0
C      1  0.4757460000000  0.4982960000000  0.3997410000000 1.0
C      1  0.5747000000000  0.5016970000000  0.4288660000000 1.0
C      1  0.5989540000000  0.4983040000000  0.5291250000000 1.0
END
