TITL C-986975-4297-1128 -0.00049090147991732 3375 -337.592506472392 0 0 60 (C1) n - 1
REM
REM in /home/bkarasulu/work/CARBON/AIRSS/Generating-Clusters/REBO/Higher-Symm/Only-C60
REM
REM
REM
REM
REM
REM ./C.cell (a2850807a9bf4ad07a5b6933b78d9264)
REM AIRSS Version 0.9.1 bugfix July 2018 build 013d7b7c2542+ Fri, 06 Jul 2018 19:26:36 +0100
REM compiler GCC version 9.2.1 20190827 (Red Hat 9.2.1-1)
REM options -cpp -mtune=generic -march=x86-64 -g -O0 -fpre-include=/usr/include/finclude/math-vector-fortran.h
REM seed 763321251 -100739422 104953584 -1408690631 -1754024864 -1764253067 -727901373 466664346 1831435539 -941428209 -1481086688 1863464789 -238834377 -197552329 891974243 1486421432 215267251 -665297167 961234848 39131292 1253300216 529418730 -1536634609 -1539851113 1381300786 -121431022 1513050173 -1828050341 -1856842370 580056477 -1360712500 1250042311 1172139983
REM
CELL 1.54180   15.00000   15.00000   15.00000   90.00000   90.00000   90.00000
LATT -1
SFAC C  
C      1  0.4635090000000  0.6938720000000  0.4514910000000 1.0
C      1  0.5498390000000  0.6657920000000  0.5938950000000 1.0
C      1  0.3543600000000  0.3724020000000  0.5749490000000 1.0
C      1  0.5011330000000  0.2942500000000  0.5167810000000 1.0
C      1  0.4463180000000  0.5402230000000  0.3839040000000 1.0
C      1  0.4088720000000  0.4794280000000  0.4481070000000 1.0
C      1  0.6538550000000  0.6622390000000  0.5610300000000 1.0
C      1  0.3910820000000  0.3903980000000  0.4021090000000 1.0
C      1  0.3696430000000  0.6820360000000  0.6382320000000 1.0
C      1  0.6673640000000  0.5108080000000  0.3674640000000 1.0
C      1  0.5509050000000  0.2719540000000  0.3690890000000 1.0
C      1  0.5380050000000  0.5051910000000  0.3386360000000 1.0
C      1  0.5327690000000  0.4355790000000  0.4681690000000 1.0
C      1  0.3472710000000  0.5675890000000  0.2519520000000 1.0
C      1  0.6259800000000  0.3466850000000  0.3502210000000 1.0
C      1  0.5323110000000  0.3842830000000  0.6573390000000 1.0
C      1  0.3341310000000  0.6304290000000  0.3064320000000 1.0
C      1  0.4474170000000  0.4105660000000  0.3147810000000 1.0
C      1  0.5262190000000  0.4464620000000  0.2412270000000 1.0
C      1  0.4069900000000  0.6452010000000  0.3837910000000 1.0
C      1  0.6496110000000  0.6155360000000  0.3727900000000 1.0
C      1  0.5648450000000  0.6800040000000  0.4174890000000 1.0
C      1  0.6689300000000  0.4818140000000  0.6646390000000 1.0
C      1  0.4450060000000  0.5480340000000  0.7477450000000 1.0
C      1  0.6782800000000  0.4012910000000  0.5275220000000 1.0
C      1  0.3088300000000  0.6009090000000  0.6502020000000 1.0
C      1  0.6925050000000  0.6433670000000  0.4634520000000 1.0
C      1  0.4707500000000  0.6418820000000  0.7477010000000 1.0
C      1  0.4049810000000  0.7049630000000  0.7226970000000 1.0
C      1  0.3307920000000  0.4656930000000  0.5856750000000 1.0
C      1  0.5223570000000  0.4948440000000  0.7404880000000 1.0
C      1  0.3494390000000  0.6160620000000  0.5246640000000 1.0
C      1  0.5793430000000  0.5237080000000  0.4386500000000 1.0
C      1  0.2834340000000  0.2370930000000  0.3803000000000 1.0
C      1  0.4051230000000  0.3294360000000  0.4938520000000 1.0
C      1  0.5320840000000  0.5357130000000  0.5750400000000 1.0
C      1  0.4340580000000  0.5067450000000  0.2555610000000 1.0
C      1  0.6041700000000  0.3239090000000  0.4796690000000 1.0
C      1  0.6196170000000  0.4385250000000  0.2973790000000 1.0
C      1  0.5505600000000  0.6580870000000  0.6977000000000 1.0
C      1  0.5765430000000  0.5274080000000  0.6583320000000 1.0
C      1  0.3826800000000  0.3353740000000  0.6624350000000 1.0
C      1  0.5530020000000  0.6062860000000  0.4963720000000 1.0
C      1  0.2628040000000  0.6495680000000  0.5665960000000 1.0
C      1  0.3386950000000  0.2939280000000  0.4117930000000 1.0
C      1  0.7096790000000  0.4830030000000  0.5785070000000 1.0
C      1  0.4439700000000  0.6727170000000  0.5531100000000 1.0
C      1  0.5738830000000  0.3952510000000  0.5629380000000 1.0
C      1  0.6982490000000  0.3596830000000  0.4261340000000 1.0
C      1  0.5127340000000  0.2876970000000  0.6118990000000 1.0
C      1  0.5223780000000  0.3753780000000  0.3878970000000 1.0
C      1  0.7355370000000  0.4514740000000  0.4051160000000 1.0
C      1  0.3627640000000  0.5155310000000  0.6826400000000 1.0
C      1  0.7084000000000  0.5684630000000  0.5398890000000 1.0
C      1  0.5608380000000  0.6475110000000  0.3102230000000 1.0
C      1  0.6037090000000  0.4194530000000  0.7286150000000 1.0
C      1  0.4597840000000  0.4627870000000  0.5493510000000 1.0
C      1  0.3464870000000  0.5227670000000  0.5139010000000 1.0
C      1  0.4381480000000  0.4345150000000  0.6570300000000 1.0
C      1  0.4670270000000  0.6082070000000  0.2944040000000 1.0
END
