TITL C-986978-6805-350 -0.00775155936539703 3375 -347.706155917036 0 0 60 (C1) n - 1
REM
REM in /home/bkarasulu/work/CARBON/AIRSS/Generating-Clusters/REBO/Higher-Symm/Only-C60
REM
REM
REM
REM
REM
REM ./C.cell (a2850807a9bf4ad07a5b6933b78d9264)
REM AIRSS Version 0.9.1 bugfix July 2018 build 013d7b7c2542+ Fri, 06 Jul 2018 19:26:36 +0100
REM compiler GCC version 9.2.1 20190827 (Red Hat 9.2.1-1)
REM options -cpp -mtune=generic -march=x86-64 -g -O0 -fpre-include=/usr/include/finclude/math-vector-fortran.h
REM seed -1866651846 340704308 -1902983277 1514649197 -365795621 462507813 -809185291 -855215984 -1090622814 -24726483 1087456972 -1390677429 1028027889 -772300884 1161489390 467507230 -1570596434 -1173066484 -1385652454 -1186770495 -11813429 2083503454 1738268474 -483206343 -1168457702 2065293041 -1342573032 512779645 -732686180 562173677 1008212011 -1872873188 1501504246
REM
CELL 1.54180   15.00000   15.00000   15.00000   90.00000   90.00000   90.00000
LATT -1
SFAC C  
C      1  0.4438810000000  0.5272490000000  0.2718410000000 1.0
C      1  0.4376400000000  0.5323430000000  0.7354040000000 1.0
C      1  0.6432260000000  0.6822910000000  0.6847530000000 1.0
C      1  0.6440640000000  0.6787770000000  0.3197880000000 1.0
C      1  0.4082050000000  0.3207850000000  0.6896920000000 1.0
C      1  0.4199580000000  0.3183750000000  0.2898620000000 1.0
C      1  0.7157050000000  0.3362720000000  0.3485720000000 1.0
C      1  0.7324820000000  0.3641650000000  0.6269160000000 1.0
C      1  0.5841300000000  0.5713650000000  0.5468250000000 1.0
C      1  0.5840130000000  0.5703650000000  0.4599620000000 1.0
C      1  0.5528060000000  0.6913000000000  0.3353040000000 1.0
C      1  0.5520500000000  0.6946620000000  0.6684380000000 1.0
C      1  0.4426010000000  0.4021180000000  0.3168820000000 1.0
C      1  0.4338140000000  0.4076110000000  0.6895910000000 1.0
C      1  0.3716620000000  0.6998200000000  0.6551050000000 1.0
C      1  0.3731510000000  0.6938530000000  0.3457810000000 1.0
C      1  0.6937610000000  0.3262320000000  0.5494600000000 1.0
C      1  0.6943420000000  0.3200250000000  0.4383490000000 1.0
C      1  0.4983190000000  0.7306140000000  0.4556220000000 1.0
C      1  0.4987830000000  0.7317200000000  0.5466530000000 1.0
C      1  0.4684860000000  0.4858390000000  0.6146080000000 1.0
C      1  0.4724030000000  0.4806910000000  0.3932830000000 1.0
C      1  0.3985130000000  0.2719810000000  0.5334700000000 1.0
C      1  0.4002930000000  0.2641040000000  0.4354360000000 1.0
C      1  0.4323710000000  0.5671410000000  0.4477510000000 1.0
C      1  0.4310550000000  0.5700920000000  0.5573810000000 1.0
C      1  0.3915810000000  0.2534250000000  0.6295060000000 1.0
C      1  0.3995180000000  0.2460320000000  0.3436060000000 1.0
C      1  0.5835710000000  0.4538460000000  0.6726530000000 1.0
C      1  0.5897260000000  0.4507990000000  0.3377490000000 1.0
C      1  0.6419920000000  0.5185040000000  0.3894810000000 1.0
C      1  0.6426760000000  0.5204760000000  0.6187720000000 1.0
C      1  0.5225190000000  0.4984110000000  0.2712090000000 1.0
C      1  0.5157640000000  0.5013600000000  0.7380480000000 1.0
C      1  0.2692970000000  0.4371250000000  0.5451490000000 1.0
C      1  0.2710580000000  0.4328300000000  0.4537700000000 1.0
C      1  0.7172140000000  0.5697110000000  0.4584210000000 1.0
C      1  0.7173270000000  0.5706990000000  0.5486520000000 1.0
C      1  0.3456220000000  0.4384130000000  0.5955330000000 1.0
C      1  0.3492140000000  0.4326750000000  0.4060050000000 1.0
C      1  0.6831480000000  0.4131430000000  0.6866430000000 1.0
C      1  0.6602310000000  0.3858720000000  0.2945090000000 1.0
C      1  0.6955890000000  0.6124250000000  0.3611280000000 1.0
C      1  0.6954200000000  0.6153880000000  0.6451370000000 1.0
C      1  0.3612520000000  0.5220040000000  0.6599970000000 1.0
C      1  0.3666900000000  0.5162370000000  0.3439140000000 1.0
C      1  0.2651860000000  0.6197950000000  0.5415960000000 1.0
C      1  0.2658430000000  0.6164800000000  0.4586850000000 1.0
C      1  0.4227940000000  0.3759860000000  0.5585690000000 1.0
C      1  0.4256270000000  0.3700670000000  0.4481410000000 1.0
C      1  0.5127140000000  0.6300750000000  0.5882170000000 1.0
C      1  0.5130110000000  0.6282300000000  0.4165160000000 1.0
C      1  0.5890180000000  0.3280270000000  0.5566150000000 1.0
C      1  0.5960190000000  0.3307310000000  0.4598280000000 1.0
C      1  0.5320550000000  0.3892200000000  0.4133110000000 1.0
C      1  0.5279420000000  0.3912510000000  0.5982390000000 1.0
C      1  0.3443350000000  0.6067300000000  0.3946330000000 1.0
C      1  0.3425640000000  0.6123000000000  0.6073180000000 1.0
C      1  0.4579970000000  0.7342190000000  0.3578240000000 1.0
C      1  0.4577690000000  0.7377270000000  0.6438940000000 1.0
END
