TITL C-986976-6631-84 1.48918510567461e-06 3375 -337.436518816389 0 0 60 (C1) n - 1
REM
REM in /home/bkarasulu/work/CARBON/AIRSS/Generating-Clusters/REBO/Higher-Symm/Only-C60
REM
REM
REM
REM
REM
REM ./C.cell (a2850807a9bf4ad07a5b6933b78d9264)
REM AIRSS Version 0.9.1 bugfix July 2018 build 013d7b7c2542+ Fri, 06 Jul 2018 19:26:36 +0100
REM compiler GCC version 9.2.1 20190827 (Red Hat 9.2.1-1)
REM options -cpp -mtune=generic -march=x86-64 -g -O0 -fpre-include=/usr/include/finclude/math-vector-fortran.h
REM seed -807711688 1163630397 -296459702 165891508 -1210602908 -599614728 -1742853032 1070501999 1367515024 -635671209 -576170614 2059861072 763534570 8693038 -217028121 276360464 -244937168 122593487 749303884 -1226526000 888333698 1007414295 179230909 1865618725 -2084429105 -1248645319 -1257844871 46576462 391884808 2006189501 -1023481479 -253709814 -461413315
REM
CELL 1.54180   15.00000   15.00000   15.00000   90.00000   90.00000   90.00000
LATT -1
SFAC C  
C      1  0.3313680000000  0.6831480000000  0.5448430000000 1.0
C      1  0.5341760000000  0.5046260000000  0.4263360000000 1.0
C      1  0.3585950000000  0.4025090000000  0.6592700000000 1.0
C      1  0.5383100000000  0.5681720000000  0.5431160000000 1.0
C      1  0.3291480000000  0.5543620000000  0.6050070000000 1.0
C      1  0.3979260000000  0.3195970000000  0.4599380000000 1.0
C      1  0.5028430000000  0.3450460000000  0.4310600000000 1.0
C      1  0.4223490000000  0.4675650000000  0.2826690000000 1.0
C      1  0.3822560000000  0.6109410000000  0.6866530000000 1.0
C      1  0.4381790000000  0.5715370000000  0.3630200000000 1.0
C      1  0.4715320000000  0.2288170000000  0.5782780000000 1.0
C      1  0.2875910000000  0.5398400000000  0.4134920000000 1.0
C      1  0.6576110000000  0.4598370000000  0.3121070000000 1.0
C      1  0.4555590000000  0.7006550000000  0.3913020000000 1.0
C      1  0.7133040000000  0.6419300000000  0.5385110000000 1.0
C      1  0.6334550000000  0.4180320000000  0.4146440000000 1.0
C      1  0.4271980000000  0.3725400000000  0.2972380000000 1.0
C      1  0.5138950000000  0.4799680000000  0.5966710000000 1.0
C      1  0.6778290000000  0.3601640000000  0.5239870000000 1.0
C      1  0.3615890000000  0.6881610000000  0.3928170000000 1.0
C      1  0.3757280000000  0.5124310000000  0.5092370000000 1.0
C      1  0.2819390000000  0.4561800000000  0.4882100000000 1.0
C      1  0.3032870000000  0.6606260000000  0.6365270000000 1.0
C      1  0.5622760000000  0.2578710000000  0.5649660000000 1.0
C      1  0.3590440000000  0.3391660000000  0.3556810000000 1.0
C      1  0.6421550000000  0.6281220000000  0.3774140000000 1.0
C      1  0.4471740000000  0.4429780000000  0.4552180000000 1.0
C      1  0.4997230000000  0.5125000000000  0.7251320000000 1.0
C      1  0.2878880000000  0.6361820000000  0.4175550000000 1.0
C      1  0.2996610000000  0.3697590000000  0.4401690000000 1.0
C      1  0.5578470000000  0.3572440000000  0.5937040000000 1.0
C      1  0.4340210000000  0.4429040000000  0.7268940000000 1.0
C      1  0.5321520000000  0.6407420000000  0.6243840000000 1.0
C      1  0.6092550000000  0.7134770000000  0.4417470000000 1.0
C      1  0.4731260000000  0.5898380000000  0.4629070000000 1.0
C      1  0.3859090000000  0.6239490000000  0.5068060000000 1.0
C      1  0.6928870000000  0.3722720000000  0.6189050000000 1.0
C      1  0.4733010000000  0.5990360000000  0.6962800000000 1.0
C      1  0.5677160000000  0.4323160000000  0.5079920000000 1.0
C      1  0.5983800000000  0.3070410000000  0.4793560000000 1.0
C      1  0.5370750000000  0.6586800000000  0.3447640000000 1.0
C      1  0.4671900000000  0.3667670000000  0.6558880000000 1.0
C      1  0.6731940000000  0.4585500000000  0.6565820000000 1.0
C      1  0.6371320000000  0.5597920000000  0.5133280000000 1.0
C      1  0.5053110000000  0.5358490000000  0.3000360000000 1.0
C      1  0.5176590000000  0.7241010000000  0.4676340000000 1.0
C      1  0.6368720000000  0.6198450000000  0.6158560000000 1.0
C      1  0.6939570000000  0.4661510000000  0.4878950000000 1.0
C      1  0.4402070000000  0.4040120000000  0.5540370000000 1.0
C      1  0.6032740000000  0.3687220000000  0.3183580000000 1.0
C      1  0.7293060000000  0.6085590000000  0.4323440000000 1.0
C      1  0.5976960000000  0.5375320000000  0.3467090000000 1.0
C      1  0.7680850000000  0.5436940000000  0.5184840000000 1.0
C      1  0.4987100000000  0.7189250000000  0.5607510000000 1.0
C      1  0.4099840000000  0.2943600000000  0.5598440000000 1.0
C      1  0.3029250000000  0.4510920000000  0.5999400000000 1.0
C      1  0.5831640000000  0.4735740000000  0.6833960000000 1.0
C      1  0.7135200000000  0.5361890000000  0.6182320000000 1.0
C      1  0.5135780000000  0.3426910000000  0.3282100000000 1.0
C      1  0.3529830000000  0.5188380000000  0.3476650000000 1.0
END
