TITL C-986974-580-354 -1.39012832822043e-06 3375 -353.086420852413 0 0 60 (C2) n - 1
REM
REM in /home/bkarasulu/work/CARBON/AIRSS/Generating-Clusters/REBO/Higher-Symm/Only-C60
REM
REM
REM
REM
REM
REM ./C.cell (a2850807a9bf4ad07a5b6933b78d9264)
REM AIRSS Version 0.9.1 bugfix July 2018 build 013d7b7c2542+ Fri, 06 Jul 2018 19:26:36 +0100
REM compiler GCC version 9.2.1 20190827 (Red Hat 9.2.1-1)
REM options -cpp -mtune=generic -march=x86-64 -g -O0 -fpre-include=/usr/include/finclude/math-vector-fortran.h
REM seed -267756851 789191121 1875185127 545224031 2015840459 -936970806 1685738698 -897183660 527660228 1809877446 1321365973 1993965136 -955351217 -1295912610 1837684270 269721041 -1954657111 1736923504 -1853536275 81081867 -366586884 -2132121311 2095828436 208059739 1107018534 -1838905983 2033059381 -1938437866 882644682 143542342 -1703186693 997675682 1587097930
REM
CELL 1.54180   15.00000   15.00000   15.00000   90.00000   90.00000   90.00000
LATT -1
SFAC C  
C      1  0.4964100000000  0.4246180000000  0.4861820000000 1.0
C      1  0.4964100000000  0.5753820000000  0.5138180000000 1.0
C      1  0.5227750000000  0.3579110000000  0.6730610000000 1.0
C      1  0.5227750000000  0.6420890000000  0.3269390000000 1.0
C      1  0.5267310000000  0.5470050000000  0.3619540000000 1.0
C      1  0.5267310000000  0.4529950000000  0.6380460000000 1.0
C      1  0.3589090000000  0.5059690000000  0.3938310000000 1.0
C      1  0.3589090000000  0.4940310000000  0.6061690000000 1.0
C      1  0.5545760000000  0.2912310000000  0.4299820000000 1.0
C      1  0.5545760000000  0.7087690000000  0.5700180000000 1.0
C      1  0.3604890000000  0.4136500000000  0.3314880000000 1.0
C      1  0.3604890000000  0.5863500000000  0.6685120000000 1.0
C      1  0.6414080000000  0.5553050000000  0.5720210000000 1.0
C      1  0.6414080000000  0.4446950000000  0.4279790000000 1.0
C      1  0.2890110000000  0.4736020000000  0.4621300000000 1.0
C      1  0.2890110000000  0.5263980000000  0.5378700000000 1.0
C      1  0.4322440000000  0.7025900000000  0.4481910000000 1.0
C      1  0.4322440000000  0.2974100000000  0.5518090000000 1.0
C      1  0.6021070000000  0.6834820000000  0.6451200000000 1.0
C      1  0.6021070000000  0.3165180000000  0.3548800000000 1.0
C      1  0.4439730000000  0.3034930000000  0.4476460000000 1.0
C      1  0.4439730000000  0.6965070000000  0.5523540000000 1.0
C      1  0.4057690000000  0.5257630000000  0.7413490000000 1.0
C      1  0.4057690000000  0.4742370000000  0.2586510000000 1.0
C      1  0.5151670000000  0.2974370000000  0.5981900000000 1.0
C      1  0.5151670000000  0.7025630000000  0.4018100000000 1.0
C      1  0.4796000000000  0.6088050000000  0.6150400000000 1.0
C      1  0.4796000000000  0.3911950000000  0.3849600000000 1.0
C      1  0.5740440000000  0.6424200000000  0.2458070000000 1.0
C      1  0.5740440000000  0.3575800000000  0.7541930000000 1.0
C      1  0.4513090000000  0.4847370000000  0.5648680000000 1.0
C      1  0.4513090000000  0.5152630000000  0.4351320000000 1.0
C      1  0.3424490000000  0.4049760000000  0.6558570000000 1.0
C      1  0.3424490000000  0.5950240000000  0.3441430000000 1.0
C      1  0.3546920000000  0.3426430000000  0.3980480000000 1.0
C      1  0.3546920000000  0.6573570000000  0.6019520000000 1.0
C      1  0.6192080000000  0.5395860000000  0.4096410000000 1.0
C      1  0.6192080000000  0.4604140000000  0.5903590000000 1.0
C      1  0.6824800000000  0.6567830000000  0.4145360000000 1.0
C      1  0.6824800000000  0.3432170000000  0.5854640000000 1.0
C      1  0.6466360000000  0.4010010000000  0.3432180000000 1.0
C      1  0.6466360000000  0.5989990000000  0.6567820000000 1.0
C      1  0.6943260000000  0.4243840000000  0.6574080000000 1.0
C      1  0.6943260000000  0.5756160000000  0.3425920000000 1.0
C      1  0.2872650000000  0.3773520000000  0.4593300000000 1.0
C      1  0.2872650000000  0.6226480000000  0.5406700000000 1.0
C      1  0.3592030000000  0.6710740000000  0.3970900000000 1.0
C      1  0.3592030000000  0.3289260000000  0.6029100000000 1.0
C      1  0.6683600000000  0.5211700000000  0.7142440000000 1.0
C      1  0.6683600000000  0.4788300000000  0.2857560000000 1.0
C      1  0.5955020000000  0.5923020000000  0.4922750000000 1.0
C      1  0.5955020000000  0.4076980000000  0.5077250000000 1.0
C      1  0.5956380000000  0.6972250000000  0.4683100000000 1.0
C      1  0.5956380000000  0.3027750000000  0.5316900000000 1.0
C      1  0.3680040000000  0.4368230000000  0.7445910000000 1.0
C      1  0.3680040000000  0.5631770000000  0.2554090000000 1.0
C      1  0.6464090000000  0.4196740000000  0.7557550000000 1.0
C      1  0.6464090000000  0.5803260000000  0.2442450000000 1.0
C      1  0.4853050000000  0.4587070000000  0.3196140000000 1.0
C      1  0.4853050000000  0.5412930000000  0.6803860000000 1.0
END
