TITL C-986979-5873-54 0.00294121897399748 3375 -342.918333248511 0 0 60 (C1) n - 1
REM
REM in /home/bkarasulu/work/CARBON/AIRSS/Generating-Clusters/REBO/Higher-Symm/Only-C60
REM
REM
REM
REM
REM
REM ./C.cell (a2850807a9bf4ad07a5b6933b78d9264)
REM AIRSS Version 0.9.1 bugfix July 2018 build 013d7b7c2542+ Fri, 06 Jul 2018 19:26:36 +0100
REM compiler GCC version 9.2.1 20190827 (Red Hat 9.2.1-1)
REM options -cpp -mtune=generic -march=x86-64 -g -O0 -fpre-include=/usr/include/finclude/math-vector-fortran.h
REM seed 717824323 435539064 -150641443 2055366044 1083974772 -1118882389 -1811778205 -1708999212 892720611 -1331574824 -1912403327 1737247832 1385577785 757693575 -728427914 160239654 -354432510 -568082988 138222426 -1385342241 1118007920 -1196991805 297255088 211219361 1754888842 1237617900 1412891077 -1456398163 -1677140567 -2145518886 1781452260 709079897 1941608565
REM
CELL 1.54180   15.00000   15.00000   15.00000   90.00000   90.00000   90.00000
LATT -1
SFAC C  
C      1  0.2904610000000  0.5654970000000  0.5678280000000 1.0
C      1  0.4291180000000  0.3513260000000  0.5031900000000 1.0
C      1  0.5060050000000  0.4142950000000  0.2866220000000 1.0
C      1  0.4604740000000  0.5238400000000  0.5511420000000 1.0
C      1  0.4388190000000  0.6149970000000  0.6154540000000 1.0
C      1  0.2929730000000  0.4707290000000  0.5145030000000 1.0
C      1  0.7287780000000  0.3975360000000  0.6398230000000 1.0
C      1  0.5957570000000  0.5533060000000  0.6707450000000 1.0
C      1  0.7060640000000  0.3947510000000  0.3608220000000 1.0
C      1  0.6207140000000  0.6948170000000  0.4450630000000 1.0
C      1  0.5449280000000  0.4860740000000  0.5004810000000 1.0
C      1  0.5468770000000  0.6438890000000  0.4259420000000 1.0
C      1  0.3976620000000  0.7014630000000  0.5549280000000 1.0
C      1  0.7062220000000  0.4899270000000  0.3606080000000 1.0
C      1  0.7250270000000  0.5059710000000  0.6139200000000 1.0
C      1  0.6431180000000  0.3567080000000  0.6083210000000 1.0
C      1  0.3793010000000  0.2935400000000  0.5852540000000 1.0
C      1  0.2791220000000  0.6752590000000  0.4298800000000 1.0
C      1  0.2961700000000  0.6022500000000  0.3564330000000 1.0
C      1  0.4563930000000  0.5070240000000  0.3685510000000 1.0
C      1  0.4511110000000  0.2422320000000  0.5140260000000 1.0
C      1  0.6253960000000  0.6301010000000  0.6171820000000 1.0
C      1  0.3016980000000  0.5032430000000  0.4086650000000 1.0
C      1  0.3412600000000  0.5129720000000  0.3017900000000 1.0
C      1  0.3861980000000  0.5242530000000  0.4829840000000 1.0
C      1  0.4594130000000  0.6709580000000  0.4138130000000 1.0
C      1  0.6262540000000  0.4871530000000  0.5604520000000 1.0
C      1  0.3428040000000  0.5667930000000  0.6452530000000 1.0
C      1  0.4119760000000  0.7409360000000  0.4566870000000 1.0
C      1  0.3848980000000  0.3131140000000  0.3441170000000 1.0
C      1  0.3931020000000  0.3922650000000  0.6358620000000 1.0
C      1  0.7007790000000  0.5974110000000  0.5687560000000 1.0
C      1  0.3999040000000  0.5919420000000  0.3957110000000 1.0
C      1  0.5111040000000  0.2331310000000  0.4360560000000 1.0
C      1  0.7231420000000  0.4686200000000  0.7210330000000 1.0
C      1  0.6409030000000  0.3285710000000  0.3732440000000 1.0
C      1  0.3045920000000  0.6464080000000  0.5189240000000 1.0
C      1  0.4699110000000  0.2700300000000  0.3524450000000 1.0
C      1  0.5471630000000  0.6829050000000  0.6497550000000 1.0
C      1  0.6062590000000  0.4436090000000  0.6633530000000 1.0
C      1  0.7566340000000  0.5482060000000  0.4152450000000 1.0
C      1  0.3598160000000  0.3671280000000  0.4332150000000 1.0
C      1  0.6334930000000  0.4758480000000  0.7698460000000 1.0
C      1  0.6013490000000  0.3269570000000  0.5347040000000 1.0
C      1  0.7405430000000  0.6052970000000  0.4846020000000 1.0
C      1  0.5536660000000  0.5431270000000  0.4130500000000 1.0
C      1  0.5250800000000  0.3845550000000  0.4737440000000 1.0
C      1  0.4322630000000  0.4873560000000  0.2401730000000 1.0
C      1  0.5352710000000  0.3547740000000  0.3645580000000 1.0
C      1  0.6251500000000  0.5270230000000  0.3342230000000 1.0
C      1  0.4362700000000  0.4723840000000  0.6433550000000 1.0
C      1  0.4901810000000  0.7371840000000  0.6033940000000 1.0
C      1  0.5324480000000  0.5204250000000  0.2840500000000 1.0
C      1  0.3147900000000  0.3851770000000  0.5627260000000 1.0
C      1  0.5698380000000  0.5623100000000  0.7738910000000 1.0
C      1  0.3266230000000  0.7582150000000  0.4145150000000 1.0
C      1  0.4150340000000  0.5365540000000  0.7187750000000 1.0
C      1  0.3902260000000  0.4251630000000  0.3489250000000 1.0
C      1  0.4904880000000  0.6179440000000  0.7177710000000 1.0
C      1  0.5989860000000  0.2745290000000  0.4496180000000 1.0
END
