TITL C-986978-6805-786 2.36986400979697e-06 3375 -353.830579802754 0 0 60 (C2) n - 1
REM
REM in /home/bkarasulu/work/CARBON/AIRSS/Generating-Clusters/REBO/Higher-Symm/Only-C60
REM
REM
REM
REM
REM
REM ./C.cell (a2850807a9bf4ad07a5b6933b78d9264)
REM AIRSS Version 0.9.1 bugfix July 2018 build 013d7b7c2542+ Fri, 06 Jul 2018 19:26:36 +0100
REM compiler GCC version 9.2.1 20190827 (Red Hat 9.2.1-1)
REM options -cpp -mtune=generic -march=x86-64 -g -O0 -fpre-include=/usr/include/finclude/math-vector-fortran.h
REM seed 974090256 -57066927 46611761 -1135313613 -969130995 200557878 493161692 -784914519 1265783508 -661066376 1681151473 -2043131930 -1583285718 2105376355 103690182 -578951329 -907632244 -977159718 768759225 -723681267 1904188977 -2083104735 226391628 -1748932776 -1482378519 1611863002 191604925 250299135 562795903 1877214563 -715825144 1397546550 705048406
REM
CELL 1.54180   15.00000   15.00000   15.00000   90.00000   90.00000   90.00000
LATT -1
SFAC C  
C      1  0.3545540000000  0.4066180000000  0.6622860000000 1.0
C      1  0.3579650000000  0.4441140000000  0.3724470000000 1.0
C      1  0.3588120000000  0.6672090000000  0.4978920000000 1.0
C      1  0.6454440000000  0.5933830000000  0.6622870000000 1.0
C      1  0.6420370000000  0.5558860000000  0.3724480000000 1.0
C      1  0.6411880000000  0.3327910000000  0.4978950000000 1.0
C      1  0.3939960000000  0.3505130000000  0.3324820000000 1.0
C      1  0.4036270000000  0.7322460000000  0.4527290000000 1.0
C      1  0.4101210000000  0.4112630000000  0.7387580000000 1.0
C      1  0.6060070000000  0.6494860000000  0.3324820000000 1.0
C      1  0.5963740000000  0.2677530000000  0.4527320000000 1.0
C      1  0.5898760000000  0.5887380000000  0.7387580000000 1.0
C      1  0.6752330000000  0.5091330000000  0.6333920000000 1.0
C      1  0.6919890000000  0.3749470000000  0.3824240000000 1.0
C      1  0.6831400000000  0.6367890000000  0.4393710000000 1.0
C      1  0.3247660000000  0.4908680000000  0.6333890000000 1.0
C      1  0.3080120000000  0.6250520000000  0.3824210000000 1.0
C      1  0.3168610000000  0.3632110000000  0.4393690000000 1.0
C      1  0.3512950000000  0.6385610000000  0.2973660000000 1.0
C      1  0.3371720000000  0.5729750000000  0.6816370000000 1.0
C      1  0.3433870000000  0.2923470000000  0.4991170000000 1.0
C      1  0.6487080000000  0.3614380000000  0.2973690000000 1.0
C      1  0.6628260000000  0.4270260000000  0.6816400000000 1.0
C      1  0.6566130000000  0.7076530000000  0.4991170000000 1.0
C      1  0.6424070000000  0.4804770000000  0.5428840000000 1.0
C      1  0.6318510000000  0.4301340000000  0.4505500000000 1.0
C      1  0.6157030000000  0.5583180000000  0.4826620000000 1.0
C      1  0.3575930000000  0.5195230000000  0.5428820000000 1.0
C      1  0.3681500000000  0.5698650000000  0.4505480000000 1.0
C      1  0.3842970000000  0.4416820000000  0.4826600000000 1.0
C      1  0.5328190000000  0.5979540000000  0.5377780000000 1.0
C      1  0.5521390000000  0.4123350000000  0.5557440000000 1.0
C      1  0.5391920000000  0.4790980000000  0.4075210000000 1.0
C      1  0.4671810000000  0.4020460000000  0.5377780000000 1.0
C      1  0.4478600000000  0.5876650000000  0.5557430000000 1.0
C      1  0.4608090000000  0.5209010000000  0.4075200000000 1.0
C      1  0.5174240000000  0.6824930000000  0.3422430000000 1.0
C      1  0.5034910000000  0.5485560000000  0.7428130000000 1.0
C      1  0.5050170000000  0.2715030000000  0.4255440000000 1.0
C      1  0.4825780000000  0.3175060000000  0.3422440000000 1.0
C      1  0.4965050000000  0.4514460000000  0.7428130000000 1.0
C      1  0.4949840000000  0.7284970000000  0.4255420000000 1.0
C      1  0.4782190000000  0.2827100000000  0.5962090000000 1.0
C      1  0.4737470000000  0.5368510000000  0.2607830000000 1.0
C      1  0.4566660000000  0.6864190000000  0.6515450000000 1.0
C      1  0.5217800000000  0.7172910000000  0.5962080000000 1.0
C      1  0.5262560000000  0.4631480000000  0.2607840000000 1.0
C      1  0.5433320000000  0.3135820000000  0.6515470000000 1.0
C      1  0.3834360000000  0.5323890000000  0.3236610000000 1.0
C      1  0.3646110000000  0.6491170000000  0.6058850000000 1.0
C      1  0.3854450000000  0.3413630000000  0.5890560000000 1.0
C      1  0.6165660000000  0.4676100000000  0.3236630000000 1.0
C      1  0.6353880000000  0.3508830000000  0.6058870000000 1.0
C      1  0.6145540000000  0.6586380000000  0.5890560000000 1.0
C      1  0.4539260000000  0.6375530000000  0.2843850000000 1.0
C      1  0.4316460000000  0.6044910000000  0.7113870000000 1.0
C      1  0.4429660000000  0.2623320000000  0.4994460000000 1.0
C      1  0.5460770000000  0.3624450000000  0.2843860000000 1.0
C      1  0.5683510000000  0.3955110000000  0.7113890000000 1.0
C      1  0.5570340000000  0.7376680000000  0.4994450000000 1.0
END
