TITL C-986974-580-728 0.000178178956489542 3375 -351.878499757159 0 0 60 (C1) n - 1
REM
REM in /home/bkarasulu/work/CARBON/AIRSS/Generating-Clusters/REBO/Higher-Symm/Only-C60
REM
REM
REM
REM
REM
REM ./C.cell (a2850807a9bf4ad07a5b6933b78d9264)
REM AIRSS Version 0.9.1 bugfix July 2018 build 013d7b7c2542+ Fri, 06 Jul 2018 19:26:36 +0100
REM compiler GCC version 9.2.1 20190827 (Red Hat 9.2.1-1)
REM options -cpp -mtune=generic -march=x86-64 -g -O0 -fpre-include=/usr/include/finclude/math-vector-fortran.h
REM seed -1695424853 -667724727 -885231257 120861124 1863579515 867912795 198638061 714020167 1595023494 -462100827 552860657 513874440 515567740 -512063211 387805768 591389608 484956704 -792219446 1837121639 -2048133626 -2008421036 -2020428941 981679560 854888682 1420867814 -1235214391 275275360 2097945707 -1664737023 -727211153 1633736302 -2116411295 1459056177
REM
CELL 1.54180   15.00000   15.00000   15.00000   90.00000   90.00000   90.00000
LATT -1
SFAC C  
C      1  0.5390350000000  0.3443640000000  0.3703180000000 1.0
C      1  0.5483700000000  0.6621890000000  0.6447140000000 1.0
C      1  0.5415370000000  0.3593630000000  0.6315000000000 1.0
C      1  0.5392290000000  0.6536590000000  0.3740570000000 1.0
C      1  0.6671360000000  0.6038710000000  0.3924340000000 1.0
C      1  0.6613550000000  0.4036450000000  0.5941240000000 1.0
C      1  0.6667800000000  0.6091000000000  0.6117380000000 1.0
C      1  0.6610500000000  0.3963110000000  0.3830030000000 1.0
C      1  0.4694510000000  0.4381770000000  0.4344510000000 1.0
C      1  0.4771020000000  0.5542590000000  0.5598270000000 1.0
C      1  0.4718080000000  0.4450720000000  0.5373040000000 1.0
C      1  0.4780000000000  0.5496210000000  0.4551990000000 1.0
C      1  0.3826940000000  0.5681190000000  0.6975220000000 1.0
C      1  0.3802760000000  0.4299110000000  0.2987210000000 1.0
C      1  0.3892520000000  0.5404600000000  0.2897490000000 1.0
C      1  0.3871130000000  0.4583590000000  0.7092940000000 1.0
C      1  0.5668260000000  0.4000250000000  0.2741910000000 1.0
C      1  0.5686030000000  0.5913190000000  0.7308850000000 1.0
C      1  0.5663200000000  0.3978990000000  0.7357700000000 1.0
C      1  0.5685670000000  0.6008490000000  0.2776800000000 1.0
C      1  0.5617810000000  0.7374700000000  0.5730550000000 1.0
C      1  0.5580000000000  0.2778450000000  0.4563240000000 1.0
C      1  0.5593140000000  0.7219140000000  0.4603840000000 1.0
C      1  0.5603130000000  0.2736240000000  0.5697210000000 1.0
C      1  0.4213940000000  0.6325450000000  0.5876300000000 1.0
C      1  0.4110730000000  0.3626350000000  0.4092560000000 1.0
C      1  0.4186680000000  0.6247930000000  0.4231310000000 1.0
C      1  0.4208200000000  0.3686840000000  0.5757670000000 1.0
C      1  0.3219550000000  0.3992080000000  0.3852500000000 1.0
C      1  0.3299880000000  0.5985320000000  0.6093370000000 1.0
C      1  0.3472810000000  0.4061310000000  0.6224060000000 1.0
C      1  0.3458150000000  0.5884290000000  0.3758880000000 1.0
C      1  0.6633620000000  0.6768940000000  0.4508430000000 1.0
C      1  0.6516170000000  0.3250220000000  0.5413090000000 1.0
C      1  0.6560530000000  0.6843880000000  0.5516810000000 1.0
C      1  0.6604130000000  0.3240560000000  0.4409270000000 1.0
C      1  0.2842890000000  0.5473050000000  0.5435910000000 1.0
C      1  0.2786910000000  0.4501800000000  0.4531520000000 1.0
C      1  0.2810180000000  0.5528700000000  0.4362060000000 1.0
C      1  0.2840290000000  0.4442510000000  0.5613250000000 1.0
C      1  0.4590950000000  0.3701670000000  0.7030000000000 1.0
C      1  0.4592590000000  0.6309890000000  0.2970150000000 1.0
C      1  0.4634050000000  0.3532550000000  0.2877170000000 1.0
C      1  0.4662150000000  0.6429530000000  0.7145210000000 1.0
C      1  0.4714730000000  0.5443070000000  0.7659030000000 1.0
C      1  0.4735440000000  0.4523710000000  0.2362710000000 1.0
C      1  0.4827480000000  0.5517380000000  0.2229420000000 1.0
C      1  0.4754150000000  0.4453190000000  0.7831560000000 1.0
C      1  0.5739350000000  0.5506130000000  0.4053940000000 1.0
C      1  0.5671890000000  0.4596720000000  0.5848420000000 1.0
C      1  0.5712840000000  0.5602020000000  0.6014610000000 1.0
C      1  0.5678810000000  0.4516320000000  0.3965070000000 1.0
C      1  0.6490740000000  0.4457390000000  0.6886650000000 1.0
C      1  0.6556160000000  0.5499620000000  0.3006020000000 1.0
C      1  0.6539640000000  0.4560060000000  0.2953130000000 1.0
C      1  0.6568420000000  0.5405010000000  0.7003250000000 1.0
C      1  0.4468200000000  0.7091770000000  0.4516160000000 1.0
C      1  0.4565460000000  0.2870850000000  0.5422750000000 1.0
C      1  0.4576120000000  0.7125220000000  0.5501630000000 1.0
C      1  0.4457060000000  0.2824430000000  0.4426470000000 1.0
END
