TITL C-986974-580-60 5.91405656772616e-06 3375 -332.768593464316 0 0 60 (Ci) n - 1
REM
REM in /home/bkarasulu/work/CARBON/AIRSS/Generating-Clusters/REBO/Higher-Symm/Only-C60
REM
REM
REM
REM
REM
REM ./C.cell (a2850807a9bf4ad07a5b6933b78d9264)
REM AIRSS Version 0.9.1 bugfix July 2018 build 013d7b7c2542+ Fri, 06 Jul 2018 19:26:36 +0100
REM compiler GCC version 9.2.1 20190827 (Red Hat 9.2.1-1)
REM options -cpp -mtune=generic -march=x86-64 -g -O0 -fpre-include=/usr/include/finclude/math-vector-fortran.h
REM seed 235330408 334418794 -2146712963 -983469612 1564076009 1228699208 2124705752 2133424357 -1513560822 -53840997 1585894996 993271989 1167234372 1965790344 1308540153 68807364 -773191426 -1972308244 -722739392 1523220286 -672303709 -1750745058 -1092154612 373908898 -394569131 987004593 -314706879 -751746249 2014261842 -1787736460 -1820055620 1568620125 24784852
REM
CELL 1.54180   15.00000   15.00000   15.00000   90.00000   90.00000   90.00000
LATT -1
SFAC C  
C      1  0.3670470000000  0.3740840000000  0.3818970000000 1.0
C      1  0.6329530000000  0.6259160000000  0.6181030000000 1.0
C      1  0.2980910000000  0.6056450000000  0.3944110000000 1.0
C      1  0.7019100000000  0.3943550000000  0.6055890000000 1.0
C      1  0.5601500000000  0.4802040000000  0.6525830000000 1.0
C      1  0.4398500000000  0.5197960000000  0.3474170000000 1.0
C      1  0.3729710000000  0.3637970000000  0.4948990000000 1.0
C      1  0.6270290000000  0.6362030000000  0.5051010000000 1.0
C      1  0.4878980000000  0.3951620000000  0.5607180000000 1.0
C      1  0.5121020000000  0.6048380000000  0.4392820000000 1.0
C      1  0.2563120000000  0.5252810000000  0.4433280000000 1.0
C      1  0.7436880000000  0.4747190000000  0.5566720000000 1.0
C      1  0.4630390000000  0.3181910000000  0.4095190000000 1.0
C      1  0.5369610000000  0.6818090000000  0.5904810000000 1.0
C      1  0.2760780000000  0.5277750000000  0.5557450000000 1.0
C      1  0.7239220000000  0.4722250000000  0.4442550000000 1.0
C      1  0.6135410000000  0.3458010000000  0.6590440000000 1.0
C      1  0.3864590000000  0.6542000000000  0.3409560000000 1.0
C      1  0.5927180000000  0.3802890000000  0.3189610000000 1.0
C      1  0.4072820000000  0.6197110000000  0.6810390000000 1.0
C      1  0.5349370000000  0.5789700000000  0.5409350000000 1.0
C      1  0.4650630000000  0.4210300000000  0.4590650000000 1.0
C      1  0.5510070000000  0.7248180000000  0.3742440000000 1.0
C      1  0.4489930000000  0.2751820000000  0.6257560000000 1.0
C      1  0.5912600000000  0.7838520000000  0.3235700000000 1.0
C      1  0.4087410000000  0.2161480000000  0.6764290000000 1.0
C      1  0.7722880000000  0.5747670000000  0.5096090000000 1.0
C      1  0.2277120000000  0.4252330000000  0.4903910000000 1.0
C      1  0.6595770000000  0.2989630000000  0.5663770000000 1.0
C      1  0.3404230000000  0.7010370000000  0.4336230000000 1.0
C      1  0.6118470000000  0.5218050000000  0.3934990000000 1.0
C      1  0.3881530000000  0.4781950000000  0.6065010000000 1.0
C      1  0.5496790000000  0.3009830000000  0.5449510000000 1.0
C      1  0.4503210000000  0.6990170000000  0.4550490000000 1.0
C      1  0.4379760000000  0.6896630000000  0.6228670000000 1.0
C      1  0.5620240000000  0.3103370000000  0.3771330000000 1.0
C      1  0.3918790000000  0.5505320000000  0.4247130000000 1.0
C      1  0.6081210000000  0.4494680000000  0.5752870000000 1.0
C      1  0.4873500000000  0.6440270000000  0.3394420000000 1.0
C      1  0.5126500000000  0.3559730000000  0.6605590000000 1.0
C      1  0.5575300000000  0.7203400000000  0.4845410000000 1.0
C      1  0.4424700000000  0.2796600000000  0.5154590000000 1.0
C      1  0.5411310000000  0.5477010000000  0.3218380000000 1.0
C      1  0.4588690000000  0.4522990000000  0.6781620000000 1.0
C      1  0.3792290000000  0.6966440000000  0.5401740000000 1.0
C      1  0.6207710000000  0.3033560000000  0.4598260000000 1.0
C      1  0.4406510000000  0.5333860000000  0.5261080000000 1.0
C      1  0.5593490000000  0.4666140000000  0.4738920000000 1.0
C      1  0.7234830000000  0.5747390000000  0.6075370000000 1.0
C      1  0.2765170000000  0.4252610000000  0.3924630000000 1.0
C      1  0.3133790000000  0.4185430000000  0.5579710000000 1.0
C      1  0.6866200000000  0.5814570000000  0.4420290000000 1.0
C      1  0.5247470000000  0.4402050000000  0.2864640000000 1.0
C      1  0.4752530000000  0.5597950000000  0.7135360000000 1.0
C      1  0.6651800000000  0.4334050000000  0.3550460000000 1.0
C      1  0.3348200000000  0.5665950000000  0.6449540000000 1.0
C      1  0.5725240000000  0.5750150000000  0.6835210000000 1.0
C      1  0.4274760000000  0.4249850000000  0.3164790000000 1.0
C      1  0.6502240000000  0.4028900000000  0.4833820000000 1.0
C      1  0.3497760000000  0.5971100000000  0.5166180000000 1.0
END
