TITL C-986978-6805-882 0.0347412376142617 3375 -341.775764208807 0 0 60 (C3) n - 1
REM
REM in /home/bkarasulu/work/CARBON/AIRSS/Generating-Clusters/REBO/Higher-Symm/Only-C60
REM
REM
REM
REM
REM
REM ./C.cell (a2850807a9bf4ad07a5b6933b78d9264)
REM AIRSS Version 0.9.1 bugfix July 2018 build 013d7b7c2542+ Fri, 06 Jul 2018 19:26:36 +0100
REM compiler GCC version 9.2.1 20190827 (Red Hat 9.2.1-1)
REM options -cpp -mtune=generic -march=x86-64 -g -O0 -fpre-include=/usr/include/finclude/math-vector-fortran.h
REM seed 1038978637 56983733 2096999745 293030384 619951851 868628528 1109226217 -75406758 505213194 -90387318 -1300758702 1392322821 1893143455 218702550 -1967848553 -2021478699 1275124615 -2088409619 947084434 1346031877 -1295526326 445434867 117653604 -751831810 738776668 497059034 2130858298 1352888745 623243527 1199827229 -524880740 -454748915 829378149
REM
CELL 1.54180   15.00000   15.00000   15.00000   90.00000   90.00000   90.00000
LATT -1
SFAC C  
C      1  0.5404210000000  0.6581940000000  0.6629230000000 1.0
C      1  0.3385120000000  0.6582160000000  0.4535850000000 1.0
C      1  0.6209160000000  0.6581880000000  0.3834780000000 1.0
C      1  0.5453730000000  0.4596440000000  0.5907000000000 1.0
C      1  0.3986900000000  0.4595230000000  0.4940160000000 1.0
C      1  0.5559390000000  0.4595080000000  0.4153370000000 1.0
C      1  0.4604200000000  0.6649360000000  0.3247070000000 1.0
C      1  0.6713610000000  0.6647960000000  0.5533570000000 1.0
C      1  0.3681690000000  0.6647930000000  0.6217220000000 1.0
C      1  0.4595930000000  0.4556510000000  0.3757860000000 1.0
C      1  0.6278530000000  0.4556660000000  0.5269910000000 1.0
C      1  0.4126280000000  0.4556580000000  0.5974130000000 1.0
C      1  0.7636810000000  0.3728140000000  0.5291040000000 1.0
C      1  0.3430630000000  0.3727940000000  0.7138180000000 1.0
C      1  0.3933900000000  0.3727170000000  0.2570050000000 1.0
C      1  0.4053900000000  0.5367070000000  0.4232770000000 1.0
C      1  0.6138570000000  0.5368150000000  0.4562400000000 1.0
C      1  0.4808890000000  0.5368130000000  0.6203470000000 1.0
C      1  0.7582360000000  0.4688600000000  0.5013630000000 1.0
C      1  0.3696740000000  0.4688130000000  0.7229250000000 1.0
C      1  0.3719800000000  0.4688350000000  0.2753950000000 1.0
C      1  0.6510520000000  0.4998050000000  0.3328380000000 1.0
C      1  0.5692510000000  0.4998210000000  0.7143720000000 1.0
C      1  0.2797140000000  0.4998390000000  0.4528120000000 1.0
C      1  0.7106450000000  0.4960900000000  0.4207180000000 1.0
C      1  0.4633050000000  0.4961910000000  0.7220840000000 1.0
C      1  0.3261200000000  0.4959860000000  0.3571890000000 1.0
C      1  0.5757460000000  0.6917690000000  0.5769630000000 1.0
C      1  0.3954750000000  0.6916580000000  0.5269600000000 1.0
C      1  0.5288660000000  0.6918430000000  0.3958640000000 1.0
C      1  0.5133490000000  0.5908100000000  0.2824650000000 1.0
C      1  0.6817720000000  0.5908110000000  0.6204010000000 1.0
C      1  0.3048640000000  0.5908120000000  0.5973170000000 1.0
C      1  0.6076630000000  0.5866090000000  0.3167360000000 1.0
C      1  0.6049150000000  0.5865780000000  0.6848630000000 1.0
C      1  0.2873310000000  0.5866150000000  0.4984850000000 1.0
C      1  0.6805570000000  0.3632840000000  0.6064320000000 1.0
C      1  0.3176260000000  0.3631930000000  0.6032010000000 1.0
C      1  0.5018180000000  0.3632220000000  0.2905340000000 1.0
C      1  0.4938220000000  0.2860260000000  0.7774830000000 1.0
C      1  0.2626220000000  0.2862860000000  0.3559280000000 1.0
C      1  0.7435330000000  0.2862400000000  0.3664630000000 1.0
C      1  0.4353230000000  0.3159500000000  0.7178310000000 1.0
C      1  0.3435740000000  0.3160270000000  0.3349490000000 1.0
C      1  0.7211440000000  0.3159170000000  0.4470800000000 1.0
C      1  0.4648500000000  0.5108950000000  0.2769990000000 1.0
C      1  0.7107140000000  0.5110020000000  0.5810050000000 1.0
C      1  0.3244210000000  0.5110550000000  0.6421200000000 1.0
C      1  0.6162130000000  0.4179310000000  0.6588930000000 1.0
C      1  0.3042540000000  0.4178800000000  0.5213330000000 1.0
C      1  0.5794190000000  0.4178270000000  0.3199080000000 1.0
C      1  0.3723020000000  0.6632970000000  0.3638330000000 1.0
C      1  0.6818030000000  0.6631390000000  0.4576110000000 1.0
C      1  0.4458540000000  0.6633710000000  0.6786350000000 1.0
C      1  0.4291800000000  0.3484910000000  0.6184570000000 1.0
C      1  0.4326980000000  0.3485590000000  0.3793450000000 1.0
C      1  0.6380720000000  0.3485280000000  0.5021300000000 1.0
C      1  0.4636460000000  0.6121250000000  0.4469570000000 1.0
C      1  0.5643770000000  0.6122510000000  0.4951120000000 1.0
C      1  0.4720750000000  0.6123270000000  0.5582030000000 1.0
END
