TITL C-986974-580-213 1.89985684490876e-05 3375 -361.176145165281 0 0 60 (C6) n - 1
REM
REM in /home/bkarasulu/work/CARBON/AIRSS/Generating-Clusters/REBO/Higher-Symm/Only-C60
REM
REM
REM
REM
REM
REM ./C.cell (a2850807a9bf4ad07a5b6933b78d9264)
REM AIRSS Version 0.9.1 bugfix July 2018 build 013d7b7c2542+ Fri, 06 Jul 2018 19:26:36 +0100
REM compiler GCC version 9.2.1 20190827 (Red Hat 9.2.1-1)
REM options -cpp -mtune=generic -march=x86-64 -g -O0 -fpre-include=/usr/include/finclude/math-vector-fortran.h
REM seed 866124629 1036885290 874857377 1328277919 324637773 552370465 -659250322 1201517466 1903285851 -645327447 159160385 167026741 -1352384964 -884187578 -1902523712 -2054421562 -1230674862 1192231009 47725382 854416167 -1536263833 -408933380 1355566927 -1183891220 428428937 2068106612 -1424132517 -530917132 -106673070 841393397 1683389088 93056510 -199048613
REM
CELL 1.54180   15.00000   15.00000   15.00000   90.00000   90.00000   90.00000
LATT -1
SFAC C  
C      1  0.5822560000000  0.5792440000000  0.5401600000000 1.0
C      1  0.5759080000000  0.5792440000000  0.4488440000000 1.0
C      1  0.4936520000000  0.5792440000000  0.4086840000000 1.0
C      1  0.4177440000000  0.5792440000000  0.4598400000000 1.0
C      1  0.4240920000000  0.5792440000000  0.5511560000000 1.0
C      1  0.5063480000000  0.5792440000000  0.5913160000000 1.0
C      1  0.5822560000000  0.4207560000000  0.4598400000000 1.0
C      1  0.5759080000000  0.4207560000000  0.5511560000000 1.0
C      1  0.4936520000000  0.4207560000000  0.5913160000000 1.0
C      1  0.4177440000000  0.4207560000000  0.5401600000000 1.0
C      1  0.4240920000000  0.4207560000000  0.4488440000000 1.0
C      1  0.5063480000000  0.4207560000000  0.4086840000000 1.0
C      1  0.7046370000000  0.5521750000000  0.4295450000000 1.0
C      1  0.5413020000000  0.5521750000000  0.2875520000000 1.0
C      1  0.3366650000000  0.5521750000000  0.3580070000000 1.0
C      1  0.2953630000000  0.5521750000000  0.5704550000000 1.0
C      1  0.4586980000000  0.5521750000000  0.7124480000000 1.0
C      1  0.6633350000000  0.5521750000000  0.6419930000000 1.0
C      1  0.7046370000000  0.4478250000000  0.5704550000000 1.0
C      1  0.5413020000000  0.4478250000000  0.7124480000000 1.0
C      1  0.3366650000000  0.4478250000000  0.6419930000000 1.0
C      1  0.2953630000000  0.4478250000000  0.4295450000000 1.0
C      1  0.4586980000000  0.4478250000000  0.2875520000000 1.0
C      1  0.6633350000000  0.4478250000000  0.3580070000000 1.0
C      1  0.4144720000000  0.2876960000000  0.5416720000000 1.0
C      1  0.4933250000000  0.2876960000000  0.5949060000000 1.0
C      1  0.5788530000000  0.2876960000000  0.5532330000000 1.0
C      1  0.5855280000000  0.2876960000000  0.4583280000000 1.0
C      1  0.5066750000000  0.2876960000000  0.4050940000000 1.0
C      1  0.4211470000000  0.2876960000000  0.4467670000000 1.0
C      1  0.4144720000000  0.7123040000000  0.4583280000000 1.0
C      1  0.4933250000000  0.7123040000000  0.4050940000000 1.0
C      1  0.5788530000000  0.7123040000000  0.4467670000000 1.0
C      1  0.5855280000000  0.7123040000000  0.5416720000000 1.0
C      1  0.5066750000000  0.7123040000000  0.5949060000000 1.0
C      1  0.4211470000000  0.7123040000000  0.5532330000000 1.0
C      1  0.4872620000000  0.3533940000000  0.6807030000000 1.0
C      1  0.6501250000000  0.3533940000000  0.6013830000000 1.0
C      1  0.6628630000000  0.3533940000000  0.4206800000000 1.0
C      1  0.5127380000000  0.3533940000000  0.3192970000000 1.0
C      1  0.3498750000000  0.3533940000000  0.3986170000000 1.0
C      1  0.3371370000000  0.3533940000000  0.5793200000000 1.0
C      1  0.4872620000000  0.6466060000000  0.3192970000000 1.0
C      1  0.6501250000000  0.6466060000000  0.3986170000000 1.0
C      1  0.6628630000000  0.6466060000000  0.5793200000000 1.0
C      1  0.5127380000000  0.6466060000000  0.6807030000000 1.0
C      1  0.3498750000000  0.6466060000000  0.6013830000000 1.0
C      1  0.3371370000000  0.6466060000000  0.4206800000000 1.0
C      1  0.3602920000000  0.4459950000000  0.3349430000000 1.0
C      1  0.2872020000000  0.4459950000000  0.5384620000000 1.0
C      1  0.4269100000000  0.4459950000000  0.7035190000000 1.0
C      1  0.6397080000000  0.4459950000000  0.6650570000000 1.0
C      1  0.7127980000000  0.4459950000000  0.4615380000000 1.0
C      1  0.5730900000000  0.4459950000000  0.2964810000000 1.0
C      1  0.3602920000000  0.5540050000000  0.6650570000000 1.0
C      1  0.2872020000000  0.5540050000000  0.4615380000000 1.0
C      1  0.4269100000000  0.5540050000000  0.2964810000000 1.0
C      1  0.6397080000000  0.5540050000000  0.3349430000000 1.0
C      1  0.7127980000000  0.5540050000000  0.5384620000000 1.0
C      1  0.5730900000000  0.5540050000000  0.7035190000000 1.0
END
