TITL C-986978-6805-713 -5.10741078455716e-05 3375 -341.828467961293 0 0 60 (C1) n - 1
REM
REM in /home/bkarasulu/work/CARBON/AIRSS/Generating-Clusters/REBO/Higher-Symm/Only-C60
REM
REM
REM
REM
REM
REM ./C.cell (a2850807a9bf4ad07a5b6933b78d9264)
REM AIRSS Version 0.9.1 bugfix July 2018 build 013d7b7c2542+ Fri, 06 Jul 2018 19:26:36 +0100
REM compiler GCC version 9.2.1 20190827 (Red Hat 9.2.1-1)
REM options -cpp -mtune=generic -march=x86-64 -g -O0 -fpre-include=/usr/include/finclude/math-vector-fortran.h
REM seed 432181511 -1243109907 -1502168895 1386955518 838942341 -1523830759 1100611098 -359143625 1823540301 -67474433 -255233812 -1230932568 1445329279 -2056757048 953523315 2019049177 2044319811 -720165500 -1410576450 97712321 2051542525 -254304230 -626497364 -352513267 -1364572521 -468930053 1892290185 -1574362307 -513494833 -2062065076 451517557 -198472617 -840242315
REM
CELL 1.54180   15.00000   15.00000   15.00000   90.00000   90.00000   90.00000
LATT -1
SFAC C  
C      1  0.7387350000000  0.4656500000000  0.4100400000000 1.0
C      1  0.7431740000000  0.4033090000000  0.4846460000000 1.0
C      1  0.7460180000000  0.4367890000000  0.5764770000000 1.0
C      1  0.7439570000000  0.5331450000000  0.5935790000000 1.0
C      1  0.7380960000000  0.5950780000000  0.5185100000000 1.0
C      1  0.7357190000000  0.5613850000000  0.4271660000000 1.0
C      1  0.5163830000000  0.5730760000000  0.5766180000000 1.0
C      1  0.5042690000000  0.5942210000000  0.4715300000000 1.0
C      1  0.5061620000000  0.5091500000000  0.3996980000000 1.0
C      1  0.5164730000000  0.4104140000000  0.4408920000000 1.0
C      1  0.5258100000000  0.3995160000000  0.5451800000000 1.0
C      1  0.5326940000000  0.4772470000000  0.6124690000000 1.0
C      1  0.3924310000000  0.5237180000000  0.3994130000000 1.0
C      1  0.4041920000000  0.4294190000000  0.4314360000000 1.0
C      1  0.4115500000000  0.4056430000000  0.5276350000000 1.0
C      1  0.4201090000000  0.4821900000000  0.5916140000000 1.0
C      1  0.4029080000000  0.5780420000000  0.5591500000000 1.0
C      1  0.3894970000000  0.5997650000000  0.4628270000000 1.0
C      1  0.3301480000000  0.4787260000000  0.6652970000000 1.0
C      1  0.3210830000000  0.6297930000000  0.6146550000000 1.0
C      1  0.2963680000000  0.6590150000000  0.4435690000000 1.0
C      1  0.3139220000000  0.5295230000000  0.3245700000000 1.0
C      1  0.3214560000000  0.3772270000000  0.3785640000000 1.0
C      1  0.3112020000000  0.3542110000000  0.5493910000000 1.0
C      1  0.3415490000000  0.3855190000000  0.6390020000000 1.0
C      1  0.3157370000000  0.5719300000000  0.6938060000000 1.0
C      1  0.3254540000000  0.6911490000000  0.5351550000000 1.0
C      1  0.3235670000000  0.6267940000000  0.3505280000000 1.0
C      1  0.3070120000000  0.4339780000000  0.2977080000000 1.0
C      1  0.3345150000000  0.3193030000000  0.4585930000000 1.0
C      1  0.6602100000000  0.6529290000000  0.5317270000000 1.0
C      1  0.6562770000000  0.5976290000000  0.3831340000000 1.0
C      1  0.6618280000000  0.4422140000000  0.3544290000000 1.0
C      1  0.6689250000000  0.3397530000000  0.4759460000000 1.0
C      1  0.6739940000000  0.3939180000000  0.6280000000000 1.0
C      1  0.6706290000000  0.5531310000000  0.6559700000000 1.0
C      1  0.4166440000000  0.4346340000000  0.2999830000000 1.0
C      1  0.4312450000000  0.2961600000000  0.4560630000000 1.0
C      1  0.4371550000000  0.3646870000000  0.6514870000000 1.0
C      1  0.4239130000000  0.5691980000000  0.6912660000000 1.0
C      1  0.4249760000000  0.7064340000000  0.5351860000000 1.0
C      1  0.4231060000000  0.6383920000000  0.3400750000000 1.0
C      1  0.6159040000000  0.3381790000000  0.5635850000000 1.0
C      1  0.6184060000000  0.4670110000000  0.6746210000000 1.0
C      1  0.6087920000000  0.6242650000000  0.6146350000000 1.0
C      1  0.6006370000000  0.6502520000000  0.4493920000000 1.0
C      1  0.6019460000000  0.5232470000000  0.3406780000000 1.0
C      1  0.6086910000000  0.3661350000000  0.3969090000000 1.0
C      1  0.4510850000000  0.5426100000000  0.2831080000000 1.0
C      1  0.4519000000000  0.3377640000000  0.3502100000000 1.0
C      1  0.4576040000000  0.2885590000000  0.5675710000000 1.0
C      1  0.4523650000000  0.4606160000000  0.7161030000000 1.0
C      1  0.4512980000000  0.6690430000000  0.6408690000000 1.0
C      1  0.4542590000000  0.7083920000000  0.4247500000000 1.0
C      1  0.5465740000000  0.7312220000000  0.4166720000000 1.0
C      1  0.5431170000000  0.5438850000000  0.2584730000000 1.0
C      1  0.5436240000000  0.3177670000000  0.3312900000000 1.0
C      1  0.5487360000000  0.2595040000000  0.5782820000000 1.0
C      1  0.5434190000000  0.4577910000000  0.7486280000000 1.0
C      1  0.5425540000000  0.6897550000000  0.6612380000000 1.0
END
