TITL C-986975-4297-809 4.56977304232467e-05 3375 -333.914775768674 0 0 60 (C1) n - 1
REM
REM in /home/bkarasulu/work/CARBON/AIRSS/Generating-Clusters/REBO/Higher-Symm/Only-C60
REM
REM
REM
REM
REM
REM ./C.cell (a2850807a9bf4ad07a5b6933b78d9264)
REM AIRSS Version 0.9.1 bugfix July 2018 build 013d7b7c2542+ Fri, 06 Jul 2018 19:26:36 +0100
REM compiler GCC version 9.2.1 20190827 (Red Hat 9.2.1-1)
REM options -cpp -mtune=generic -march=x86-64 -g -O0 -fpre-include=/usr/include/finclude/math-vector-fortran.h
REM seed -174967544 944721365 1021007585 1865237405 582838036 508985821 -1648900720 -37814654 2041114891 275943222 -2029019655 -2054741929 1883449549 -33494609 -117535788 178579300 405254714 -963489902 -154555050 1593580358 -437973636 1869039848 -1669727021 -71966245 1099522976 953223382 -549773486 -657669272 -1735810780 2134037165 424026169 -1640588778 -428527685
REM
CELL 1.54180   15.00000   15.00000   15.00000   90.00000   90.00000   90.00000
LATT -1
SFAC C  
C      1  0.7155450000000  0.5901140000000  0.3967590000000 1.0
C      1  0.2822760000000  0.5847510000000  0.3976550000000 1.0
C      1  0.7053330000000  0.5054920000000  0.3587610000000 1.0
C      1  0.3011500000000  0.5065810000000  0.3519130000000 1.0
C      1  0.4544340000000  0.3380130000000  0.6532730000000 1.0
C      1  0.5519160000000  0.3278950000000  0.6610330000000 1.0
C      1  0.6572580000000  0.4067630000000  0.6399280000000 1.0
C      1  0.3260170000000  0.4587810000000  0.6356650000000 1.0
C      1  0.5691690000000  0.5196450000000  0.3449650000000 1.0
C      1  0.4385800000000  0.5272020000000  0.3694780000000 1.0
C      1  0.4839430000000  0.2499150000000  0.3836230000000 1.0
C      1  0.5659560000000  0.1990320000000  0.4152100000000 1.0
C      1  0.6343920000000  0.5320260000000  0.5227370000000 1.0
C      1  0.3477230000000  0.5334960000000  0.5276100000000 1.0
C      1  0.6278570000000  0.6424920000000  0.5252350000000 1.0
C      1  0.3182000000000  0.6520380000000  0.5453830000000 1.0
C      1  0.5812020000000  0.5440180000000  0.7024630000000 1.0
C      1  0.4199030000000  0.5571170000000  0.6888810000000 1.0
C      1  0.5339990000000  0.5982260000000  0.3058470000000 1.0
C      1  0.4344500000000  0.6075790000000  0.3029570000000 1.0
C      1  0.3505380000000  0.4305050000000  0.3442410000000 1.0
C      1  0.6627670000000  0.4257800000000  0.3490100000000 1.0
C      1  0.4156670000000  0.2823510000000  0.5832740000000 1.0
C      1  0.5972820000000  0.2784120000000  0.5905160000000 1.0
C      1  0.5641040000000  0.4171480000000  0.3011570000000 1.0
C      1  0.4532260000000  0.4387460000000  0.3119180000000 1.0
C      1  0.3268350000000  0.3177820000000  0.5263420000000 1.0
C      1  0.6719110000000  0.3387510000000  0.5316980000000 1.0
C      1  0.7014650000000  0.4859650000000  0.5993290000000 1.0
C      1  0.2610730000000  0.5220330000000  0.6002460000000 1.0
C      1  0.5919540000000  0.4804580000000  0.4473710000000 1.0
C      1  0.3918270000000  0.4813830000000  0.4595030000000 1.0
C      1  0.5623540000000  0.4387970000000  0.6833620000000 1.0
C      1  0.4296510000000  0.4449270000000  0.6749040000000 1.0
C      1  0.3698730000000  0.5953610000000  0.6202430000000 1.0
C      1  0.6442830000000  0.5677600000000  0.6330850000000 1.0
C      1  0.3682290000000  0.4042100000000  0.5649730000000 1.0
C      1  0.5812890000000  0.4042810000000  0.5562710000000 1.0
C      1  0.7325320000000  0.6160200000000  0.4918330000000 1.0
C      1  0.2425180000000  0.6037930000000  0.4864360000000 1.0
C      1  0.4479600000000  0.3034650000000  0.4765640000000 1.0
C      1  0.5602990000000  0.2899130000000  0.4835410000000 1.0
C      1  0.5482020000000  0.7402260000000  0.4100460000000 1.0
C      1  0.4366900000000  0.7354870000000  0.4230860000000 1.0
C      1  0.3916320000000  0.6839720000000  0.3368170000000 1.0
C      1  0.5792230000000  0.6776510000000  0.3263260000000 1.0
C      1  0.3444210000000  0.6724410000000  0.4370260000000 1.0
C      1  0.6397850000000  0.6727660000000  0.4165100000000 1.0
C      1  0.3688030000000  0.3726680000000  0.4361870000000 1.0
C      1  0.6238070000000  0.3717370000000  0.4365850000000 1.0
C      1  0.5028540000000  0.7479460000000  0.5104350000000 1.0
C      1  0.4976350000000  0.3507260000000  0.3624400000000 1.0
C      1  0.4923830000000  0.4286600000000  0.4413850000000 1.0
C      1  0.4921640000000  0.5680190000000  0.4564750000000 1.0
C      1  0.5413370000000  0.6789620000000  0.5718780000000 1.0
C      1  0.5121160000000  0.5795600000000  0.5454660000000 1.0
C      1  0.5037690000000  0.5997390000000  0.7114560000000 1.0
C      1  0.4685770000000  0.4154410000000  0.5459230000000 1.0
C      1  0.5185770000000  0.6857340000000  0.6720600000000 1.0
C      1  0.5038220000000  0.4981930000000  0.6050380000000 1.0
END
