TITL C-986975-4297-817 3.36482239244901e-06 3375 -363.891179068949 0 0 60 (T23) n - 1
REM
REM in /home/bkarasulu/work/CARBON/AIRSS/Generating-Clusters/REBO/Higher-Symm/Only-C60
REM
REM
REM
REM
REM
REM ./C.cell (a2850807a9bf4ad07a5b6933b78d9264)
REM AIRSS Version 0.9.1 bugfix July 2018 build 013d7b7c2542+ Fri, 06 Jul 2018 19:26:36 +0100
REM compiler GCC version 9.2.1 20190827 (Red Hat 9.2.1-1)
REM options -cpp -mtune=generic -march=x86-64 -g -O0 -fpre-include=/usr/include/finclude/math-vector-fortran.h
REM seed -1944105469 167361617 2084251951 -1990385896 1525803777 -324776489 636548140 890148924 737897364 -1252958383 -2103320848 -104934524 -596496835 -5388267 -1336475778 -1348416684 -686343783 1951483306 624883545 -2103892146 -1688638935 1097848807 278935139 1799727239 2012902794 1223788856 -554194640 -413076660 -116504206 1193436426 92318277 1503137856 -2053554062
REM
CELL 1.54180   15.00000   15.00000   15.00000   90.00000   90.00000   90.00000
LATT -1
SFAC C  
C      1  0.6099650000000  0.4639450000000  0.4684640000000 1.0
C      1  0.4639450000000  0.4684640000000  0.6099650000000 1.0
C      1  0.4684640000000  0.6099650000000  0.4639450000000 1.0
C      1  0.3900350000000  0.4639450000000  0.5315360000000 1.0
C      1  0.3900350000000  0.5360550000000  0.4684640000000 1.0
C      1  0.6099650000000  0.5360550000000  0.5315360000000 1.0
C      1  0.5360550000000  0.4684640000000  0.3900350000000 1.0
C      1  0.5360550000000  0.5315360000000  0.6099650000000 1.0
C      1  0.4639450000000  0.5315360000000  0.3900350000000 1.0
C      1  0.5315360000000  0.6099650000000  0.5360550000000 1.0
C      1  0.5315360000000  0.3900350000000  0.4639450000000 1.0
C      1  0.4684640000000  0.3900350000000  0.5360550000000 1.0
C      1  0.3870940000000  0.6864940000000  0.5998320000000 1.0
C      1  0.6864940000000  0.5998320000000  0.3870940000000 1.0
C      1  0.5998320000000  0.3870940000000  0.6864940000000 1.0
C      1  0.6129060000000  0.6864940000000  0.4001680000000 1.0
C      1  0.6129060000000  0.3135060000000  0.5998320000000 1.0
C      1  0.3870940000000  0.3135060000000  0.4001680000000 1.0
C      1  0.3135060000000  0.5998320000000  0.6129060000000 1.0
C      1  0.3135060000000  0.4001680000000  0.3870940000000 1.0
C      1  0.6864940000000  0.4001680000000  0.6129060000000 1.0
C      1  0.4001680000000  0.3870940000000  0.3135060000000 1.0
C      1  0.4001680000000  0.6129060000000  0.6864940000000 1.0
C      1  0.5998320000000  0.6129060000000  0.3135060000000 1.0
C      1  0.4896520000000  0.6961850000000  0.6347020000000 1.0
C      1  0.6961840000000  0.6347020000000  0.4896520000000 1.0
C      1  0.6347020000000  0.4896520000000  0.6961840000000 1.0
C      1  0.5103480000000  0.6961840000000  0.3652980000000 1.0
C      1  0.5103480000000  0.3038160000000  0.6347020000000 1.0
C      1  0.4896520000000  0.3038150000000  0.3652980000000 1.0
C      1  0.3038160000000  0.6347020000000  0.5103480000000 1.0
C      1  0.3038160000000  0.3652980000000  0.4896520000000 1.0
C      1  0.6961840000000  0.3652980000000  0.5103480000000 1.0
C      1  0.3652980000000  0.4896520000000  0.3038160000000 1.0
C      1  0.3652980000000  0.5103480000000  0.6961850000000 1.0
C      1  0.6347020000000  0.5103480000000  0.3038160000000 1.0
C      1  0.7140330000000  0.5034710000000  0.6326560000000 1.0
C      1  0.5034710000000  0.6326560000000  0.7140330000000 1.0
C      1  0.6326560000000  0.7140330000000  0.5034710000000 1.0
C      1  0.2859670000000  0.5034710000000  0.3673440000000 1.0
C      1  0.2859670000000  0.4965290000000  0.6326560000000 1.0
C      1  0.7140330000000  0.4965290000000  0.3673440000000 1.0
C      1  0.4965290000000  0.6326560000000  0.2859670000000 1.0
C      1  0.4965290000000  0.3673440000000  0.7140330000000 1.0
C      1  0.5034710000000  0.3673440000000  0.2859670000000 1.0
C      1  0.3673440000000  0.7140330000000  0.4965290000000 1.0
C      1  0.3673440000000  0.2859670000000  0.5034710000000 1.0
C      1  0.6326560000000  0.2859670000000  0.4965290000000 1.0
C      1  0.4378170000000  0.7042380000000  0.4328560000000 1.0
C      1  0.7042380000000  0.4328560000000  0.4378170000000 1.0
C      1  0.4328560000000  0.4378170000000  0.7042380000000 1.0
C      1  0.5621830000000  0.7042380000000  0.5671440000000 1.0
C      1  0.5621830000000  0.2957620000000  0.4328560000000 1.0
C      1  0.4378170000000  0.2957620000000  0.5671440000000 1.0
C      1  0.2957620000000  0.4328560000000  0.5621830000000 1.0
C      1  0.2957620000000  0.5671440000000  0.4378170000000 1.0
C      1  0.7042380000000  0.5671440000000  0.5621830000000 1.0
C      1  0.5671440000000  0.4378170000000  0.2957620000000 1.0
C      1  0.5671440000000  0.5621830000000  0.7042380000000 1.0
C      1  0.4328560000000  0.5621830000000  0.2957620000000 1.0
END
