TITL C-986976-6631-878 -0.00789783330363701 3375 -341.665348084444 0 0 60 (C1) n - 1
REM
REM in /home/bkarasulu/work/CARBON/AIRSS/Generating-Clusters/REBO/Higher-Symm/Only-C60
REM
REM
REM
REM
REM
REM ./C.cell (a2850807a9bf4ad07a5b6933b78d9264)
REM AIRSS Version 0.9.1 bugfix July 2018 build 013d7b7c2542+ Fri, 06 Jul 2018 19:26:36 +0100
REM compiler GCC version 9.2.1 20190827 (Red Hat 9.2.1-1)
REM options -cpp -mtune=generic -march=x86-64 -g -O0 -fpre-include=/usr/include/finclude/math-vector-fortran.h
REM seed -1839952129 -105863666 1870589653 -1541152325 -95793723 1987396176 547580660 -1155596706 -1647149473 553444046 -858563196 -2053736871 1065050531 1698490489 -1411748174 -856104098 1881502430 1771162111 -69985821 -591509120 1724918616 -716083545 -994944459 -924824846 850519601 -1772046104 858458937 -884730201 1417733940 -1210369892 -737401801 1575626670 1477885255
REM
CELL 1.54180   15.00000   15.00000   15.00000   90.00000   90.00000   90.00000
LATT -1
SFAC C  
C      1  0.5769450000000  0.3726330000000  0.6645130000000 1.0
C      1  0.5826710000000  0.6330440000000  0.6609980000000 1.0
C      1  0.4583250000000  0.6033460000000  0.2183940000000 1.0
C      1  0.4647400000000  0.4108170000000  0.2181550000000 1.0
C      1  0.3534680000000  0.5852730000000  0.3349470000000 1.0
C      1  0.3535610000000  0.4213090000000  0.3290380000000 1.0
C      1  0.4146120000000  0.6746240000000  0.5615340000000 1.0
C      1  0.4159300000000  0.3358230000000  0.5417300000000 1.0
C      1  0.4251680000000  0.4423360000000  0.5304350000000 1.0
C      1  0.3864630000000  0.5867300000000  0.5137410000000 1.0
C      1  0.5232030000000  0.4627390000000  0.1650840000000 1.0
C      1  0.5188560000000  0.5551840000000  0.1641420000000 1.0
C      1  0.4170630000000  0.7060760000000  0.4646620000000 1.0
C      1  0.4104380000000  0.2994310000000  0.4525370000000 1.0
C      1  0.6192360000000  0.3282810000000  0.5146590000000 1.0
C      1  0.6109690000000  0.6592530000000  0.5023380000000 1.0
C      1  0.4705990000000  0.6487540000000  0.6505930000000 1.0
C      1  0.4659280000000  0.3600350000000  0.6413100000000 1.0
C      1  0.6721360000000  0.4186950000000  0.6516910000000 1.0
C      1  0.6736920000000  0.5826220000000  0.6475040000000 1.0
C      1  0.3881920000000  0.6711340000000  0.3681950000000 1.0
C      1  0.3910760000000  0.3377060000000  0.3528670000000 1.0
C      1  0.5023230000000  0.3953280000000  0.4618850000000 1.0
C      1  0.4842920000000  0.5927140000000  0.4833030000000 1.0
C      1  0.5515550000000  0.3176700000000  0.5782620000000 1.0
C      1  0.5475530000000  0.6749980000000  0.5693830000000 1.0
C      1  0.7153810000000  0.5727280000000  0.4388710000000 1.0
C      1  0.7283220000000  0.4219620000000  0.4501490000000 1.0
C      1  0.3821980000000  0.4561020000000  0.2416770000000 1.0
C      1  0.3785210000000  0.5546500000000  0.2436200000000 1.0
C      1  0.4909560000000  0.3456200000000  0.2963680000000 1.0
C      1  0.4829560000000  0.6539790000000  0.3069360000000 1.0
C      1  0.5914850000000  0.3784630000000  0.3375530000000 1.0
C      1  0.5650550000000  0.5825440000000  0.3374200000000 1.0
C      1  0.6752440000000  0.5861830000000  0.5356310000000 1.0
C      1  0.6779900000000  0.4063580000000  0.5401980000000 1.0
C      1  0.5068080000000  0.3003040000000  0.3997240000000 1.0
C      1  0.5104560000000  0.6741130000000  0.4158030000000 1.0
C      1  0.4084580000000  0.4145640000000  0.7092830000000 1.0
C      1  0.4163660000000  0.5893420000000  0.7135410000000 1.0
C      1  0.6156790000000  0.6619270000000  0.4008200000000 1.0
C      1  0.6078450000000  0.3178060000000  0.4239200000000 1.0
C      1  0.7378990000000  0.4988370000000  0.6037170000000 1.0
C      1  0.2150330000000  0.4859030000000  0.5737980000000 1.0
C      1  0.6247880000000  0.5031400000000  0.7854410000000 1.0
C      1  0.2574380000000  0.4757020000000  0.4943340000000 1.0
C      1  0.6920950000000  0.5020280000000  0.7226590000000 1.0
C      1  0.4515200000000  0.4923310000000  0.6117140000000 1.0
C      1  0.5437360000000  0.5004160000000  0.7397470000000 1.0
C      1  0.4497700000000  0.4992830000000  0.7618320000000 1.0
C      1  0.6977740000000  0.4920170000000  0.3996090000000 1.0
C      1  0.6058040000000  0.4794870000000  0.3538220000000 1.0
C      1  0.5429670000000  0.4994280000000  0.6422410000000 1.0
C      1  0.3890180000000  0.5007460000000  0.3846040000000 1.0
C      1  0.3555180000000  0.5070320000000  0.6700860000000 1.0
C      1  0.2572460000000  0.5044890000000  0.6515360000000 1.0
C      1  0.4975720000000  0.5047070000000  0.3848500000000 1.0
C      1  0.5385310000000  0.4988850000000  0.4895170000000 1.0
C      1  0.6138250000000  0.4971250000000  0.5611770000000 1.0
C      1  0.3562080000000  0.4961910000000  0.4790720000000 1.0
END
