TITL C-986974-580-477 0.116191069082528 3375 -332.748453824675 0 0 60 (D2h) n - 1
REM
REM in /home/bkarasulu/work/CARBON/AIRSS/Generating-Clusters/REBO/Higher-Symm/Only-C60
REM
REM
REM
REM
REM
REM ./C.cell (a2850807a9bf4ad07a5b6933b78d9264)
REM AIRSS Version 0.9.1 bugfix July 2018 build 013d7b7c2542+ Fri, 06 Jul 2018 19:26:36 +0100
REM compiler GCC version 9.2.1 20190827 (Red Hat 9.2.1-1)
REM options -cpp -mtune=generic -march=x86-64 -g -O0 -fpre-include=/usr/include/finclude/math-vector-fortran.h
REM seed 2061008404 2147174374 1460174016 -1371537158 -224539479 1252300146 2021937680 1619035700 -550239912 -1807993644 -1837558097 278846645 -1797907563 -50873006 -1764169813 -1076759082 -1555233492 970722049 -74392558 2035922026 -152608005 -262850491 138933700 393501158 1522189592 -931579111 375193724 -1972937406 -2051198309 -2056499894 -1996228558 1048764139 755725106
REM
CELL 1.54180   15.00000   15.00000   15.00000   90.00000   90.00000   90.00000
LATT -1
SFAC C  
C      1  0.3796580000000  0.6568970000000  0.3150980000000 1.0
C      1  0.3796580000000  0.3431030000000  0.6849020000000 1.0
C      1  0.6203420000000  0.6568970000000  0.3150980000000 1.0
C      1  0.6203420000000  0.3431030000000  0.6849020000000 1.0
C      1  0.3796580000000  0.6568970000000  0.6849020000000 1.0
C      1  0.3796580000000  0.3431030000000  0.3150980000000 1.0
C      1  0.6203420000000  0.6568970000000  0.6849020000000 1.0
C      1  0.6203420000000  0.3431030000000  0.3150980000000 1.0
C      1  0.3191860000000  0.4188690000000  0.6405530000000 1.0
C      1  0.3191860000000  0.5811310000000  0.3594470000000 1.0
C      1  0.6808140000000  0.4188690000000  0.6405530000000 1.0
C      1  0.6808140000000  0.5811310000000  0.3594470000000 1.0
C      1  0.3191860000000  0.4188690000000  0.3594470000000 1.0
C      1  0.3191860000000  0.5811310000000  0.6405530000000 1.0
C      1  0.6808140000000  0.4188690000000  0.3594470000000 1.0
C      1  0.6808140000000  0.5811310000000  0.6405530000000 1.0
C      1  0.5918270000000  0.3365280000000  0.5863540000000 1.0
C      1  0.5918270000000  0.6634720000000  0.4136460000000 1.0
C      1  0.4081730000000  0.3365280000000  0.5863540000000 1.0
C      1  0.4081730000000  0.6634720000000  0.4136460000000 1.0
C      1  0.5918270000000  0.3365280000000  0.4136460000000 1.0
C      1  0.5918270000000  0.6634720000000  0.5863540000000 1.0
C      1  0.4081730000000  0.3365280000000  0.4136460000000 1.0
C      1  0.4081730000000  0.6634720000000  0.5863540000000 1.0
C      1  0.2943660000000  0.5522410000000  0.4471480000000 1.0
C      1  0.2943660000000  0.4477590000000  0.5528520000000 1.0
C      1  0.7056340000000  0.5522410000000  0.4471480000000 1.0
C      1  0.7056340000000  0.4477590000000  0.5528520000000 1.0
C      1  0.2943660000000  0.5522410000000  0.5528520000000 1.0
C      1  0.2943660000000  0.4477590000000  0.4471480000000 1.0
C      1  0.7056340000000  0.5522410000000  0.5528520000000 1.0
C      1  0.7056340000000  0.4477590000000  0.4471480000000 1.0
C      1  0.4484560000000  0.2599910000000  0.4491800000000 1.0
C      1  0.4484560000000  0.7400090000000  0.5508200000000 1.0
C      1  0.5515440000000  0.2599910000000  0.4491800000000 1.0
C      1  0.5515440000000  0.7400090000000  0.5508200000000 1.0
C      1  0.4484560000000  0.2599910000000  0.5508200000000 1.0
C      1  0.4484560000000  0.7400090000000  0.4491800000000 1.0
C      1  0.5515440000000  0.2599910000000  0.5508200000000 1.0
C      1  0.5515440000000  0.7400090000000  0.4491800000000 1.0
C      1  0.5724580000000  0.4431150000000  0.4458010000000 1.0
C      1  0.5724580000000  0.5568850000000  0.5541990000000 1.0
C      1  0.4275420000000  0.4431150000000  0.4458010000000 1.0
C      1  0.4275420000000  0.5568850000000  0.5541990000000 1.0
C      1  0.5724580000000  0.4431150000000  0.5541990000000 1.0
C      1  0.5724580000000  0.5568850000000  0.4458010000000 1.0
C      1  0.4275420000000  0.4431150000000  0.5541990000000 1.0
C      1  0.4275420000000  0.5568850000000  0.4458010000000 1.0
C      1  0.5509240000000  0.4333500000000  0.6660070000000 1.0
C      1  0.5509240000000  0.5666500000000  0.3339930000000 1.0
C      1  0.4490760000000  0.4333500000000  0.6660070000000 1.0
C      1  0.4490760000000  0.5666500000000  0.3339930000000 1.0
C      1  0.5509240000000  0.4333500000000  0.3339930000000 1.0
C      1  0.5509240000000  0.5666500000000  0.6660070000000 1.0
C      1  0.4490760000000  0.4333500000000  0.3339930000000 1.0
C      1  0.4490760000000  0.5666500000000  0.6660070000000 1.0
C      1  0.6362950000000  0.5000000000000  0.6997910000000 1.0
C      1  0.6362950000000  0.5000000000000  0.3002090000000 1.0
C      1  0.3637050000000  0.5000000000000  0.6997910000000 1.0
C      1  0.3637050000000  0.5000000000000  0.3002090000000 1.0
END
