TITL C-986978-6805-989 0.0177374682678249 3375 -343.208513952234 0 0 60 (D3) n - 1
REM
REM in /home/bkarasulu/work/CARBON/AIRSS/Generating-Clusters/REBO/Higher-Symm/Only-C60
REM
REM
REM
REM
REM
REM ./C.cell (a2850807a9bf4ad07a5b6933b78d9264)
REM AIRSS Version 0.9.1 bugfix July 2018 build 013d7b7c2542+ Fri, 06 Jul 2018 19:26:36 +0100
REM compiler GCC version 9.2.1 20190827 (Red Hat 9.2.1-1)
REM options -cpp -mtune=generic -march=x86-64 -g -O0 -fpre-include=/usr/include/finclude/math-vector-fortran.h
REM seed -1225078809 301216710 -148807284 531704112 -1020184490 2038627022 -753489432 774839897 -533046040 -689814888 155571649 512073336 -1604558990 -1702141397 1686840974 1493901459 -748642398 412666887 -1542551987 509080198 695344501 41103437 828306034 -2084758550 1749883318 526645458 -2027246808 -2087525466 -736118829 165408568 -1282318246 1271024304 -735428984
REM
CELL 1.54180   15.00000   15.00000   15.00000   90.00000   90.00000   90.00000
LATT -1
SFAC C  
C      1  0.7026800000000  0.6276970000000  0.3901830000000 1.0
C      1  0.7026800000000  0.5295860000000  0.6621660000000 1.0
C      1  0.7026800000000  0.3430970000000  0.4412090000000 1.0
C      1  0.2994070000000  0.3725550000000  0.3901830000000 1.0
C      1  0.2994060000000  0.4706670000000  0.6621660000000 1.0
C      1  0.2994060000000  0.6571550000000  0.4412080000000 1.0
C      1  0.3323020000000  0.3657380000000  0.5486640000000 1.0
C      1  0.3323010000000  0.5233160000000  0.3560640000000 1.0
C      1  0.3323010000000  0.6113230000000  0.5888300000000 1.0
C      1  0.6697840000000  0.6345150000000  0.5486630000000 1.0
C      1  0.6697850000000  0.4769360000000  0.3560640000000 1.0
C      1  0.6697850000000  0.3889290000000  0.5888310000000 1.0
C      1  0.6072470000000  0.6654320000000  0.3603700000000 1.0
C      1  0.6072480000000  0.5365370000000  0.7097530000000 1.0
C      1  0.6072480000000  0.2984100000000  0.4234350000000 1.0
C      1  0.3948390000000  0.3348190000000  0.3603710000000 1.0
C      1  0.3948390000000  0.4637160000000  0.7097530000000 1.0
C      1  0.3948380000000  0.7018420000000  0.4234340000000 1.0
C      1  0.7301510000000  0.3989320000000  0.5139800000000 1.0
C      1  0.7301510000000  0.5367580000000  0.4021520000000 1.0
C      1  0.7301510000000  0.5646910000000  0.5774260000000 1.0
C      1  0.2719350000000  0.6013200000000  0.5139790000000 1.0
C      1  0.2719350000000  0.4634940000000  0.4021520000000 1.0
C      1  0.2719360000000  0.4355620000000  0.5774270000000 1.0
C      1  0.6774570000000  0.4296170000000  0.6755690000000 1.0
C      1  0.6774570000000  0.3814750000000  0.3479310000000 1.0
C      1  0.6774560000000  0.6892890000000  0.4700580000000 1.0
C      1  0.3246290000000  0.5706360000000  0.6755690000000 1.0
C      1  0.3246290000000  0.6187770000000  0.3479300000000 1.0
C      1  0.3246300000000  0.3109630000000  0.4700590000000 1.0
C      1  0.5894950000000  0.7395650000000  0.4406400000000 1.0
C      1  0.5894960000000  0.4299540000000  0.7338180000000 1.0
C      1  0.5894960000000  0.3308600000000  0.3190990000000 1.0
C      1  0.4125910000000  0.2606870000000  0.4406420000000 1.0
C      1  0.4125900000000  0.5702990000000  0.7338180000000 1.0
C      1  0.4125900000000  0.6693910000000  0.3190980000000 1.0
C      1  0.4189610000000  0.4081530000000  0.5481950000000 1.0
C      1  0.4189600000000  0.5025150000000  0.3930300000000 1.0
C      1  0.4189600000000  0.5897100000000  0.5523320000000 1.0
C      1  0.5831250000000  0.5921000000000  0.5481940000000 1.0
C      1  0.5831260000000  0.4977370000000  0.3930300000000 1.0
C      1  0.5831260000000  0.4105420000000  0.5523330000000 1.0
C      1  0.5010440000000  0.2923360000000  0.6178200000000 1.0
C      1  0.5010430000000  0.5001260000000  0.2579170000000 1.0
C      1  0.5010420000000  0.7079170000000  0.6178200000000 1.0
C      1  0.5010440000000  0.3006720000000  0.3826980000000 1.0
C      1  0.5010430000000  0.5001270000000  0.7281620000000 1.0
C      1  0.5010420000000  0.6995800000000  0.3826970000000 1.0
C      1  0.5010430000000  0.5001260000000  0.3491530000000 1.0
C      1  0.5010430000000  0.6289040000000  0.5722020000000 1.0
C      1  0.5010440000000  0.3713480000000  0.5722020000000 1.0
C      1  0.8688100000000  0.5001270000000  0.4978520000000 1.0
C      1  0.1332760000000  0.5001250000000  0.4978520000000 1.0
C      1  0.9567000000000  0.5001270000000  0.4978530000000 1.0
C      1  0.0453862000000  0.5001260000000  0.4978530000000 1.0
C      1  0.4011920000000  0.5001260000000  0.4978520000000 1.0
C      1  0.6008940000000  0.5001270000000  0.4978520000000 1.0
C      1  0.2360890000000  0.5001250000000  0.4978520000000 1.0
C      1  0.7659970000000  0.5001270000000  0.4978520000000 1.0
C      1  0.5010430000000  0.5001260000000  0.4978520000000 1.0
END
