TITL C-986975-4297-890 -0.000162426201776196 3375 -348.799840475707 0 0 60 (Ci) n - 1
REM
REM in /home/bkarasulu/work/CARBON/AIRSS/Generating-Clusters/REBO/Higher-Symm/Only-C60
REM
REM
REM
REM
REM
REM ./C.cell (a2850807a9bf4ad07a5b6933b78d9264)
REM AIRSS Version 0.9.1 bugfix July 2018 build 013d7b7c2542+ Fri, 06 Jul 2018 19:26:36 +0100
REM compiler GCC version 9.2.1 20190827 (Red Hat 9.2.1-1)
REM options -cpp -mtune=generic -march=x86-64 -g -O0 -fpre-include=/usr/include/finclude/math-vector-fortran.h
REM seed -1176757235 1514718402 -881289895 -1074057285 -101594949 -638923234 -846619310 589547447 -1887953584 1904353368 -1829239758 -680161544 327705769 -1940924153 -1225789600 -1194313990 -1189167990 -27460712 -472765169 2108436015 2028472672 -1320474878 1315951344 -1166106119 29019077 -15189925 980724322 845853993 611476901 1373636978 -1479396639 660454102 362218559
REM
CELL 1.54180   15.00000   15.00000   15.00000   90.00000   90.00000   90.00000
LATT -1
SFAC C  
C      1  0.6333150000000  0.6722540000000  0.4354420000000 1.0
C      1  0.3728520000000  0.3410540000000  0.4510640000000 1.0
C      1  0.6271470000000  0.6589460000000  0.5489360000000 1.0
C      1  0.3666850000000  0.3277470000000  0.5645580000000 1.0
C      1  0.6707130000000  0.5037610000000  0.4102970000000 1.0
C      1  0.3318970000000  0.5086840000000  0.4107910000000 1.0
C      1  0.6681030000000  0.4913160000000  0.5892090000000 1.0
C      1  0.3292870000000  0.4962400000000  0.5897030000000 1.0
C      1  0.3292880000000  0.3978620000000  0.6461030000000 1.0
C      1  0.6666940000000  0.5952560000000  0.6352150000000 1.0
C      1  0.3333060000000  0.4047450000000  0.3647850000000 1.0
C      1  0.6707120000000  0.6021380000000  0.3538980000000 1.0
C      1  0.6260480000000  0.3173770000000  0.5569450000000 1.0
C      1  0.3779130000000  0.6645420000000  0.5434420000000 1.0
C      1  0.6220880000000  0.3354580000000  0.4565580000000 1.0
C      1  0.3739530000000  0.6826230000000  0.4430550000000 1.0
C      1  0.5074440000000  0.6092410000000  0.2794760000000 1.0
C      1  0.4946070000000  0.3968030000000  0.2880720000000 1.0
C      1  0.5053930000000  0.6031970000000  0.7119280000000 1.0
C      1  0.4925560000000  0.3907590000000  0.7205240000000 1.0
C      1  0.4198630000000  0.4640110000000  0.3214220000000 1.0
C      1  0.5800790000000  0.5434060000000  0.3215280000000 1.0
C      1  0.4199210000000  0.4565940000000  0.6784720000000 1.0
C      1  0.5801370000000  0.5359890000000  0.6785780000000 1.0
C      1  0.4071190000000  0.6590580000000  0.6434450000000 1.0
C      1  0.5908430000000  0.3345470000000  0.6524530000000 1.0
C      1  0.4091580000000  0.6654530000000  0.3475470000000 1.0
C      1  0.5928810000000  0.3409420000000  0.3565550000000 1.0
C      1  0.5041780000000  0.4593860000000  0.4039840000000 1.0
C      1  0.4978270000000  0.5640070000000  0.4027120000000 1.0
C      1  0.5021730000000  0.4359930000000  0.5972890000000 1.0
C      1  0.4958220000000  0.5406140000000  0.5960160000000 1.0
C      1  0.4145960000000  0.5656600000000  0.2985990000000 1.0
C      1  0.5875080000000  0.4405040000000  0.3024100000000 1.0
C      1  0.4124920000000  0.5594960000000  0.6975900000000 1.0
C      1  0.5854040000000  0.4343400000000  0.7014010000000 1.0
C      1  0.5904320000000  0.5734680000000  0.4508580000000 1.0
C      1  0.4162590000000  0.4449810000000  0.4527370000000 1.0
C      1  0.5837410000000  0.5550190000000  0.5472630000000 1.0
C      1  0.4095690000000  0.4265320000000  0.5491420000000 1.0
C      1  0.4081520000000  0.5594650000000  0.5559130000000 1.0
C      1  0.5923940000000  0.4223820000000  0.5526430000000 1.0
C      1  0.4076060000000  0.5776180000000  0.4473570000000 1.0
C      1  0.5918480000000  0.4405350000000  0.4440870000000 1.0
C      1  0.2430730000000  0.5265470000000  0.4587220000000 1.0
C      1  0.7581860000000  0.4806510000000  0.4573140000000 1.0
C      1  0.2418140000000  0.5193500000000  0.5426870000000 1.0
C      1  0.7569270000000  0.4734540000000  0.5412780000000 1.0
C      1  0.5664410000000  0.7383480000000  0.3941250000000 1.0
C      1  0.4366870000000  0.2721480000000  0.4066120000000 1.0
C      1  0.5633130000000  0.7278520000000  0.5933880000000 1.0
C      1  0.4335590000000  0.2616520000000  0.6058740000000 1.0
C      1  0.5062800000000  0.6935150000000  0.6607560000000 1.0
C      1  0.4922630000000  0.2983060000000  0.6710160000000 1.0
C      1  0.5077370000000  0.7016930000000  0.3289840000000 1.0
C      1  0.4937200000000  0.3064850000000  0.3392440000000 1.0
C      1  0.5458540000000  0.8045340000000  0.5419710000000 1.0
C      1  0.4544690000000  0.1893160000000  0.5494100000000 1.0
C      1  0.5455300000000  0.8106830000000  0.4505900000000 1.0
C      1  0.4541450000000  0.1954660000000  0.4580290000000 1.0
END
