TITL C-986979-5873-963 -7.80123194177669e-05 3375 -330.883421813367 0 0 60 (C1) n - 1
REM
REM in /home/bkarasulu/work/CARBON/AIRSS/Generating-Clusters/REBO/Higher-Symm/Only-C60
REM
REM
REM
REM
REM
REM ./C.cell (a2850807a9bf4ad07a5b6933b78d9264)
REM AIRSS Version 0.9.1 bugfix July 2018 build 013d7b7c2542+ Fri, 06 Jul 2018 19:26:36 +0100
REM compiler GCC version 9.2.1 20190827 (Red Hat 9.2.1-1)
REM options -cpp -mtune=generic -march=x86-64 -g -O0 -fpre-include=/usr/include/finclude/math-vector-fortran.h
REM seed 1722360601 -850339238 -92376547 -1241587063 -1529090575 475256095 -1693186679 -553152836 -105407058 -1714195687 -832823955 502207434 917804172 -560850531 -1961393314 1617255547 -438811232 -1734129531 -1973073221 2114950241 -1045452195 1871944072 -284441596 -441122407 -689891518 1894680496 31381625 -547381550 1373028067 -1440104276 -400248664 -1669781179 -546862508
REM
CELL 1.54180   15.00000   15.00000   15.00000   90.00000   90.00000   90.00000
LATT -1
SFAC C  
C      1  0.2720920000000  0.6362580000000  0.4598630000000 1.0
C      1  0.4091830000000  0.6511820000000  0.6734700000000 1.0
C      1  0.6493900000000  0.6641390000000  0.6591230000000 1.0
C      1  0.6812800000000  0.6379280000000  0.4126650000000 1.0
C      1  0.4612250000000  0.6779430000000  0.3077570000000 1.0
C      1  0.6846800000000  0.3498880000000  0.5416610000000 1.0
C      1  0.6095240000000  0.3524960000000  0.3520460000000 1.0
C      1  0.3767210000000  0.3451820000000  0.3749680000000 1.0
C      1  0.3193470000000  0.3665040000000  0.5725540000000 1.0
C      1  0.5048410000000  0.3432150000000  0.6883700000000 1.0
C      1  0.3759250000000  0.3616170000000  0.6604280000000 1.0
C      1  0.5913220000000  0.3525510000000  0.6358320000000 1.0
C      1  0.7081980000000  0.3772790000000  0.4375090000000 1.0
C      1  0.5058240000000  0.3475970000000  0.3344720000000 1.0
C      1  0.2893970000000  0.3630400000000  0.4430980000000 1.0
C      1  0.3766830000000  0.4604090000000  0.7123420000000 1.0
C      1  0.6426960000000  0.4485100000000  0.6681710000000 1.0
C      1  0.7124690000000  0.4833300000000  0.4083430000000 1.0
C      1  0.4827930000000  0.4448330000000  0.2836850000000 1.0
C      1  0.2692820000000  0.4748120000000  0.4499240000000 1.0
C      1  0.5979000000000  0.5371820000000  0.4497680000000 1.0
C      1  0.4799790000000  0.5307460000000  0.3888750000000 1.0
C      1  0.3874040000000  0.5253840000000  0.4844400000000 1.0
C      1  0.4467520000000  0.5411240000000  0.6084840000000 1.0
C      1  0.5769070000000  0.5286740000000  0.5845410000000 1.0
C      1  0.4043530000000  0.6053010000000  0.3503240000000 1.0
C      1  0.3190880000000  0.5888210000000  0.5366980000000 1.0
C      1  0.5013170000000  0.6005220000000  0.6883590000000 1.0
C      1  0.6591820000000  0.6015470000000  0.5804280000000 1.0
C      1  0.5996490000000  0.6025580000000  0.3569070000000 1.0
C      1  0.3874340000000  0.4186270000000  0.4614180000000 1.0
C      1  0.4309750000000  0.4353460000000  0.5960280000000 1.0
C      1  0.5708290000000  0.4250980000000  0.5592890000000 1.0
C      1  0.6077910000000  0.4249250000000  0.4636690000000 1.0
C      1  0.5165420000000  0.4279370000000  0.4105740000000 1.0
C      1  0.3358540000000  0.5215720000000  0.6261210000000 1.0
C      1  0.5442600000000  0.5004740000000  0.6896780000000 1.0
C      1  0.6896720000000  0.5161320000000  0.5146810000000 1.0
C      1  0.5660340000000  0.5082280000000  0.3168450000000 1.0
C      1  0.3482360000000  0.5143160000000  0.3783780000000 1.0
C      1  0.4463030000000  0.2826340000000  0.6310690000000 1.0
C      1  0.5842740000000  0.2944480000000  0.5377480000000 1.0
C      1  0.6315300000000  0.2967830000000  0.4367920000000 1.0
C      1  0.4582640000000  0.2786620000000  0.4066530000000 1.0
C      1  0.3572000000000  0.2978050000000  0.5078230000000 1.0
C      1  0.3506320000000  0.6534030000000  0.6158760000000 1.0
C      1  0.5783160000000  0.6659960000000  0.7033330000000 1.0
C      1  0.6982670000000  0.6470750000000  0.4925410000000 1.0
C      1  0.5443210000000  0.6774380000000  0.3159370000000 1.0
C      1  0.3093850000000  0.6415260000000  0.3853840000000 1.0
C      1  0.3909270000000  0.4378570000000  0.3259440000000 1.0
C      1  0.2938640000000  0.4551400000000  0.5498290000000 1.0
C      1  0.4766360000000  0.4296950000000  0.7203660000000 1.0
C      1  0.7001490000000  0.4380370000000  0.5855390000000 1.0
C      1  0.6440420000000  0.4426370000000  0.3374800000000 1.0
C      1  0.4711730000000  0.2853900000000  0.5197970000000 1.0
C      1  0.4966320000000  0.5571250000000  0.5038110000000 1.0
C      1  0.4952500000000  0.7513840000000  0.4993270000000 1.0
C      1  0.4788000000000  0.3973010000000  0.5109240000000 1.0
C      1  0.4951810000000  0.6663370000000  0.5009910000000 1.0
END
