TITL C-986972-3822-107 -2.28311165108621e-07 3375 -345.572522537212 0 0 60 (C4) n - 1
REM
REM in /home/bkarasulu/work/CARBON/AIRSS/Generating-Clusters/REBO/Higher-Symm/Only-C60
REM
REM
REM
REM
REM
REM ./C.cell (a2850807a9bf4ad07a5b6933b78d9264)
REM AIRSS Version 0.9.1 bugfix July 2018 build 013d7b7c2542+ Fri, 06 Jul 2018 19:26:36 +0100
REM compiler GCC version 9.2.1 20190827 (Red Hat 9.2.1-1)
REM options -cpp -mtune=generic -march=x86-64 -g -O0 -fpre-include=/usr/include/finclude/math-vector-fortran.h
REM seed -257309388 2014989527 -1522586228 1125811652 2035340243 -368916656 -19005157 -1773810747 -2018982697 1494344587 -210442075 -447861673 -1688170471 -666852839 533876202 240708202 -80520222 -588647570 13694758 1514006365 913547602 -1742758896 -409234374 -1755824049 -1137090838 1580977688 755117845 1100789040 -378336008 919332154 1633420088 -1829984686 1777877908
REM
CELL 1.54180   15.00000   15.00000   15.00000   90.00000   90.00000   90.00000
LATT -1
SFAC C  
C      1  0.2341170000000  0.5906670000000  0.4651080000000 1.0
C      1  0.5906720000000  0.7659040000000  0.4652700000000 1.0
C      1  0.7659080000000  0.4093490000000  0.4652510000000 1.0
C      1  0.4093530000000  0.2341120000000  0.4650910000000 1.0
C      1  0.7207630000000  0.5741680000000  0.4376090000000 1.0
C      1  0.4258690000000  0.7207560000000  0.4375400000000 1.0
C      1  0.2792820000000  0.4258600000000  0.4374240000000 1.0
C      1  0.5741760000000  0.2792720000000  0.4374940000000 1.0
C      1  0.5894950000000  0.6800640000000  0.6125030000000 1.0
C      1  0.6800500000000  0.4104430000000  0.6124740000000 1.0
C      1  0.4104290000000  0.3198880000000  0.6123620000000 1.0
C      1  0.3198740000000  0.5895080000000  0.6123900000000 1.0
C      1  0.3811080000000  0.6860190000000  0.6057540000000 1.0
C      1  0.3139220000000  0.3811210000000  0.6056640000000 1.0
C      1  0.6188200000000  0.3139350000000  0.6057540000000 1.0
C      1  0.6860060000000  0.6188340000000  0.6058440000000 1.0
C      1  0.7353040000000  0.5528390000000  0.5343890000000 1.0
C      1  0.5528340000000  0.2646770000000  0.5342630000000 1.0
C      1  0.2646730000000  0.4471470000000  0.5342040000000 1.0
C      1  0.4471430000000  0.7353090000000  0.5343310000000 1.0
C      1  0.2518930000000  0.5419730000000  0.5459650000000 1.0
C      1  0.4580020000000  0.2518980000000  0.5459730000000 1.0
C      1  0.7480770000000  0.4580080000000  0.5461180000000 1.0
C      1  0.5419680000000  0.7480830000000  0.5461110000000 1.0
C      1  0.4353930000000  0.3732310000000  0.3467460000000 1.0
C      1  0.3732520000000  0.5646950000000  0.3467670000000 1.0
C      1  0.5647150000000  0.6268370000000  0.3468470000000 1.0
C      1  0.6268550000000  0.4353730000000  0.3468250000000 1.0
C      1  0.5496320000000  0.3790440000000  0.3434130000000 1.0
C      1  0.6210440000000  0.5496120000000  0.3434740000000 1.0
C      1  0.4504780000000  0.6210260000000  0.3434320000000 1.0
C      1  0.3790650000000  0.4504580000000  0.3433690000000 1.0
C      1  0.4215090000000  0.2639310000000  0.3755830000000 1.0
C      1  0.2639480000000  0.5785620000000  0.3755980000000 1.0
C      1  0.5785780000000  0.7361250000000  0.3757420000000 1.0
C      1  0.7361390000000  0.4214930000000  0.3757260000000 1.0
C      1  0.5192230000000  0.2696990000000  0.3460760000000 1.0
C      1  0.7303880000000  0.5192040000000  0.3462030000000 1.0
C      1  0.4808840000000  0.7303690000000  0.3461640000000 1.0
C      1  0.2697200000000  0.4808640000000  0.3460360000000 1.0
C      1  0.6013890000000  0.5557020000000  0.5692480000000 1.0
C      1  0.5556930000000  0.3985730000000  0.5691980000000 1.0
C      1  0.3985650000000  0.4442680000000  0.5691540000000 1.0
C      1  0.4442600000000  0.6013970000000  0.5692040000000 1.0
C      1  0.3833140000000  0.5306920000000  0.5308610000000 1.0
C      1  0.4692920000000  0.3833170000000  0.5308580000000 1.0
C      1  0.6166660000000  0.4692950000000  0.5309280000000 1.0
C      1  0.5306880000000  0.6166700000000  0.5309310000000 1.0
C      1  0.4678370000000  0.3649940000000  0.6991770000000 1.0
C      1  0.3649690000000  0.5320520000000  0.6991780000000 1.0
C      1  0.5320280000000  0.6349190000000  0.6992580000000 1.0
C      1  0.6348950000000  0.4678610000000  0.6992570000000 1.0
C      1  0.5665250000000  0.3854190000000  0.6776030000000 1.0
C      1  0.6144820000000  0.5665460000000  0.6776590000000 1.0
C      1  0.4333550000000  0.6145030000000  0.6776070000000 1.0
C      1  0.3853970000000  0.4333770000000  0.6775510000000 1.0
C      1  0.4905470000000  0.3573720000000  0.4409270000000 1.0
C      1  0.3573810000000  0.5094880000000  0.4409150000000 1.0
C      1  0.5094950000000  0.6426540000000  0.4409970000000 1.0
C      1  0.6426610000000  0.4905390000000  0.4410090000000 1.0
END
