TITL C-986975-4297-251 -8.13231220551825e-08 3375 -345.687708117303 0 0 60 (C1) n - 1
REM
REM in /home/bkarasulu/work/CARBON/AIRSS/Generating-Clusters/REBO/Higher-Symm/Only-C60
REM
REM
REM
REM
REM
REM ./C.cell (a2850807a9bf4ad07a5b6933b78d9264)
REM AIRSS Version 0.9.1 bugfix July 2018 build 013d7b7c2542+ Fri, 06 Jul 2018 19:26:36 +0100
REM compiler GCC version 9.2.1 20190827 (Red Hat 9.2.1-1)
REM options -cpp -mtune=generic -march=x86-64 -g -O0 -fpre-include=/usr/include/finclude/math-vector-fortran.h
REM seed 593602534 663074419 -1736360119 -2135287987 730001846 1019067840 892878933 757997003 2017139695 -188068485 -1993963204 -250988430 171487733 -1079036744 930141258 -665892587 -947185756 35722313 -18367276 -1726749340 887424179 1950772295 977343365 1185525564 1591075325 -901614775 347895868 1017765004 -2108961083 -2138253588 -290191898 1030148217 -1657161873
REM
CELL 1.54180   15.00000   15.00000   15.00000   90.00000   90.00000   90.00000
LATT -1
SFAC C  
C      1  0.6518190000000  0.3864180000000  0.3272050000000 1.0
C      1  0.5792810000000  0.4032420000000  0.4119650000000 1.0
C      1  0.6647030000000  0.6341630000000  0.4738710000000 1.0
C      1  0.5798210000000  0.5394540000000  0.2824720000000 1.0
C      1  0.4522200000000  0.6615120000000  0.7030110000000 1.0
C      1  0.3995910000000  0.4656740000000  0.7209020000000 1.0
C      1  0.5663030000000  0.2718080000000  0.6436510000000 1.0
C      1  0.3449000000000  0.5647380000000  0.3084790000000 1.0
C      1  0.7222790000000  0.5845630000000  0.4136010000000 1.0
C      1  0.3305150000000  0.5337210000000  0.6873700000000 1.0
C      1  0.2677560000000  0.4067360000000  0.4215030000000 1.0
C      1  0.2734010000000  0.5339980000000  0.5901520000000 1.0
C      1  0.4020560000000  0.4897240000000  0.4020430000000 1.0
C      1  0.3659620000000  0.6290940000000  0.6914150000000 1.0
C      1  0.4781890000000  0.7026070000000  0.5034460000000 1.0
C      1  0.4906740000000  0.3667720000000  0.4594170000000 1.0
C      1  0.5343950000000  0.6000530000000  0.2054580000000 1.0
C      1  0.6897610000000  0.3301190000000  0.4182180000000 1.0
C      1  0.4417500000000  0.5192390000000  0.4825990000000 1.0
C      1  0.4333270000000  0.4807210000000  0.6161600000000 1.0
C      1  0.6027730000000  0.6303310000000  0.3769690000000 1.0
C      1  0.5859010000000  0.3418960000000  0.7033570000000 1.0
C      1  0.5495010000000  0.6951240000000  0.4499300000000 1.0
C      1  0.3165060000000  0.3276560000000  0.4136670000000 1.0
C      1  0.5082420000000  0.6200830000000  0.3142340000000 1.0
C      1  0.2970530000000  0.5077670000000  0.3917110000000 1.0
C      1  0.5086720000000  0.5450610000000  0.6071280000000 1.0
C      1  0.5885590000000  0.6834900000000  0.6062270000000 1.0
C      1  0.7094110000000  0.5816330000000  0.6231130000000 1.0
C      1  0.3768900000000  0.4088570000000  0.5489140000000 1.0
C      1  0.4097740000000  0.7654250000000  0.5360680000000 1.0
C      1  0.6169350000000  0.4564300000000  0.5058680000000 1.0
C      1  0.2934280000000  0.4584840000000  0.5148870000000 1.0
C      1  0.4353040000000  0.3687150000000  0.6375580000000 1.0
C      1  0.7209830000000  0.4637740000000  0.3013520000000 1.0
C      1  0.6755480000000  0.5667140000000  0.3150790000000 1.0
C      1  0.3237310000000  0.7222780000000  0.5463470000000 1.0
C      1  0.5026730000000  0.4186800000000  0.7141310000000 1.0
C      1  0.6632190000000  0.6417410000000  0.5659230000000 1.0
C      1  0.3969370000000  0.3236400000000  0.4781130000000 1.0
C      1  0.4543370000000  0.4460770000000  0.3421510000000 1.0
C      1  0.6189420000000  0.2365150000000  0.5686300000000 1.0
C      1  0.4745540000000  0.2797830000000  0.6142050000000 1.0
C      1  0.5568630000000  0.4476440000000  0.3125910000000 1.0
C      1  0.6948210000000  0.5134860000000  0.6813570000000 1.0
C      1  0.4110360000000  0.6236180000000  0.3353100000000 1.0
C      1  0.5158470000000  0.6340670000000  0.6392640000000 1.0
C      1  0.3370580000000  0.6228840000000  0.5893260000000 1.0
C      1  0.5922260000000  0.4978580000000  0.5983720000000 1.0
C      1  0.6472880000000  0.2638620000000  0.4663650000000 1.0
C      1  0.7030910000000  0.4225000000000  0.4569070000000 1.0
C      1  0.7420270000000  0.4874610000000  0.3988370000000 1.0
C      1  0.5055300000000  0.4574020000000  0.5069450000000 1.0
C      1  0.3015880000000  0.6630610000000  0.4676240000000 1.0
C      1  0.3872450000000  0.6648180000000  0.4143200000000 1.0
C      1  0.5465490000000  0.2252140000000  0.4870910000000 1.0
C      1  0.4615630000000  0.2539630000000  0.5235960000000 1.0
C      1  0.6103190000000  0.4474130000000  0.6898020000000 1.0
C      1  0.4163270000000  0.6128780000000  0.5125040000000 1.0
C      1  0.2720450000000  0.5673650000000  0.4812910000000 1.0
END
