TITL C-986978-6805-211 9.88063601326034e-07 3375 -367.499085330187 0 0 60 (C2) n - 1
REM
REM in /home/bkarasulu/work/CARBON/AIRSS/Generating-Clusters/REBO/Higher-Symm/Only-C60
REM
REM
REM
REM
REM
REM ./C.cell (a2850807a9bf4ad07a5b6933b78d9264)
REM AIRSS Version 0.9.1 bugfix July 2018 build 013d7b7c2542+ Fri, 06 Jul 2018 19:26:36 +0100
REM compiler GCC version 9.2.1 20190827 (Red Hat 9.2.1-1)
REM options -cpp -mtune=generic -march=x86-64 -g -O0 -fpre-include=/usr/include/finclude/math-vector-fortran.h
REM seed -2063617922 -2121860732 -1570722564 -1233736581 403943226 -1274436218 -1194604310 292919119 -1762276032 1077430824 2057911979 212926387 -73778993 -177123028 306203954 -91493299 1772113462 1910905716 2093950042 630009538 -774328128 -1544600396 581757286 1652936718 -2041227918 -2089629417 -116025348 1205180860 1983320012 105318272 1225181648 689783800 1104561661
REM
CELL 1.54180   15.00000   15.00000   15.00000   90.00000   90.00000   90.00000
LATT -1
SFAC C  
C      1  0.3318020000000  0.2873150000000  0.5460040000000 1.0
C      1  0.3675290000000  0.3897680000000  0.3243160000000 1.0
C      1  0.3735680000000  0.6353280000000  0.3532260000000 1.0
C      1  0.3407520000000  0.6850650000000  0.5921980000000 1.0
C      1  0.3119630000000  0.4702850000000  0.7115460000000 1.0
C      1  0.6681990000000  0.7126850000000  0.5460020000000 1.0
C      1  0.6324690000000  0.6102330000000  0.3243150000000 1.0
C      1  0.6264300000000  0.3646720000000  0.3532240000000 1.0
C      1  0.6592490000000  0.3149350000000  0.5921950000000 1.0
C      1  0.6880390000000  0.5297140000000  0.7115440000000 1.0
C      1  0.6793500000000  0.3168950000000  0.4993720000000 1.0
C      1  0.6610510000000  0.4486730000000  0.3252140000000 1.0
C      1  0.6765690000000  0.6573450000000  0.3937700000000 1.0
C      1  0.7110370000000  0.6558810000000  0.6092600000000 1.0
C      1  0.7142230000000  0.4446540000000  0.6777330000000 1.0
C      1  0.3206500000000  0.6831050000000  0.4993740000000 1.0
C      1  0.3389470000000  0.5513270000000  0.3252160000000 1.0
C      1  0.3234290000000  0.3426550000000  0.3937720000000 1.0
C      1  0.2889640000000  0.3441190000000  0.6092630000000 1.0
C      1  0.2857790000000  0.5553460000000  0.6777360000000 1.0
C      1  0.5476970000000  0.4205050000000  0.4887130000000 1.0
C      1  0.5514650000000  0.5150900000000  0.4279560000000 1.0
C      1  0.5602250000000  0.5973450000000  0.4984820000000 1.0
C      1  0.5912250000000  0.5502910000000  0.5854550000000 1.0
C      1  0.5856930000000  0.4563680000000  0.5800710000000 1.0
C      1  0.4523030000000  0.5794950000000  0.4887140000000 1.0
C      1  0.4485340000000  0.4849100000000  0.4279560000000 1.0
C      1  0.4397740000000  0.4026550000000  0.4984830000000 1.0
C      1  0.4087760000000  0.4497090000000  0.5854560000000 1.0
C      1  0.4143080000000  0.5436320000000  0.5800720000000 1.0
C      1  0.8310700000000  0.5943980000000  0.4865870000000 1.0
C      1  0.8406240000000  0.5230310000000  0.5714490000000 1.0
C      1  0.8297940000000  0.4196470000000  0.5307750000000 1.0
C      1  0.8144710000000  0.4273460000000  0.4210470000000 1.0
C      1  0.8143120000000  0.5354320000000  0.3937350000000 1.0
C      1  0.1689300000000  0.4056020000000  0.4865920000000 1.0
C      1  0.1593770000000  0.4769690000000  0.5714530000000 1.0
C      1  0.1702070000000  0.5803520000000  0.5307790000000 1.0
C      1  0.1855270000000  0.5726540000000  0.4210510000000 1.0
C      1  0.1856860000000  0.4645680000000  0.3937390000000 1.0
C      1  0.3479410000000  0.4103270000000  0.6471930000000 1.0
C      1  0.3756660000000  0.3281060000000  0.4726030000000 1.0
C      1  0.3952890000000  0.4774100000000  0.3441010000000 1.0
C      1  0.3918120000000  0.6500330000000  0.4448130000000 1.0
C      1  0.3577950000000  0.6005470000000  0.6314790000000 1.0
C      1  0.6520610000000  0.5896730000000  0.6471910000000 1.0
C      1  0.6243340000000  0.6718940000000  0.4726020000000 1.0
C      1  0.6047090000000  0.5225910000000  0.3441000000000 1.0
C      1  0.6081870000000  0.3499670000000  0.4448110000000 1.0
C      1  0.6422070000000  0.3994530000000  0.6314770000000 1.0
C      1  0.7525930000000  0.4629010000000  0.3370980000000 1.0
C      1  0.7661200000000  0.6343840000000  0.4066900000000 1.0
C      1  0.7963360000000  0.6239280000000  0.5870570000000 1.0
C      1  0.7971230000000  0.4425270000000  0.6340270000000 1.0
C      1  0.7654410000000  0.3461650000000  0.4780120000000 1.0
C      1  0.2474050000000  0.5370990000000  0.3371020000000 1.0
C      1  0.2338790000000  0.3656160000000  0.4066930000000 1.0
C      1  0.2036650000000  0.3760720000000  0.5870610000000 1.0
C      1  0.2028790000000  0.5574730000000  0.6340310000000 1.0
C      1  0.2345590000000  0.6538350000000  0.4780150000000 1.0
END
