TITL C-986979-5873-228 1.69207192554348e-05 3375 -343.583724617822 0 0 60 (Th) n - 1
REM
REM in /home/bkarasulu/work/CARBON/AIRSS/Generating-Clusters/REBO/Higher-Symm/Only-C60
REM
REM
REM
REM
REM
REM ./C.cell (a2850807a9bf4ad07a5b6933b78d9264)
REM AIRSS Version 0.9.1 bugfix July 2018 build 013d7b7c2542+ Fri, 06 Jul 2018 19:26:36 +0100
REM compiler GCC version 9.2.1 20190827 (Red Hat 9.2.1-1)
REM options -cpp -mtune=generic -march=x86-64 -g -O0 -fpre-include=/usr/include/finclude/math-vector-fortran.h
REM seed 1470911004 1672851427 -78983163 46389416 1451543063 1355446696 1566198667 224982885 991524124 1638538322 -614183691 931949616 -2003823534 2044023629 -437292143 -1100150390 2000243526 591454606 -1783692289 1370811354 -1010050113 268860140 -1040540836 -2142087742 2040781100 -73384477 -1134393435 -1914768903 28389602 -1080396730 1410882118 1435688418 1966514257
REM
CELL 1.54180   15.00000   15.00000   15.00000   90.00000   90.00000   90.00000
LATT -1
SFAC C  
C      1  0.4153180000000  0.3575710000000  0.5533290000000 1.0
C      1  0.3575710000000  0.5533290000000  0.4153180000000 1.0
C      1  0.5533290000000  0.4153180000000  0.3575710000000 1.0
C      1  0.5846820000000  0.3575710000000  0.4466710000000 1.0
C      1  0.5846820000000  0.6424290000000  0.5533290000000 1.0
C      1  0.4153180000000  0.6424290000000  0.4466710000000 1.0
C      1  0.6424290000000  0.5533290000000  0.5846820000000 1.0
C      1  0.6424290000000  0.4466710000000  0.4153180000000 1.0
C      1  0.3575710000000  0.4466710000000  0.5846820000000 1.0
C      1  0.4466710000000  0.4153180000000  0.6424290000000 1.0
C      1  0.4466710000000  0.5846820000000  0.3575710000000 1.0
C      1  0.5533290000000  0.5846820000000  0.6424290000000 1.0
C      1  0.4153180000000  0.6424290000000  0.5533290000000 1.0
C      1  0.3575710000000  0.4466710000000  0.4153180000000 1.0
C      1  0.5533290000000  0.5846820000000  0.3575710000000 1.0
C      1  0.5846820000000  0.6424290000000  0.4466710000000 1.0
C      1  0.5846820000000  0.3575710000000  0.5533290000000 1.0
C      1  0.4153180000000  0.3575710000000  0.4466710000000 1.0
C      1  0.6424290000000  0.4466710000000  0.5846820000000 1.0
C      1  0.6424290000000  0.5533290000000  0.4153180000000 1.0
C      1  0.3575710000000  0.5533290000000  0.5846820000000 1.0
C      1  0.4466710000000  0.5846820000000  0.6424290000000 1.0
C      1  0.4466710000000  0.4153180000000  0.3575710000000 1.0
C      1  0.5533290000000  0.4153180000000  0.6424290000000 1.0
C      1  0.5665760000000  0.5476170000000  0.7382810000000 1.0
C      1  0.5476170000000  0.7382810000000  0.5665760000000 1.0
C      1  0.7382810000000  0.5665760000000  0.5476170000000 1.0
C      1  0.4334240000000  0.5476170000000  0.2617190000000 1.0
C      1  0.4334240000000  0.4523830000000  0.7382810000000 1.0
C      1  0.5665760000000  0.4523830000000  0.2617190000000 1.0
C      1  0.4523830000000  0.7382810000000  0.4334240000000 1.0
C      1  0.4523830000000  0.2617190000000  0.5665760000000 1.0
C      1  0.5476170000000  0.2617190000000  0.4334240000000 1.0
C      1  0.2617190000000  0.5665760000000  0.4523830000000 1.0
C      1  0.2617190000000  0.4334240000000  0.5476170000000 1.0
C      1  0.7382810000000  0.4334240000000  0.4523830000000 1.0
C      1  0.5665760000000  0.4523830000000  0.7382810000000 1.0
C      1  0.5476170000000  0.2617190000000  0.5665760000000 1.0
C      1  0.7382810000000  0.4334240000000  0.5476170000000 1.0
C      1  0.4334240000000  0.4523830000000  0.2617190000000 1.0
C      1  0.4334240000000  0.5476170000000  0.7382810000000 1.0
C      1  0.5665760000000  0.5476170000000  0.2617190000000 1.0
C      1  0.4523830000000  0.2617190000000  0.4334240000000 1.0
C      1  0.4523830000000  0.7382810000000  0.5665760000000 1.0
C      1  0.5476170000000  0.7382810000000  0.4334240000000 1.0
C      1  0.2617190000000  0.4334240000000  0.4523830000000 1.0
C      1  0.2617190000000  0.5665760000000  0.5476170000000 1.0
C      1  0.7382810000000  0.5665760000000  0.4523830000000 1.0
C      1  0.1964690000000  0.5000000000000  0.5897310000000 1.0
C      1  0.8035310000000  0.5000000000000  0.4102690000000 1.0
C      1  0.5897310000000  0.1964690000000  0.5000000000000 1.0
C      1  0.4102690000000  0.8035310000000  0.5000000000000 1.0
C      1  0.8035310000000  0.5000000000000  0.5897310000000 1.0
C      1  0.5000000000000  0.5897310000000  0.8035310000000 1.0
C      1  0.1964690000000  0.5000000000000  0.4102690000000 1.0
C      1  0.5000000000000  0.5897310000000  0.1964690000000 1.0
C      1  0.5000000000000  0.4102690000000  0.8035310000000 1.0
C      1  0.5000000000000  0.4102690000000  0.1964690000000 1.0
C      1  0.4102690000000  0.1964690000000  0.5000000000000 1.0
C      1  0.5897310000000  0.8035310000000  0.5000000000000 1.0
END
