TITL C-986976-6631-1092 4.39255051759276e-06 3375 -340.057105566674 0 0 60 (C1) n - 1
REM
REM in /home/bkarasulu/work/CARBON/AIRSS/Generating-Clusters/REBO/Higher-Symm/Only-C60
REM
REM
REM
REM
REM
REM ./C.cell (a2850807a9bf4ad07a5b6933b78d9264)
REM AIRSS Version 0.9.1 bugfix July 2018 build 013d7b7c2542+ Fri, 06 Jul 2018 19:26:36 +0100
REM compiler GCC version 9.2.1 20190827 (Red Hat 9.2.1-1)
REM options -cpp -mtune=generic -march=x86-64 -g -O0 -fpre-include=/usr/include/finclude/math-vector-fortran.h
REM seed 192835044 73170427 -597687242 1274554248 37861051 -405124010 21051047 -70808920 246959767 923221399 -2144006414 -845786750 1954981543 291393201 -1479128230 -251569839 -1774243764 627632323 149965936 -1781590034 1894722248 1581511571 1939277758 703032628 1281748266 1284065627 1111884392 -1651685051 1870534726 1223637840 -2011181407 -61812522 1785866041
REM
CELL 1.54180   15.00000   15.00000   15.00000   90.00000   90.00000   90.00000
LATT -1
SFAC C  
C      1  0.4534250000000  0.3411530000000  0.3150810000000 1.0
C      1  0.6601780000000  0.5446800000000  0.4389770000000 1.0
C      1  0.4226520000000  0.2951830000000  0.5029300000000 1.0
C      1  0.6971090000000  0.4232020000000  0.3100530000000 1.0
C      1  0.5971210000000  0.6165490000000  0.4800230000000 1.0
C      1  0.3968700000000  0.5181210000000  0.3586720000000 1.0
C      1  0.5801260000000  0.2589280000000  0.4803440000000 1.0
C      1  0.5855510000000  0.5732520000000  0.7777170000000 1.0
C      1  0.5016410000000  0.2918920000000  0.6361090000000 1.0
C      1  0.5820230000000  0.4869760000000  0.4921280000000 1.0
C      1  0.5619340000000  0.7885830000000  0.5046340000000 1.0
C      1  0.5222310000000  0.5132520000000  0.4015640000000 1.0
C      1  0.6968010000000  0.5765840000000  0.5719710000000 1.0
C      1  0.4444740000000  0.6756570000000  0.6104900000000 1.0
C      1  0.5057100000000  0.2646960000000  0.5444710000000 1.0
C      1  0.6205540000000  0.3097820000000  0.4140010000000 1.0
C      1  0.5458750000000  0.4859130000000  0.7307480000000 1.0
C      1  0.7142450000000  0.4903930000000  0.3891620000000 1.0
C      1  0.5597110000000  0.4692650000000  0.2297200000000 1.0
C      1  0.4191490000000  0.7150620000000  0.5194590000000 1.0
C      1  0.3219800000000  0.5772450000000  0.3531590000000 1.0
C      1  0.5531350000000  0.6844880000000  0.6429520000000 1.0
C      1  0.4759570000000  0.5090670000000  0.2773900000000 1.0
C      1  0.5128680000000  0.5998840000000  0.3345550000000 1.0
C      1  0.3308290000000  0.4359280000000  0.6493550000000 1.0
C      1  0.4315190000000  0.5043950000000  0.4658050000000 1.0
C      1  0.3599440000000  0.5619090000000  0.5151170000000 1.0
C      1  0.6137620000000  0.4068450000000  0.2693150000000 1.0
C      1  0.5550000000000  0.6548760000000  0.7496040000000 1.0
C      1  0.7239310000000  0.4943090000000  0.5446880000000 1.0
C      1  0.2875920000000  0.4137450000000  0.5480500000000 1.0
C      1  0.4956770000000  0.5674380000000  0.6689270000000 1.0
C      1  0.3381680000000  0.6908880000000  0.4864700000000 1.0
C      1  0.6516030000000  0.6528720000000  0.5957790000000 1.0
C      1  0.2627970000000  0.5115910000000  0.5043060000000 1.0
C      1  0.5553870000000  0.5640660000000  0.5717890000000 1.0
C      1  0.2735440000000  0.4194090000000  0.4268750000000 1.0
C      1  0.4683300000000  0.4475040000000  0.5465020000000 1.0
C      1  0.3654000000000  0.3422460000000  0.5621810000000 1.0
C      1  0.6101280000000  0.7495200000000  0.5748410000000 1.0
C      1  0.5303640000000  0.6646280000000  0.2562690000000 1.0
C      1  0.5145270000000  0.3870510000000  0.6908460000000 1.0
C      1  0.4274640000000  0.4894370000000  0.6306410000000 1.0
C      1  0.3784630000000  0.5920020000000  0.6117750000000 1.0
C      1  0.4946960000000  0.7338610000000  0.4633420000000 1.0
C      1  0.4111830000000  0.3566890000000  0.6613270000000 1.0
C      1  0.4371000000000  0.3188160000000  0.4140630000000 1.0
C      1  0.5179580000000  0.4005660000000  0.4137480000000 1.0
C      1  0.7075670000000  0.3792410000000  0.4144980000000 1.0
C      1  0.5571590000000  0.4616780000000  0.6205870000000 1.0
C      1  0.3094780000000  0.4178940000000  0.3511880000000 1.0
C      1  0.4514460000000  0.6556930000000  0.7213360000000 1.0
C      1  0.3119940000000  0.5375810000000  0.6725620000000 1.0
C      1  0.2855270000000  0.6061690000000  0.4460490000000 1.0
C      1  0.5547890000000  0.3847640000000  0.5143260000000 1.0
C      1  0.6437770000000  0.3569470000000  0.5576910000000 1.0
C      1  0.7137340000000  0.4038880000000  0.5175430000000 1.0
C      1  0.5334000000000  0.6561390000000  0.4228830000000 1.0
C      1  0.5620450000000  0.3440650000000  0.3278320000000 1.0
C      1  0.4023980000000  0.4255440000000  0.2955800000000 1.0
END
