TITL C-986976-6631-771 -0.0113963813295925 3375 -349.734477686098 0 0 60 (C1) n - 1
REM
REM in /home/bkarasulu/work/CARBON/AIRSS/Generating-Clusters/REBO/Higher-Symm/Only-C60
REM
REM
REM
REM
REM
REM ./C.cell (a2850807a9bf4ad07a5b6933b78d9264)
REM AIRSS Version 0.9.1 bugfix July 2018 build 013d7b7c2542+ Fri, 06 Jul 2018 19:26:36 +0100
REM compiler GCC version 9.2.1 20190827 (Red Hat 9.2.1-1)
REM options -cpp -mtune=generic -march=x86-64 -g -O0 -fpre-include=/usr/include/finclude/math-vector-fortran.h
REM seed 1823235087 -236238627 1003483188 -648872521 -914473740 352993074 -1798981307 879531605 -1963294130 904737452 430597045 -947906956 1242305201 -1567251832 219097448 -1061173230 354062783 1126396547 1854735345 253737227 -1486971497 -362758211 1636323714 -1453323442 -763186707 -1707786895 1466396292 1207788781 1767151812 982182956 -805795030 -1369653086 2069528303
REM
CELL 1.54180   15.00000   15.00000   15.00000   90.00000   90.00000   90.00000
LATT -1
SFAC C  
C      1  0.3976970000000  0.4666300000000  0.5642990000000 1.0
C      1  0.4245040000000  0.5944500000000  0.5387490000000 1.0
C      1  0.5549040000000  0.5823220000000  0.5145950000000 1.0
C      1  0.6118480000000  0.4631320000000  0.5321330000000 1.0
C      1  0.5048120000000  0.3877220000000  0.5561050000000 1.0
C      1  0.4004760000000  0.4690090000000  0.4833730000000 1.0
C      1  0.4282270000000  0.5965330000000  0.4575460000000 1.0
C      1  0.5588290000000  0.5875260000000  0.4338910000000 1.0
C      1  0.6120340000000  0.4666530000000  0.4508620000000 1.0
C      1  0.5067590000000  0.3889300000000  0.4750380000000 1.0
C      1  0.5673160000000  0.2740260000000  0.5855680000000 1.0
C      1  0.3093770000000  0.3687890000000  0.5834890000000 1.0
C      1  0.3105150000000  0.6458010000000  0.5847520000000 1.0
C      1  0.5784740000000  0.7219130000000  0.5899270000000 1.0
C      1  0.7355530000000  0.4933640000000  0.5885250000000 1.0
C      1  0.5676530000000  0.2723150000000  0.4116850000000 1.0
C      1  0.3060530000000  0.3667360000000  0.4089960000000 1.0
C      1  0.3123750000000  0.6451800000000  0.4131290000000 1.0
C      1  0.5764480000000  0.7181730000000  0.4149470000000 1.0
C      1  0.7380790000000  0.4924360000000  0.4164330000000 1.0
C      1  0.2724720000000  0.5640260000000  0.4501970000000 1.0
C      1  0.4895350000000  0.7354880000000  0.4537630000000 1.0
C      1  0.7203450000000  0.5810000000000  0.4544770000000 1.0
C      1  0.6475860000000  0.3140290000000  0.4509810000000 1.0
C      1  0.3698210000000  0.3032280000000  0.4485300000000 1.0
C      1  0.2724910000000  0.5638010000000  0.5463100000000 1.0
C      1  0.4894810000000  0.7362410000000  0.5498840000000 1.0
C      1  0.7216200000000  0.5820400000000  0.5504660000000 1.0
C      1  0.6468600000000  0.3146360000000  0.5470510000000 1.0
C      1  0.3709420000000  0.3049210000000  0.5445600000000 1.0
C      1  0.4258920000000  0.4773380000000  0.3793040000000 1.0
C      1  0.4517330000000  0.5720220000000  0.3494160000000 1.0
C      1  0.5505030000000  0.5737430000000  0.3214870000000 1.0
C      1  0.5861880000000  0.4801270000000  0.3412250000000 1.0
C      1  0.5085730000000  0.4201280000000  0.3695130000000 1.0
C      1  0.4155090000000  0.4689190000000  0.6764320000000 1.0
C      1  0.4427480000000  0.5630430000000  0.6458390000000 1.0
C      1  0.5414280000000  0.5637850000000  0.6187940000000 1.0
C      1  0.5762940000000  0.4705010000000  0.6382780000000 1.0
C      1  0.4982190000000  0.4109750000000  0.6665970000000 1.0
C      1  0.3394930000000  0.4415010000000  0.3418630000000 1.0
C      1  0.3861890000000  0.6486490000000  0.3379130000000 1.0
C      1  0.6064060000000  0.6589680000000  0.3318830000000 1.0
C      1  0.6832150000000  0.4503640000000  0.3365080000000 1.0
C      1  0.5092390000000  0.3236260000000  0.3396930000000 1.0
C      1  0.3199510000000  0.4332690000000  0.6672220000000 1.0
C      1  0.3832430000000  0.6436640000000  0.6611970000000 1.0
C      1  0.5940000000000  0.6406380000000  0.6562070000000 1.0
C      1  0.6727000000000  0.4486790000000  0.6606160000000 1.0
C      1  0.5060970000000  0.3093970000000  0.6647580000000 1.0
C      1  0.7063920000000  0.3824470000000  0.5855460000000 1.0
C      1  0.4527450000000  0.2682070000000  0.5831630000000 1.0
C      1  0.2665650000000  0.4749530000000  0.5851790000000 1.0
C      1  0.4013210000000  0.7164090000000  0.5871330000000 1.0
C      1  0.6744240000000  0.6588470000000  0.5900290000000 1.0
C      1  0.7072760000000  0.3816190000000  0.4132240000000 1.0
C      1  0.4529640000000  0.2682750000000  0.4100560000000 1.0
C      1  0.2652550000000  0.4740420000000  0.4102920000000 1.0
C      1  0.4003290000000  0.7195530000000  0.4150110000000 1.0
C      1  0.6720260000000  0.6552580000000  0.4153570000000 1.0
END
