TITL C-986973-6940-311 -3.89347637465939e-06 3375 -352.326993454935 0 0 60 (C2) n - 1
REM
REM in /home/bkarasulu/work/CARBON/AIRSS/Generating-Clusters/REBO/Higher-Symm/Only-C60
REM
REM
REM
REM
REM
REM ./C.cell (a2850807a9bf4ad07a5b6933b78d9264)
REM AIRSS Version 0.9.1 bugfix July 2018 build 013d7b7c2542+ Fri, 06 Jul 2018 19:26:36 +0100
REM compiler GCC version 9.2.1 20190827 (Red Hat 9.2.1-1)
REM options -cpp -mtune=generic -march=x86-64 -g -O0 -fpre-include=/usr/include/finclude/math-vector-fortran.h
REM seed 112554789 1448807976 1783635323 -131487543 -55389217 1195983370 1234947551 2058932002 -467082174 -484101732 -1505344572 210256596 680470884 -245657584 1646691028 2132505930 1741112521 -1184304701 -293046383 -580407440 -1462714182 602508141 -1153615175 -903600901 105601698 -1686047554 -2080036178 1913718021 -795611612 -1457906 -1935796404 -2035529675 1287983309
REM
CELL 1.54180   15.00000   15.00000   15.00000   90.00000   90.00000   90.00000
LATT -1
SFAC C  
C      1  0.2787560000000  0.5346610000000  0.3411770000000 1.0
C      1  0.3474440000000  0.2755630000000  0.5346330000000 1.0
C      1  0.5413370000000  0.3419330000000  0.2707480000000 1.0
C      1  0.7212460000000  0.5346710000000  0.6588190000000 1.0
C      1  0.2951840000000  0.4629910000000  0.6540140000000 1.0
C      1  0.7048150000000  0.4629620000000  0.3459910000000 1.0
C      1  0.6525460000000  0.2755510000000  0.4653940000000 1.0
C      1  0.3458960000000  0.7021110000000  0.4685460000000 1.0
C      1  0.6541130000000  0.7021070000000  0.5314290000000 1.0
C      1  0.4586560000000  0.3419630000000  0.7292720000000 1.0
C      1  0.5382340000000  0.6610650000000  0.7112580000000 1.0
C      1  0.4617730000000  0.6610410000000  0.2887220000000 1.0
C      1  0.3599120000000  0.5388730000000  0.2797340000000 1.0
C      1  0.5390220000000  0.2841540000000  0.3543700000000 1.0
C      1  0.2887000000000  0.3584390000000  0.5339030000000 1.0
C      1  0.6400890000000  0.5388930000000  0.7202610000000 1.0
C      1  0.6467090000000  0.4593820000000  0.2636930000000 1.0
C      1  0.3532890000000  0.4594190000000  0.7363120000000 1.0
C      1  0.4609680000000  0.2841740000000  0.6456560000000 1.0
C      1  0.4520560000000  0.7361730000000  0.3554490000000 1.0
C      1  0.5479550000000  0.7361880000000  0.6445210000000 1.0
C      1  0.7112930000000  0.3584250000000  0.4661140000000 1.0
C      1  0.7298090000000  0.6360180000000  0.5376590000000 1.0
C      1  0.2701980000000  0.6360240000000  0.4623240000000 1.0
C      1  0.6397150000000  0.5010590000000  0.5933580000000 1.0
C      1  0.5663160000000  0.6479020000000  0.4999250000000 1.0
C      1  0.4866440000000  0.5818080000000  0.6609950000000 1.0
C      1  0.3602850000000  0.5010540000000  0.4066410000000 1.0
C      1  0.6472090000000  0.5074720000000  0.4240520000000 1.0
C      1  0.3527910000000  0.5074880000000  0.5759470000000 1.0
C      1  0.4336910000000  0.6479060000000  0.5000560000000 1.0
C      1  0.5849850000000  0.3526230000000  0.5058660000000 1.0
C      1  0.4150080000000  0.3526260000000  0.4941520000000 1.0
C      1  0.5133600000000  0.5817870000000  0.3389950000000 1.0
C      1  0.5058330000000  0.4123050000000  0.3468030000000 1.0
C      1  0.4941620000000  0.4123240000000  0.6532070000000 1.0
C      1  0.5558440000000  0.4966190000000  0.6602950000000 1.0
C      1  0.4951670000000  0.6566890000000  0.5856810000000 1.0
C      1  0.6428590000000  0.5720970000000  0.5064980000000 1.0
C      1  0.4441560000000  0.4966020000000  0.3397060000000 1.0
C      1  0.4229320000000  0.4992340000000  0.6563110000000 1.0
C      1  0.5770680000000  0.4992110000000  0.3436890000000 1.0
C      1  0.5048400000000  0.6566790000000  0.4142990000000 1.0
C      1  0.4993680000000  0.3504400000000  0.5664070000000 1.0
C      1  0.5006250000000  0.3504320000000  0.4336110000000 1.0
C      1  0.3571440000000  0.5721030000000  0.4934930000000 1.0
C      1  0.3516140000000  0.4392350000000  0.4904690000000 1.0
C      1  0.6483840000000  0.4392290000000  0.5095390000000 1.0
C      1  0.6104270000000  0.3829850000000  0.2204960000000 1.0
C      1  0.2262410000000  0.5991920000000  0.3866640000000 1.0
C      1  0.3895680000000  0.3830250000000  0.7795190000000 1.0
C      1  0.7737640000000  0.5991930000000  0.6133240000000 1.0
C      1  0.2482230000000  0.3894540000000  0.6150290000000 1.0
C      1  0.7517720000000  0.3894280000000  0.3849850000000 1.0
C      1  0.6123480000000  0.2340220000000  0.3897940000000 1.0
C      1  0.3879080000000  0.6223460000000  0.2419310000000 1.0
C      1  0.3723730000000  0.7631160000000  0.3998700000000 1.0
C      1  0.3876400000000  0.2340410000000  0.6102390000000 1.0
C      1  0.6276390000000  0.7631220000000  0.6000980000000 1.0
C      1  0.6120970000000  0.6223720000000  0.7580540000000 1.0
END
