TITL C-986979-5873-47 -0.00236039846489211 3375 -349.226489367165 0 0 60 (C1) n - 1
REM
REM in /home/bkarasulu/work/CARBON/AIRSS/Generating-Clusters/REBO/Higher-Symm/Only-C60
REM
REM
REM
REM
REM
REM ./C.cell (a2850807a9bf4ad07a5b6933b78d9264)
REM AIRSS Version 0.9.1 bugfix July 2018 build 013d7b7c2542+ Fri, 06 Jul 2018 19:26:36 +0100
REM compiler GCC version 9.2.1 20190827 (Red Hat 9.2.1-1)
REM options -cpp -mtune=generic -march=x86-64 -g -O0 -fpre-include=/usr/include/finclude/math-vector-fortran.h
REM seed -902019680 -1539234906 705989949 1190773103 515674116 -1149167689 -1335605974 -652113165 -1220622376 1761512477 -738450959 40196930 766816357 -436758538 1061317353 -1745270839 -1304682042 84603579 -1734940538 186758179 738721545 1488531533 -500952259 1890277744 -142632529 1906777014 766238766 -624569573 -724497752 -1442416368 348560909 1442488634 1711453301
REM
CELL 1.54180   15.00000   15.00000   15.00000   90.00000   90.00000   90.00000
LATT -1
SFAC C  
C      1  0.6354020000000  0.5846010000000  0.4204530000000 1.0
C      1  0.6426970000000  0.4176410000000  0.5865440000000 1.0
C      1  0.3646540000000  0.5798610000000  0.3957490000000 1.0
C      1  0.3736180000000  0.4171480000000  0.5952360000000 1.0
C      1  0.6255840000000  0.4198330000000  0.4001070000000 1.0
C      1  0.6337680000000  0.5815770000000  0.6073050000000 1.0
C      1  0.3553370000000  0.4151600000000  0.4089920000000 1.0
C      1  0.3649790000000  0.5795370000000  0.5834630000000 1.0
C      1  0.4495150000000  0.6314160000000  0.7313060000000 1.0
C      1  0.4511450000000  0.3660030000000  0.2743630000000 1.0
C      1  0.5525360000000  0.6335890000000  0.7192100000000 1.0
C      1  0.5540440000000  0.3716360000000  0.2795200000000 1.0
C      1  0.4493050000000  0.3666880000000  0.7233070000000 1.0
C      1  0.4461950000000  0.6295870000000  0.2755730000000 1.0
C      1  0.5522610000000  0.3697130000000  0.7344430000000 1.0
C      1  0.5491500000000  0.6361180000000  0.2710640000000 1.0
C      1  0.4031400000000  0.5517510000000  0.7425090000000 1.0
C      1  0.4037710000000  0.4453180000000  0.2569540000000 1.0
C      1  0.5983720000000  0.5544320000000  0.7328170000000 1.0
C      1  0.6002400000000  0.4497820000000  0.2674120000000 1.0
C      1  0.4024390000000  0.4459330000000  0.7367790000000 1.0
C      1  0.4000710000000  0.5516310000000  0.2621270000000 1.0
C      1  0.6003130000000  0.4485770000000  0.7459710000000 1.0
C      1  0.5967150000000  0.5558440000000  0.2603370000000 1.0
C      1  0.2890600000000  0.6078660000000  0.5357220000000 1.0
C      1  0.2838030000000  0.3873170000000  0.4632440000000 1.0
C      1  0.7089570000000  0.6163740000000  0.5613620000000 1.0
C      1  0.7041450000000  0.3852140000000  0.4407040000000 1.0
C      1  0.2943520000000  0.3846630000000  0.5546910000000 1.0
C      1  0.2893140000000  0.6114520000000  0.4437000000000 1.0
C      1  0.7138710000000  0.3886750000000  0.5322540000000 1.0
C      1  0.7103260000000  0.6138060000000  0.4693920000000 1.0
C      1  0.5752920000000  0.2722580000000  0.5571500000000 1.0
C      1  0.5562870000000  0.7320710000000  0.4431380000000 1.0
C      1  0.4636390000000  0.2706330000000  0.5491880000000 1.0
C      1  0.4440650000000  0.7272560000000  0.4523320000000 1.0
C      1  0.5374540000000  0.7273460000000  0.5462240000000 1.0
C      1  0.5564500000000  0.2710800000000  0.4547540000000 1.0
C      1  0.4257400000000  0.7257430000000  0.5547160000000 1.0
C      1  0.4437750000000  0.2669080000000  0.4462880000000 1.0
C      1  0.4650410000000  0.6971590000000  0.3536590000000 1.0
C      1  0.4299520000000  0.3036820000000  0.6418520000000 1.0
C      1  0.5766480000000  0.7058770000000  0.3448000000000 1.0
C      1  0.5419760000000  0.3066210000000  0.6499700000000 1.0
C      1  0.4228820000000  0.2976870000000  0.3492510000000 1.0
C      1  0.4595880000000  0.6969950000000  0.6491160000000 1.0
C      1  0.5345730000000  0.3052140000000  0.3578620000000 1.0
C      1  0.5716330000000  0.7020450000000  0.6417010000000 1.0
C      1  0.4484260000000  0.5950030000000  0.5429560000000 1.0
C      1  0.4410290000000  0.4001870000000  0.4427270000000 1.0
C      1  0.5503710000000  0.5950990000000  0.5651950000000 1.0
C      1  0.5444500000000  0.4036660000000  0.4483410000000 1.0
C      1  0.4541450000000  0.4034960000000  0.5459750000000 1.0
C      1  0.4482700000000  0.5948610000000  0.4372560000000 1.0
C      1  0.5569600000000  0.4041200000000  0.5524480000000 1.0
C      1  0.5510940000000  0.5989710000000  0.4596930000000 1.0
C      1  0.3648830000000  0.5054760000000  0.6497620000000 1.0
C      1  0.6368960000000  0.5130890000000  0.3528050000000 1.0
C      1  0.6474680000000  0.4887100000000  0.6551380000000 1.0
C      1  0.3519340000000  0.4900060000000  0.3430920000000 1.0
END
