TITL C-986978-6805-818 -5.64195404973317e-07 3375 -294.869960214833 0 0 60 (Th) n - 1
REM
REM in /home/bkarasulu/work/CARBON/AIRSS/Generating-Clusters/REBO/Higher-Symm/Only-C60
REM
REM
REM
REM
REM
REM ./C.cell (a2850807a9bf4ad07a5b6933b78d9264)
REM AIRSS Version 0.9.1 bugfix July 2018 build 013d7b7c2542+ Fri, 06 Jul 2018 19:26:36 +0100
REM compiler GCC version 9.2.1 20190827 (Red Hat 9.2.1-1)
REM options -cpp -mtune=generic -march=x86-64 -g -O0 -fpre-include=/usr/include/finclude/math-vector-fortran.h
REM seed -1415868914 791400412 1587045326 1499024624 1199100912 -1287817682 1957404264 1500153384 180509623 1050396652 232430114 12741572 1398792847 -33829637 1054441000 -1433628421 -1062010830 732848072 -1083492253 -1048161923 1858504810 264049492 1021673214 -914982530 -565935756 584181740 -1503270841 377014512 412499243 -859546131 -569893777 1361639069 -361472705
REM
CELL 1.54180   15.00000   15.00000   15.00000   90.00000   90.00000   90.00000
LATT -1
SFAC C  
C      1  0.6451980000000  0.6455040000000  0.4461060000000 1.0
C      1  0.6455040000000  0.4461060000000  0.6451980000000 1.0
C      1  0.4461060000000  0.6451980000000  0.6455040000000 1.0
C      1  0.3548020000000  0.3544960000000  0.4461060000000 1.0
C      1  0.6451980000000  0.3544960000000  0.5538940000000 1.0
C      1  0.3548020000000  0.6455040000000  0.5538940000000 1.0
C      1  0.3544960000000  0.5538940000000  0.6451980000000 1.0
C      1  0.6455040000000  0.5538940000000  0.3548020000000 1.0
C      1  0.3544960000000  0.4461060000000  0.3548020000000 1.0
C      1  0.5538940000000  0.3548020000000  0.6455040000000 1.0
C      1  0.4461060000000  0.3548020000000  0.3544960000000 1.0
C      1  0.5538940000000  0.6451980000000  0.3544960000000 1.0
C      1  0.6451980000000  0.6455040000000  0.5538940000000 1.0
C      1  0.6455040000000  0.4461060000000  0.3548020000000 1.0
C      1  0.4461060000000  0.6451980000000  0.3544960000000 1.0
C      1  0.3548020000000  0.3544960000000  0.5538940000000 1.0
C      1  0.6451980000000  0.3544960000000  0.4461060000000 1.0
C      1  0.3548020000000  0.6455040000000  0.4461060000000 1.0
C      1  0.3544960000000  0.5538940000000  0.3548020000000 1.0
C      1  0.6455040000000  0.5538940000000  0.6451980000000 1.0
C      1  0.3544960000000  0.4461060000000  0.6451980000000 1.0
C      1  0.5538940000000  0.3548020000000  0.3544960000000 1.0
C      1  0.4461060000000  0.3548020000000  0.6455040000000 1.0
C      1  0.5538940000000  0.6451980000000  0.6455040000000 1.0
C      1  0.7202060000000  0.5573870000000  0.5580300000000 1.0
C      1  0.5573870000000  0.5580300000000  0.7202060000000 1.0
C      1  0.5580300000000  0.7202060000000  0.5573870000000 1.0
C      1  0.2797940000000  0.4426130000000  0.5580300000000 1.0
C      1  0.7202060000000  0.4426130000000  0.4419700000000 1.0
C      1  0.2797940000000  0.5573870000000  0.4419700000000 1.0
C      1  0.4426130000000  0.4419700000000  0.7202060000000 1.0
C      1  0.5573870000000  0.4419700000000  0.2797940000000 1.0
C      1  0.4426130000000  0.5580300000000  0.2797940000000 1.0
C      1  0.4419700000000  0.2797940000000  0.5573870000000 1.0
C      1  0.5580300000000  0.2797940000000  0.4426130000000 1.0
C      1  0.4419700000000  0.7202060000000  0.4426130000000 1.0
C      1  0.7202060000000  0.5573870000000  0.4419700000000 1.0
C      1  0.5573870000000  0.5580300000000  0.2797940000000 1.0
C      1  0.5580300000000  0.7202060000000  0.4426130000000 1.0
C      1  0.2797940000000  0.4426130000000  0.4419700000000 1.0
C      1  0.7202060000000  0.4426130000000  0.5580300000000 1.0
C      1  0.2797940000000  0.5573870000000  0.5580300000000 1.0
C      1  0.4426130000000  0.4419700000000  0.2797940000000 1.0
C      1  0.5573870000000  0.4419700000000  0.7202060000000 1.0
C      1  0.4426130000000  0.5580300000000  0.7202060000000 1.0
C      1  0.4419700000000  0.2797940000000  0.4426130000000 1.0
C      1  0.5580300000000  0.2797940000000  0.5573870000000 1.0
C      1  0.4419700000000  0.7202060000000  0.5573870000000 1.0
C      1  0.3961480000000  0.5526420000000  0.5000000000000 1.0
C      1  0.5526420000000  0.5000000000000  0.3961480000000 1.0
C      1  0.5000000000000  0.3961480000000  0.5526420000000 1.0
C      1  0.6038520000000  0.4473580000000  0.5000000000000 1.0
C      1  0.3961480000000  0.4473580000000  0.5000000000000 1.0
C      1  0.6038520000000  0.5526420000000  0.5000000000000 1.0
C      1  0.4473580000000  0.5000000000000  0.6038520000000 1.0
C      1  0.5000000000000  0.6038520000000  0.5526420000000 1.0
C      1  0.5000000000000  0.6038520000000  0.4473580000000 1.0
C      1  0.5000000000000  0.3961480000000  0.4473580000000 1.0
C      1  0.4473580000000  0.5000000000000  0.3961480000000 1.0
C      1  0.5526420000000  0.5000000000000  0.6038520000000 1.0
END
