TITL C-986977-940-20 4.12813345212006e-06 3375 -351.62121821351 0 0 60 (C3) n - 1
REM
REM in /home/bkarasulu/work/CARBON/AIRSS/Generating-Clusters/REBO/Higher-Symm/Only-C60
REM
REM
REM
REM
REM
REM ./C.cell (a2850807a9bf4ad07a5b6933b78d9264)
REM AIRSS Version 0.9.1 bugfix July 2018 build 013d7b7c2542+ Fri, 06 Jul 2018 19:26:36 +0100
REM compiler GCC version 9.2.1 20190827 (Red Hat 9.2.1-1)
REM options -cpp -mtune=generic -march=x86-64 -g -O0 -fpre-include=/usr/include/finclude/math-vector-fortran.h
REM seed -1483655655 -861588445 -1979918074 1367297923 -245358744 -1420448229 -1386781771 -1190483607 -1574171195 1985271763 1396054928 901619832 1791708368 -1131707960 843724552 335061655 -1057654863 -883804773 1301490188 -1666999888 -893264377 -1709961588 1979369648 -1991013259 1313606711 1161781006 198536597 1134340946 -1725750356 1624365214 1256370203 -1123954499 -521147531
REM
CELL 1.54180   15.00000   15.00000   15.00000   90.00000   90.00000   90.00000
LATT -1
SFAC C  
C      1  0.3556580000000  0.7048920000000  0.4713620000000 1.0
C      1  0.5970290000000  0.7048940000000  0.3893680000000 1.0
C      1  0.5473530000000  0.7048450000000  0.6393990000000 1.0
C      1  0.4928510000000  0.4869750000000  0.4032910000000 1.0
C      1  0.5873230000000  0.4869400000000  0.5421600000000 1.0
C      1  0.4198230000000  0.4869480000000  0.5545410000000 1.0
C      1  0.6939290000000  0.6107220000000  0.5051290000000 1.0
C      1  0.3986250000000  0.6107080000000  0.6654120000000 1.0
C      1  0.4074680000000  0.6107770000000  0.3295290000000 1.0
C      1  0.4108970000000  0.6772550000000  0.5511220000000 1.0
C      1  0.5003280000000  0.6772820000000  0.3973200000000 1.0
C      1  0.5888090000000  0.6772430000000  0.5516700000000 1.0
C      1  0.6719650000000  0.5664040000000  0.6071680000000 1.0
C      1  0.3212260000000  0.5664290000000  0.5953590000000 1.0
C      1  0.5068220000000  0.5664800000000  0.2975150000000 1.0
C      1  0.3925400000000  0.3027130000000  0.3940430000000 1.0
C      1  0.6454370000000  0.3026830000000  0.4598640000000 1.0
C      1  0.4619850000000  0.3026560000000  0.6459690000000 1.0
C      1  0.3339340000000  0.4214670000000  0.4090950000000 1.0
C      1  0.6617370000000  0.4214470000000  0.4016150000000 1.0
C      1  0.5043130000000  0.4213970000000  0.6892400000000 1.0
C      1  0.6666190000000  0.5546710000000  0.3547340000000 1.0
C      1  0.5425100000000  0.5546030000000  0.7169440000000 1.0
C      1  0.2908820000000  0.5546800000000  0.4283570000000 1.0
C      1  0.5780770000000  0.4538710000000  0.4454680000000 1.0
C      1  0.5081750000000  0.4538440000000  0.5948710000000 1.0
C      1  0.4137390000000  0.4538790000000  0.4596320000000 1.0
C      1  0.5607720000000  0.2745980000000  0.4869360000000 1.0
C      1  0.4808650000000  0.2745890000000  0.5591040000000 1.0
C      1  0.4583190000000  0.2746120000000  0.4538190000000 1.0
C      1  0.6958880000000  0.3607850000000  0.5152260000000 1.0
C      1  0.3888310000000  0.3607740000000  0.6619960000000 1.0
C      1  0.4152540000000  0.3608430000000  0.3226910000000 1.0
C      1  0.5995830000000  0.6249610000000  0.3268260000000 1.0
C      1  0.6002160000000  0.6248890000000  0.6728610000000 1.0
C      1  0.3002250000000  0.6249440000000  0.5003920000000 1.0
C      1  0.7140630000000  0.5494080000000  0.4357800000000 1.0
C      1  0.4485990000000  0.5493670000000  0.7175080000000 1.0
C      1  0.3373480000000  0.5494520000000  0.3467450000000 1.0
C      1  0.4488260000000  0.6992530000000  0.6409700000000 1.0
C      1  0.4035590000000  0.6993090000000  0.3852480000000 1.0
C      1  0.6476540000000  0.6992740000000  0.4739070000000 1.0
C      1  0.6866400000000  0.4605370000000  0.5688680000000 1.0
C      1  0.3470280000000  0.4605470000000  0.6271910000000 1.0
C      1  0.4663240000000  0.4606080000000  0.3039160000000 1.0
C      1  0.2802710000000  0.4956300000000  0.5150640000000 1.0
C      1  0.5968180000000  0.4956540000000  0.3021750000000 1.0
C      1  0.6229110000000  0.4955730000000  0.6827580000000 1.0
C      1  0.2606920000000  0.4002620000000  0.4925910000000 1.0
C      1  0.6260430000000  0.4002790000000  0.2964320000000 1.0
C      1  0.6132460000000  0.4001930000000  0.7109150000000 1.0
C      1  0.4988640000000  0.5845630000000  0.4370270000000 1.0
C      1  0.5551270000000  0.5845390000000  0.5305250000000 1.0
C      1  0.4460240000000  0.5845460000000  0.5325010000000 1.0
C      1  0.7401280000000  0.4536050000000  0.4689050000000 1.0
C      1  0.4068520000000  0.4535730000000  0.7234920000000 1.0
C      1  0.3530110000000  0.4536640000000  0.3075730000000 1.0
C      1  0.5437380000000  0.3174420000000  0.7066660000000 1.0
C      1  0.2991020000000  0.3175150000000  0.4344980000000 1.0
C      1  0.6571240000000  0.3175070000000  0.3587210000000 1.0
END
