TITL C-986973-6940-978 -5.13313899646705e-06 3375 -364.468656781607 0 0 60 (S4) n - 1
REM
REM in /home/bkarasulu/work/CARBON/AIRSS/Generating-Clusters/REBO/Higher-Symm/Only-C60
REM
REM
REM
REM
REM
REM ./C.cell (a2850807a9bf4ad07a5b6933b78d9264)
REM AIRSS Version 0.9.1 bugfix July 2018 build 013d7b7c2542+ Fri, 06 Jul 2018 19:26:36 +0100
REM compiler GCC version 9.2.1 20190827 (Red Hat 9.2.1-1)
REM options -cpp -mtune=generic -march=x86-64 -g -O0 -fpre-include=/usr/include/finclude/math-vector-fortran.h
REM seed -368092208 793970269 918686525 -1369863151 582903393 1097422634 1996496459 1808352888 1354475027 2093150125 -433811853 -888593285 -950491816 -348112883 -574412493 -2026407017 -1380674028 1483916291 -1644337571 -1490714088 -254452312 -472115732 386650793 -1435668376 158901863 -1525441036 -1879778942 1302815374 -634079821 -1924107865 -1515838845 -68371526 -486960788
REM
CELL 1.54180   15.00000   15.00000   15.00000   90.00000   90.00000   90.00000
LATT -1
SFAC C  
C      1  0.5593550000000  0.5235130000000  0.5834620000000 1.0
C      1  0.5416610000000  0.5637610000000  0.4810200000000 1.0
C      1  0.5593550000000  0.4764870000000  0.4165380000000 1.0
C      1  0.5416610000000  0.4362390000000  0.5189800000000 1.0
C      1  0.4475540000000  0.5189800000000  0.5637610000000 1.0
C      1  0.4298610000000  0.5834620000000  0.4764870000000 1.0
C      1  0.4475540000000  0.4810200000000  0.4362390000000 1.0
C      1  0.4298610000000  0.4165380000000  0.5235130000000 1.0
C      1  0.3784160000000  0.6774410000000  0.6097130000000 1.0
C      1  0.3810950000000  0.6119310000000  0.3218020000000 1.0
C      1  0.3784160000000  0.3225590000000  0.3902870000000 1.0
C      1  0.3810950000000  0.3880690000000  0.6781980000000 1.0
C      1  0.6081200000000  0.6781980000000  0.6119310000000 1.0
C      1  0.6107990000000  0.6097130000000  0.3225590000000 1.0
C      1  0.6081200000000  0.3218020000000  0.3880690000000 1.0
C      1  0.6107990000000  0.3902870000000  0.6774410000000 1.0
C      1  0.2750350000000  0.4753040000000  0.4144980000000 1.0
C      1  0.2794960000000  0.4325480000000  0.5196680000000 1.0
C      1  0.2750350000000  0.5246960000000  0.5855020000000 1.0
C      1  0.2794960000000  0.5674520000000  0.4803320000000 1.0
C      1  0.7097190000000  0.4803320000000  0.4325480000000 1.0
C      1  0.7141800000000  0.4144980000000  0.5246960000000 1.0
C      1  0.7097190000000  0.5196680000000  0.5674520000000 1.0
C      1  0.7141800000000  0.5855020000000  0.4753040000000 1.0
C      1  0.5475860000000  0.5453690000000  0.2838530000000 1.0
C      1  0.5409000000000  0.2901710000000  0.4530010000000 1.0
C      1  0.5475860000000  0.4546310000000  0.7161470000000 1.0
C      1  0.5409000000000  0.7098290000000  0.5469990000000 1.0
C      1  0.4483150000000  0.5469990000000  0.2901710000000 1.0
C      1  0.4416290000000  0.2838530000000  0.4546310000000 1.0
C      1  0.4483150000000  0.4530010000000  0.7098290000000 1.0
C      1  0.4416290000000  0.7161470000000  0.5453690000000 1.0
C      1  0.4167550000000  0.3697020000000  0.3157570000000 1.0
C      1  0.4137060000000  0.3063320000000  0.6372220000000 1.0
C      1  0.4167550000000  0.6302980000000  0.6842430000000 1.0
C      1  0.4137060000000  0.6936680000000  0.3627780000000 1.0
C      1  0.5755090000000  0.3627780000000  0.3063320000000 1.0
C      1  0.5724600000000  0.3157570000000  0.6302980000000 1.0
C      1  0.5755090000000  0.6372220000000  0.6936680000000 1.0
C      1  0.5724600000000  0.6842430000000  0.3697020000000 1.0
C      1  0.4106080000000  0.3188170000000  0.5426490000000 1.0
C      1  0.4223350000000  0.5369820000000  0.6643320000000 1.0
C      1  0.4106080000000  0.6811830000000  0.4573510000000 1.0
C      1  0.4223350000000  0.4630180000000  0.3356680000000 1.0
C      1  0.5668800000000  0.3356680000000  0.5369820000000 1.0
C      1  0.5786070000000  0.5426490000000  0.6811830000000 1.0
C      1  0.5668800000000  0.6643320000000  0.4630180000000 1.0
C      1  0.5786070000000  0.4573510000000  0.3188170000000 1.0
C      1  0.3083570000000  0.3708940000000  0.4303380000000 1.0
C      1  0.3126250000000  0.4289540000000  0.6278830000000 1.0
C      1  0.3083570000000  0.6291060000000  0.5696620000000 1.0
C      1  0.3126250000000  0.5710460000000  0.3721170000000 1.0
C      1  0.6765900000000  0.3721170000000  0.4289540000000 1.0
C      1  0.6808580000000  0.4303380000000  0.6291060000000 1.0
C      1  0.6765900000000  0.6278830000000  0.5710460000000 1.0
C      1  0.6808580000000  0.5696620000000  0.3708940000000 1.0
C      1  0.4968510000000  0.7280350000000  0.3325570000000 1.0
C      1  0.4968510000000  0.2719650000000  0.6674430000000 1.0
C      1  0.4923640000000  0.3325570000000  0.2719650000000 1.0
C      1  0.4923640000000  0.6674430000000  0.7280350000000 1.0
END
