TITL C-986979-5873-37 -1.9644925309864e-06 3375 -346.884872310929 0 0 60 (C5) n - 1
REM
REM in /home/bkarasulu/work/CARBON/AIRSS/Generating-Clusters/REBO/Higher-Symm/Only-C60
REM
REM
REM
REM
REM
REM ./C.cell (a2850807a9bf4ad07a5b6933b78d9264)
REM AIRSS Version 0.9.1 bugfix July 2018 build 013d7b7c2542+ Fri, 06 Jul 2018 19:26:36 +0100
REM compiler GCC version 9.2.1 20190827 (Red Hat 9.2.1-1)
REM options -cpp -mtune=generic -march=x86-64 -g -O0 -fpre-include=/usr/include/finclude/math-vector-fortran.h
REM seed -1643033938 708751062 77628155 1576549069 1024430171 -2015859816 1969010449 1751455881 -1960374080 1520296304 -367092068 1258541926 1712401344 -281799722 2091864809 1254702523 -1820542865 1371083243 1570915214 -2004177277 -879412697 -25751005 -1745709750 -434841222 153890568 231862324 1623143710 -1733061804 167112704 -956401068 607490020 -587644171 -2102960833
REM
CELL 1.54180   15.00000   15.00000   15.00000   90.00000   90.00000   90.00000
LATT -1
SFAC C  
C      1  0.7182780000000  0.5498810000000  0.5745090000000 1.0
C      1  0.7182770000000  0.4445480000000  0.5704640000000 1.0
C      1  0.7182760000000  0.4158450000000  0.4690360000000 1.0
C      1  0.7182760000000  0.5034390000000  0.4103960000000 1.0
C      1  0.7182770000000  0.5862780000000  0.4755810000000 1.0
C      1  0.5546500000000  0.4138340000000  0.4820360000000 1.0
C      1  0.5546500000000  0.4904570000000  0.4125000000000 1.0
C      1  0.5546510000000  0.5802680000000  0.4638850000000 1.0
C      1  0.5546520000000  0.5591510000000  0.5651800000000 1.0
C      1  0.5546510000000  0.4562890000000  0.5763970000000 1.0
C      1  0.6635960000000  0.4254400000000  0.3482330000000 1.0
C      1  0.6635980000000  0.6212960000000  0.3821910000000 1.0
C      1  0.6636010000000  0.6495230000000  0.5789540000000 1.0
C      1  0.6636010000000  0.4711130000000  0.6666030000000 1.0
C      1  0.6635980000000  0.3326220000000  0.5240090000000 1.0
C      1  0.4462650000000  0.4573530000000  0.4183750000000 1.0
C      1  0.4462650000000  0.5644530000000  0.4342170000000 1.0
C      1  0.4462670000000  0.5824820000000  0.5409700000000 1.0
C      1  0.4462660000000  0.4865240000000  0.5911050000000 1.0
C      1  0.4462650000000  0.4091910000000  0.5153370000000 1.0
C      1  0.5315040000000  0.7103620000000  0.4421200000000 1.0
C      1  0.5315060000000  0.6200520000000  0.6821810000000 1.0
C      1  0.5315040000000  0.3638330000000  0.6704730000000 1.0
C      1  0.5315010000000  0.2957920000000  0.4231770000000 1.0
C      1  0.5315010000000  0.5099590000000  0.2820470000000 1.0
C      1  0.6577640000000  0.5301560000000  0.3180650000000 1.0
C      1  0.6577670000000  0.6823460000000  0.4724590000000 1.0
C      1  0.6577690000000  0.5825380000000  0.6649110000000 1.0
C      1  0.6577670000000  0.3686630000000  0.6294590000000 1.0
C      1  0.6577640000000  0.3362890000000  0.4150960000000 1.0
C      1  0.5019730000000  0.4451870000000  0.7044680000000 1.0
C      1  0.5019700000000  0.2886010000000  0.5110540000000 1.0
C      1  0.5019680000000  0.4241610000000  0.3023640000000 1.0
C      1  0.5019710000000  0.6645280000000  0.3668000000000 1.0
C      1  0.5019740000000  0.6775230000000  0.6153140000000 1.0
C      1  0.3505030000000  0.2973340000000  0.4309700000000 1.0
C      1  0.3505030000000  0.5030270000000  0.2859220000000 1.0
C      1  0.3505060000000  0.7045390000000  0.4367250000000 1.0
C      1  0.3505080000000  0.6233860000000  0.6749750000000 1.0
C      1  0.3505060000000  0.3717200000000  0.6714180000000 1.0
C      1  0.5693550000000  0.6964400000000  0.5428850000000 1.0
C      1  0.5693550000000  0.5199160000000  0.7000770000000 1.0
C      1  0.5693520000000  0.3158680000000  0.5807690000000 1.0
C      1  0.5693500000000  0.3662830000000  0.3498390000000 1.0
C      1  0.5693520000000  0.6014890000000  0.3264250000000 1.0
C      1  0.3274320000000  0.3753540000000  0.3889950000000 1.0
C      1  0.3274330000000  0.5670570000000  0.3471520000000 1.0
C      1  0.3274360000000  0.6660920000000  0.5165420000000 1.0
C      1  0.3274370000000  0.5355960000000  0.6630750000000 1.0
C      1  0.3274340000000  0.3559090000000  0.5842460000000 1.0
C      1  0.3989160000000  0.4213610000000  0.3281080000000 1.0
C      1  0.3989180000000  0.6391800000000  0.3720920000000 1.0
C      1  0.3989210000000  0.6646580000000  0.5928430000000 1.0
C      1  0.3989200000000  0.4625850000000  0.6852890000000 1.0
C      1  0.3989170000000  0.3122200000000  0.5216740000000 1.0
C      1  0.2797570000000  0.5832440000000  0.5102920000000 1.0
C      1  0.2797570000000  0.5159400000000  0.5823500000000 1.0
C      1  0.2797560000000  0.4266100000000  0.5406070000000 1.0
C      1  0.2797550000000  0.4387050000000  0.4427500000000 1.0
C      1  0.2797550000000  0.5355110000000  0.4240140000000 1.0
END
