TITL C-986975-4297-1026 -2.14439771247877e-05 3375 -350.990045785304 0 0 60 (C1) n - 1
REM
REM in /home/bkarasulu/work/CARBON/AIRSS/Generating-Clusters/REBO/Higher-Symm/Only-C60
REM
REM
REM
REM
REM
REM ./C.cell (a2850807a9bf4ad07a5b6933b78d9264)
REM AIRSS Version 0.9.1 bugfix July 2018 build 013d7b7c2542+ Fri, 06 Jul 2018 19:26:36 +0100
REM compiler GCC version 9.2.1 20190827 (Red Hat 9.2.1-1)
REM options -cpp -mtune=generic -march=x86-64 -g -O0 -fpre-include=/usr/include/finclude/math-vector-fortran.h
REM seed 1508592101 199902459 -634854443 -2037696213 -774550969 -135907879 1355062415 1818532652 -1097070972 882169805 -2025179395 820380281 1899413446 -1672299208 -1599174618 -18212213 700257864 -1605276957 -740770156 -1892600396 1003277025 1495416188 1026531277 823827865 -1542132356 523409250 1648719818 1222123918 691530241 1402198459 -1573433787 541812628 1602994653
REM
CELL 1.54180   15.00000   15.00000   15.00000   90.00000   90.00000   90.00000
LATT -1
SFAC C  
C      1  0.2957020000000  0.6249140000000  0.5911820000000 1.0
C      1  0.3093110000000  0.5245510000000  0.3428680000000 1.0
C      1  0.3181620000000  0.3553270000000  0.5544720000000 1.0
C      1  0.5471780000000  0.4072180000000  0.3781620000000 1.0
C      1  0.5382980000000  0.3720530000000  0.7386540000000 1.0
C      1  0.5521560000000  0.6779440000000  0.4806240000000 1.0
C      1  0.3104980000000  0.4260100000000  0.6417010000000 1.0
C      1  0.2984410000000  0.6475080000000  0.4819150000000 1.0
C      1  0.3027860000000  0.4200010000000  0.3758260000000 1.0
C      1  0.5996590000000  0.7592900000000  0.4327240000000 1.0
C      1  0.6133240000000  0.3358800000000  0.3394490000000 1.0
C      1  0.6065840000000  0.4334570000000  0.7142160000000 1.0
C      1  0.7067360000000  0.7114350000000  0.5675360000000 1.0
C      1  0.7139280000000  0.4752350000000  0.3440040000000 1.0
C      1  0.7011410000000  0.3370650000000  0.5982630000000 1.0
C      1  0.4060050000000  0.5326090000000  0.7140920000000 1.0
C      1  0.4005110000000  0.6657720000000  0.3481960000000 1.0
C      1  0.3944440000000  0.2848610000000  0.4209020000000 1.0
C      1  0.6193320000000  0.5220340000000  0.5346640000000 1.0
C      1  0.6275070000000  0.5975660000000  0.4659150000000 1.0
C      1  0.5915640000000  0.4280120000000  0.4771600000000 1.0
C      1  0.5983430000000  0.5743580000000  0.6240360000000 1.0
C      1  0.5993520000000  0.6090560000000  0.3632060000000 1.0
C      1  0.5714500000000  0.3236490000000  0.4931140000000 1.0
C      1  0.4387420000000  0.2422080000000  0.5715770000000 1.0
C      1  0.4506370000000  0.6708520000000  0.6507660000000 1.0
C      1  0.4620720000000  0.5424810000000  0.2680100000000 1.0
C      1  0.5751050000000  0.5210580000000  0.7063390000000 1.0
C      1  0.5671220000000  0.7049230000000  0.3514570000000 1.0
C      1  0.5597880000000  0.2773970000000  0.4037960000000 1.0
C      1  0.4471140000000  0.3768300000000  0.7319700000000 1.0
C      1  0.4605480000000  0.6809800000000  0.4952900000000 1.0
C      1  0.4607100000000  0.4091030000000  0.3446620000000 1.0
C      1  0.3842190000000  0.5820490000000  0.3031880000000 1.0
C      1  0.3722680000000  0.2792610000000  0.5156600000000 1.0
C      1  0.3784000000000  0.6113960000000  0.6659880000000 1.0
C      1  0.5415410000000  0.6715510000000  0.6390300000000 1.0
C      1  0.5521650000000  0.5409270000000  0.2866300000000 1.0
C      1  0.5289390000000  0.2608920000000  0.5735240000000 1.0
C      1  0.7011170000000  0.4376970000000  0.4484310000000 1.0
C      1  0.6974630000000  0.4425350000000  0.5561010000000 1.0
C      1  0.7158000000000  0.6527730000000  0.4792490000000 1.0
C      1  0.6562170000000  0.5344990000000  0.3059290000000 1.0
C      1  0.6331470000000  0.2811090000000  0.5729950000000 1.0
C      1  0.6460080000000  0.6765770000000  0.6283200000000 1.0
C      1  0.4743520000000  0.2384500000000  0.3936650000000 1.0
C      1  0.4942610000000  0.5420970000000  0.7490850000000 1.0
C      1  0.4783930000000  0.7138210000000  0.3204190000000 1.0
C      1  0.6916500000000  0.7578430000000  0.4683890000000 1.0
C      1  0.7013720000000  0.3707970000000  0.3566820000000 1.0
C      1  0.6826930000000  0.4145360000000  0.6642520000000 1.0
C      1  0.3815960000000  0.6737100000000  0.4439560000000 1.0
C      1  0.3797460000000  0.3652500000000  0.3660740000000 1.0
C      1  0.3804060000000  0.4383820000000  0.7048210000000 1.0
C      1  0.3710980000000  0.5559990000000  0.5455750000000 1.0
C      1  0.3401130000000  0.5258180000000  0.4474910000000 1.0
C      1  0.3650500000000  0.4495660000000  0.5229500000000 1.0
C      1  0.2868890000000  0.5132320000000  0.6099460000000 1.0
C      1  0.2480420000000  0.5849260000000  0.4171240000000 1.0
C      1  0.2728050000000  0.4126690000000  0.4677810000000 1.0
END
