TITL C-986974-580-765 -1.81661872120025e-06 3375 -352.582493314305 0 0 60 (C2) n - 1
REM
REM in /home/bkarasulu/work/CARBON/AIRSS/Generating-Clusters/REBO/Higher-Symm/Only-C60
REM
REM
REM
REM
REM
REM ./C.cell (a2850807a9bf4ad07a5b6933b78d9264)
REM AIRSS Version 0.9.1 bugfix July 2018 build 013d7b7c2542+ Fri, 06 Jul 2018 19:26:36 +0100
REM compiler GCC version 9.2.1 20190827 (Red Hat 9.2.1-1)
REM options -cpp -mtune=generic -march=x86-64 -g -O0 -fpre-include=/usr/include/finclude/math-vector-fortran.h
REM seed 547860394 2061255410 -794701374 -826127249 813829939 1342904076 -1162647906 2057126575 1020885226 -1791934502 1257425297 1505329316 -244958090 1118938460 -1612903066 -813050964 38207479 -885370499 -1218217931 -178332744 -223285179 -1382439431 -248701911 988636171 1134317217 -1695266788 2086121636 759073892 994974036 593880467 -1817263545 1576464443 -833523339
REM
CELL 1.54180   15.00000   15.00000   15.00000   90.00000   90.00000   90.00000
LATT -1
SFAC C  
C      1  0.6516160000000  0.4007850000000  0.3177090000000 1.0
C      1  0.6783000000000  0.6607810000000  0.3139680000000 1.0
C      1  0.4607810000000  0.6291020000000  0.2940660000000 1.0
C      1  0.3214850000000  0.4889150000000  0.3210450000000 1.0
C      1  0.4396330000000  0.2909210000000  0.3367860000000 1.0
C      1  0.3483850000000  0.4007860000000  0.6822920000000 1.0
C      1  0.3216990000000  0.6607810000000  0.6860310000000 1.0
C      1  0.5392180000000  0.6291040000000  0.7059330000000 1.0
C      1  0.6785150000000  0.4889170000000  0.6789550000000 1.0
C      1  0.5603680000000  0.2909230000000  0.6632160000000 1.0
C      1  0.5186190000000  0.5797690000000  0.5845510000000 1.0
C      1  0.4352930000000  0.5392960000000  0.5951920000000 1.0
C      1  0.4474940000000  0.4450950000000  0.6025960000000 1.0
C      1  0.5414950000000  0.4291440000000  0.5986660000000 1.0
C      1  0.5839480000000  0.5130180000000  0.5884050000000 1.0
C      1  0.4813810000000  0.5797690000000  0.4154490000000 1.0
C      1  0.5647070000000  0.5392950000000  0.4048070000000 1.0
C      1  0.5525060000000  0.4450940000000  0.3974050000000 1.0
C      1  0.4585060000000  0.4291430000000  0.4013350000000 1.0
C      1  0.4160520000000  0.5130170000000  0.4115950000000 1.0
C      1  0.3791410000000  0.6503130000000  0.3671000000000 1.0
C      1  0.3184380000000  0.4084250000000  0.3707490000000 1.0
C      1  0.5283640000000  0.2893710000000  0.3669950000000 1.0
C      1  0.6781570000000  0.4845090000000  0.3500280000000 1.0
C      1  0.6071400000000  0.7116700000000  0.3665960000000 1.0
C      1  0.6208590000000  0.6503150000000  0.6328980000000 1.0
C      1  0.6815620000000  0.4084270000000  0.6292520000000 1.0
C      1  0.4716370000000  0.2893720000000  0.6330070000000 1.0
C      1  0.3218430000000  0.4845090000000  0.6499730000000 1.0
C      1  0.3928600000000  0.7116710000000  0.6334020000000 1.0
C      1  0.3671710000000  0.5677550000000  0.3004420000000 1.0
C      1  0.3590940000000  0.3323540000000  0.3311420000000 1.0
C      1  0.5975730000000  0.3287180000000  0.3175590000000 1.0
C      1  0.6493540000000  0.5618590000000  0.3047380000000 1.0
C      1  0.5578020000000  0.6304540000000  0.3043410000000 1.0
C      1  0.6328280000000  0.5677570000000  0.6995570000000 1.0
C      1  0.6409070000000  0.3323560000000  0.6688590000000 1.0
C      1  0.4024270000000  0.3287190000000  0.6824420000000 1.0
C      1  0.3506460000000  0.5618600000000  0.6952610000000 1.0
C      1  0.4421970000000  0.6304550000000  0.6956580000000 1.0
C      1  0.3128900000000  0.4051250000000  0.4810400000000 1.0
C      1  0.5443720000000  0.2873430000000  0.4712270000000 1.0
C      1  0.7160480000000  0.4868750000000  0.4533990000000 1.0
C      1  0.5851890000000  0.7088870000000  0.4651720000000 1.0
C      1  0.3517500000000  0.6483200000000  0.4689640000000 1.0
C      1  0.6871110000000  0.4051260000000  0.5189610000000 1.0
C      1  0.4556290000000  0.2873430000000  0.5287750000000 1.0
C      1  0.2839520000000  0.4868740000000  0.5466010000000 1.0
C      1  0.4148100000000  0.7088870000000  0.5348260000000 1.0
C      1  0.6482500000000  0.6483210000000  0.5310350000000 1.0
C      1  0.6491050000000  0.5763600000000  0.4421780000000 1.0
C      1  0.4809320000000  0.6733190000000  0.4490040000000 1.0
C      1  0.3286040000000  0.5381580000000  0.4553000000000 1.0
C      1  0.4115530000000  0.3570750000000  0.4509100000000 1.0
C      1  0.6087370000000  0.3762760000000  0.4415280000000 1.0
C      1  0.3508950000000  0.5763600000000  0.5578210000000 1.0
C      1  0.5190670000000  0.6733200000000  0.5509950000000 1.0
C      1  0.6713950000000  0.5381590000000  0.5447000000000 1.0
C      1  0.5884470000000  0.3570760000000  0.5490920000000 1.0
C      1  0.3912630000000  0.3762760000000  0.5584730000000 1.0
END
