TITL C-986974-580-141 0.0808151895184977 3375 -345.154561313363 0 0 60 (C5) n - 1
REM
REM in /home/bkarasulu/work/CARBON/AIRSS/Generating-Clusters/REBO/Higher-Symm/Only-C60
REM
REM
REM
REM
REM
REM ./C.cell (a2850807a9bf4ad07a5b6933b78d9264)
REM AIRSS Version 0.9.1 bugfix July 2018 build 013d7b7c2542+ Fri, 06 Jul 2018 19:26:36 +0100
REM compiler GCC version 9.2.1 20190827 (Red Hat 9.2.1-1)
REM options -cpp -mtune=generic -march=x86-64 -g -O0 -fpre-include=/usr/include/finclude/math-vector-fortran.h
REM seed 574239398 -1367667145 -2042830232 -674105961 1427947883 -2101029406 2098618171 1590473505 1712084344 -242703873 -306736149 667068618 -2027475556 331528827 1648822743 1533321662 83966054 -2086489244 -1782239128 -1901168469 -1118516096 -2142031024 -987770408 -126666578 -1378909728 -630975084 -840523984 -665721320 -1372871706 -1652834948 591005810 1663546565 -104198735
REM
CELL 1.54180   15.00000   15.00000   15.00000   90.00000   90.00000   90.00000
LATT -1
SFAC C  
C      1  0.3880240000000  0.3030910000000  0.5878580000000 1.0
C      1  0.3882750000000  0.5229430000000  0.7141990000000 1.0
C      1  0.3884440000000  0.7109490000000  0.5445420000000 1.0
C      1  0.3878600000000  0.6075710000000  0.3132350000000 1.0
C      1  0.3881210000000  0.3555710000000  0.3400500000000 1.0
C      1  0.6270510000000  0.3509430000000  0.3088080000000 1.0
C      1  0.6268250000000  0.2717420000000  0.5828720000000 1.0
C      1  0.6267790000000  0.5081470000000  0.7426670000000 1.0
C      1  0.6264390000000  0.7335280000000  0.5670670000000 1.0
C      1  0.6267660000000  0.6359830000000  0.2986050000000 1.0
C      1  0.4128440000000  0.5658150000000  0.4372970000000 1.0
C      1  0.4127750000000  0.4606170000000  0.4179080000000 1.0
C      1  0.4126590000000  0.4096290000000  0.5120110000000 1.0
C      1  0.4127180000000  0.4834660000000  0.5894880000000 1.0
C      1  0.4127810000000  0.5801080000000  0.5433220000000 1.0
C      1  0.6815140000000  0.5042460000000  0.4031700000000 1.0
C      1  0.6816210000000  0.4094120000000  0.4662720000000 1.0
C      1  0.6813560000000  0.4396350000000  0.5760870000000 1.0
C      1  0.6813450000000  0.5534500000000  0.5808530000000 1.0
C      1  0.6814170000000  0.5933460000000  0.4741520000000 1.0
C      1  0.5535980000000  0.3952780000000  0.2785170000000 1.0
C      1  0.5533290000000  0.2568360000000  0.5313300000000 1.0
C      1  0.5532920000000  0.4545140000000  0.7409020000000 1.0
C      1  0.5528840000000  0.7153170000000  0.6175240000000 1.0
C      1  0.5531270000000  0.6783790000000  0.3313350000000 1.0
C      1  0.3044250000000  0.4223510000000  0.5420320000000 1.0
C      1  0.3045380000000  0.5160480000000  0.5868220000000 1.0
C      1  0.3046050000000  0.5876320000000  0.5115770000000 1.0
C      1  0.3046430000000  0.5381870000000  0.4202640000000 1.0
C      1  0.3045080000000  0.4360600000000  0.4390720000000 1.0
C      1  0.4910530000000  0.6310470000000  0.5731860000000 1.0
C      1  0.4911110000000  0.6100790000000  0.3975940000000 1.0
C      1  0.4908570000000  0.4369060000000  0.3635550000000 1.0
C      1  0.4908790000000  0.3507680000000  0.5180220000000 1.0
C      1  0.4909360000000  0.4707420000000  0.6473710000000 1.0
C      1  0.5371950000000  0.7046890000000  0.4370390000000 1.0
C      1  0.5367100000000  0.5038270000000  0.2858060000000 1.0
C      1  0.5371140000000  0.2976790000000  0.4304320000000 1.0
C      1  0.5367530000000  0.3709160000000  0.6712280000000 1.0
C      1  0.5370980000000  0.6229600000000  0.6754050000000 1.0
C      1  0.4247380000000  0.5224860000000  0.2865260000000 1.0
C      1  0.4251760000000  0.3038770000000  0.4125950000000 1.0
C      1  0.4247810000000  0.3562680000000  0.6595740000000 1.0
C      1  0.4251450000000  0.6075210000000  0.6860300000000 1.0
C      1  0.4252980000000  0.7099590000000  0.4554270000000 1.0
C      1  0.6274770000000  0.3356780000000  0.3992120000000 1.0
C      1  0.6273420000000  0.3529570000000  0.6254660000000 1.0
C      1  0.6274140000000  0.5737360000000  0.6785600000000 1.0
C      1  0.6272890000000  0.6924420000000  0.4850510000000 1.0
C      1  0.6272780000000  0.5452910000000  0.3123640000000 1.0
C      1  0.5738250000000  0.4670330000000  0.4165750000000 1.0
C      1  0.5738350000000  0.4103980000000  0.5054060000000 1.0
C      1  0.5736370000000  0.4774450000000  0.5866180000000 1.0
C      1  0.5736100000000  0.5752830000000  0.5480190000000 1.0
C      1  0.5736930000000  0.5689940000000  0.4429900000000 1.0
C      1  0.3792730000000  0.6748460000000  0.6305080000000 1.0
C      1  0.3790140000000  0.6782200000000  0.3743060000000 1.0
C      1  0.3788560000000  0.4353820000000  0.2918190000000 1.0
C      1  0.3790970000000  0.2817870000000  0.4969770000000 1.0
C      1  0.3789530000000  0.4299920000000  0.7065040000000 1.0
END
