TITL C-986979-5873-411 0.00338884016081915 3375 -334.444271792398 0 0 60 (C2) n - 1
REM
REM in /home/bkarasulu/work/CARBON/AIRSS/Generating-Clusters/REBO/Higher-Symm/Only-C60
REM
REM
REM
REM
REM
REM ./C.cell (a2850807a9bf4ad07a5b6933b78d9264)
REM AIRSS Version 0.9.1 bugfix July 2018 build 013d7b7c2542+ Fri, 06 Jul 2018 19:26:36 +0100
REM compiler GCC version 9.2.1 20190827 (Red Hat 9.2.1-1)
REM options -cpp -mtune=generic -march=x86-64 -g -O0 -fpre-include=/usr/include/finclude/math-vector-fortran.h
REM seed 1522407909 1744800801 817613110 -973540140 704058642 1506863857 1519887128 901163629 -767869396 -1706257358 -1249231574 1850907477 1210384001 587782813 -1232912002 1593560048 -183105743 -980292545 636683227 690167385 -1582272816 1614492241 -1410738116 -523399428 -509936942 -207731886 901530789 -1115981471 571149243 1408455169 -759718712 -1328726780 -952927046
REM
CELL 1.54180   15.00000   15.00000   15.00000   90.00000   90.00000   90.00000
LATT -1
SFAC C  
C      1  0.4786050000000  0.2655800000000  0.4402340000000 1.0
C      1  0.2671180000000  0.5206670000000  0.4399150000000 1.0
C      1  0.5214010000000  0.7344090000000  0.4402420000000 1.0
C      1  0.7328820000000  0.4793400000000  0.4399020000000 1.0
C      1  0.5075160000000  0.2750120000000  0.5398600000000 1.0
C      1  0.2769350000000  0.4918470000000  0.5393900000000 1.0
C      1  0.4924790000000  0.7249880000000  0.5398630000000 1.0
C      1  0.7230650000000  0.5081660000000  0.5393860000000 1.0
C      1  0.6284640000000  0.5629360000000  0.5466770000000 1.0
C      1  0.5638330000000  0.3690550000000  0.5466430000000 1.0
C      1  0.3715290000000  0.4370620000000  0.5466780000000 1.0
C      1  0.4361680000000  0.6309440000000  0.5466530000000 1.0
C      1  0.6500920000000  0.5506320000000  0.4369160000000 1.0
C      1  0.5526120000000  0.3450730000000  0.4365600000000 1.0
C      1  0.3499000000000  0.4493720000000  0.4369210000000 1.0
C      1  0.4473950000000  0.6549100000000  0.4365690000000 1.0
C      1  0.6752620000000  0.3313900000000  0.6275910000000 1.0
C      1  0.3313230000000  0.3265090000000  0.6272220000000 1.0
C      1  0.3247460000000  0.6686120000000  0.6276070000000 1.0
C      1  0.6686780000000  0.6734890000000  0.6272250000000 1.0
C      1  0.6617890000000  0.3183180000000  0.3649320000000 1.0
C      1  0.3204820000000  0.3418360000000  0.3639720000000 1.0
C      1  0.3382180000000  0.6816840000000  0.3649480000000 1.0
C      1  0.6795110000000  0.6581650000000  0.3639630000000 1.0
C      1  0.4328180000000  0.4708170000000  0.3680570000000 1.0
C      1  0.4679700000000  0.5737380000000  0.3677600000000 1.0
C      1  0.5671790000000  0.5291790000000  0.3680520000000 1.0
C      1  0.5320300000000  0.4262550000000  0.3677560000000 1.0
C      1  0.4329340000000  0.4680210000000  0.6271330000000 1.0
C      1  0.4668050000000  0.5698990000000  0.6272570000000 1.0
C      1  0.5670650000000  0.5319750000000  0.6271320000000 1.0
C      1  0.5331960000000  0.4300970000000  0.6272500000000 1.0
C      1  0.5804850000000  0.7239640000000  0.5957260000000 1.0
C      1  0.7239190000000  0.4203520000000  0.5956100000000 1.0
C      1  0.4195120000000  0.2760350000000  0.5957240000000 1.0
C      1  0.2760840000000  0.5796540000000  0.5956150000000 1.0
C      1  0.6149960000000  0.7042890000000  0.4250150000000 1.0
C      1  0.7057770000000  0.3846660000000  0.4253560000000 1.0
C      1  0.3850040000000  0.2957070000000  0.4250080000000 1.0
C      1  0.2942190000000  0.6153270000000  0.4253510000000 1.0
C      1  0.7231650000000  0.6349540000000  0.4606580000000 1.0
C      1  0.6387040000000  0.2749340000000  0.4614310000000 1.0
C      1  0.2768270000000  0.3650550000000  0.4606680000000 1.0
C      1  0.3613300000000  0.7250860000000  0.4614490000000 1.0
C      1  0.7306410000000  0.6624650000000  0.5516290000000 1.0
C      1  0.6653970000000  0.2687980000000  0.5525710000000 1.0
C      1  0.2693610000000  0.3375360000000  0.5516320000000 1.0
C      1  0.3346190000000  0.7312190000000  0.5525930000000 1.0
C      1  0.3609220000000  0.4103240000000  0.3105700000000 1.0
C      1  0.4066530000000  0.6428760000000  0.3107020000000 1.0
C      1  0.6390700000000  0.5896780000000  0.3105640000000 1.0
C      1  0.5933490000000  0.3571240000000  0.3106950000000 1.0
C      1  0.3566880000000  0.4063450000000  0.6753090000000 1.0
C      1  0.4049560000000  0.6445740000000  0.6753790000000 1.0
C      1  0.6433110000000  0.5936500000000  0.6753070000000 1.0
C      1  0.5950470000000  0.3554200000000  0.6753680000000 1.0
C      1  0.3966300000000  0.3415820000000  0.5127570000000 1.0
C      1  0.3409670000000  0.6043410000000  0.5126970000000 1.0
C      1  0.6033410000000  0.6584210000000  0.5127490000000 1.0
C      1  0.6590220000000  0.3956450000000  0.5127110000000 1.0
END
