TITL C-986976-6631-549 0.00842891328389574 3375 -341.322757312561 0 0 60 (C1) n - 1
REM
REM in /home/bkarasulu/work/CARBON/AIRSS/Generating-Clusters/REBO/Higher-Symm/Only-C60
REM
REM
REM
REM
REM
REM ./C.cell (a2850807a9bf4ad07a5b6933b78d9264)
REM AIRSS Version 0.9.1 bugfix July 2018 build 013d7b7c2542+ Fri, 06 Jul 2018 19:26:36 +0100
REM compiler GCC version 9.2.1 20190827 (Red Hat 9.2.1-1)
REM options -cpp -mtune=generic -march=x86-64 -g -O0 -fpre-include=/usr/include/finclude/math-vector-fortran.h
REM seed -1509437351 -21248721 -2068670608 773271340 -701609476 621109174 970676827 -1801526424 673488798 -1719516613 2013622149 1643290205 42482492 -4420249 -2068631377 2144460274 325714114 -1341292184 -603817702 -2113096467 -1865705752 630090561 -1237589386 1104423073 -1527663133 -1260420044 -1308754878 -1291436833 475364566 -1900177346 1369188554 -86700830 468282267
REM
CELL 1.54180   15.00000   15.00000   15.00000   90.00000   90.00000   90.00000
LATT -1
SFAC C  
C      1  0.2830450000000  0.5613900000000  0.5700770000000 1.0
C      1  0.4532320000000  0.2922400000000  0.5041920000000 1.0
C      1  0.5944690000000  0.5124120000000  0.4118550000000 1.0
C      1  0.7101070000000  0.4070590000000  0.5500110000000 1.0
C      1  0.4284040000000  0.4508600000000  0.2971530000000 1.0
C      1  0.3109200000000  0.5780870000000  0.6801520000000 1.0
C      1  0.6736510000000  0.4824940000000  0.6248530000000 1.0
C      1  0.4801620000000  0.3234660000000  0.3984140000000 1.0
C      1  0.4975250000000  0.5724120000000  0.5370920000000 1.0
C      1  0.6220540000000  0.3611660000000  0.6049330000000 1.0
C      1  0.6081350000000  0.6915190000000  0.5712110000000 1.0
C      1  0.5239880000000  0.6828890000000  0.3673850000000 1.0
C      1  0.6352930000000  0.6810550000000  0.3939860000000 1.0
C      1  0.3923770000000  0.4781680000000  0.6491660000000 1.0
C      1  0.7199230000000  0.4019900000000  0.3802150000000 1.0
C      1  0.5869890000000  0.3862240000000  0.2981870000000 1.0
C      1  0.6741070000000  0.5568240000000  0.5507050000000 1.0
C      1  0.5126920000000  0.4054600000000  0.7243900000000 1.0
C      1  0.3391450000000  0.5690800000000  0.3678930000000 1.0
C      1  0.3355270000000  0.3986290000000  0.5970820000000 1.0
C      1  0.3710110000000  0.6424380000000  0.4412930000000 1.0
C      1  0.1962210000000  0.5287470000000  0.6355990000000 1.0
C      1  0.5571560000000  0.4060760000000  0.4036780000000 1.0
C      1  0.6669890000000  0.3407760000000  0.4401700000000 1.0
C      1  0.7297860000000  0.5409700000000  0.4724970000000 1.0
C      1  0.4720520000000  0.6894320000000  0.4604150000000 1.0
C      1  0.3975590000000  0.5531760000000  0.2928220000000 1.0
C      1  0.4805830000000  0.4899310000000  0.5927520000000 1.0
C      1  0.6081230000000  0.4199800000000  0.6939900000000 1.0
C      1  0.3167750000000  0.4790600000000  0.5192480000000 1.0
C      1  0.4850090000000  0.3702350000000  0.2982020000000 1.0
C      1  0.4407940000000  0.5604360000000  0.4533930000000 1.0
C      1  0.4881190000000  0.6095560000000  0.2905450000000 1.0
C      1  0.3755170000000  0.3037650000000  0.4223320000000 1.0
C      1  0.6181570000000  0.5294900000000  0.7099690000000 1.0
C      1  0.2809370000000  0.4699110000000  0.6666580000000 1.0
C      1  0.4059660000000  0.4154660000000  0.4853780000000 1.0
C      1  0.4173330000000  0.5962520000000  0.7049340000000 1.0
C      1  0.3024390000000  0.4921930000000  0.4092740000000 1.0
C      1  0.3231790000000  0.3899970000000  0.4203350000000 1.0
C      1  0.6723940000000  0.4316310000000  0.3017280000000 1.0
C      1  0.4657480000000  0.4959270000000  0.7249230000000 1.0
C      1  0.5435310000000  0.5146530000000  0.3128370000000 1.0
C      1  0.4567440000000  0.6662040000000  0.5706420000000 1.0
C      1  0.5875510000000  0.3806390000000  0.5048500000000 1.0
C      1  0.4721180000000  0.3346900000000  0.6771710000000 1.0
C      1  0.5258970000000  0.3021320000000  0.5908460000000 1.0
C      1  0.4637460000000  0.4957480000000  0.3919530000000 1.0
C      1  0.7435850000000  0.4461780000000  0.4686730000000 1.0
C      1  0.6543640000000  0.5336360000000  0.2950940000000 1.0
C      1  0.5999400000000  0.6331200000000  0.2972630000000 1.0
C      1  0.5438720000000  0.6581880000000  0.6279700000000 1.0
C      1  0.5308110000000  0.5861200000000  0.7011150000000 1.0
C      1  0.5902460000000  0.5649720000000  0.5035330000000 1.0
C      1  0.4873120000000  0.4192010000000  0.5261070000000 1.0
C      1  0.4028250000000  0.3251100000000  0.5969690000000 1.0
C      1  0.5826350000000  0.7025200000000  0.4839540000000 1.0
C      1  0.3123680000000  0.6517260000000  0.5226950000000 1.0
C      1  0.6812960000000  0.5841420000000  0.3904670000000 1.0
C      1  0.3675630000000  0.6521540000000  0.6187760000000 1.0
END
