TITL C-986975-4297-695 2.0790781103133e-06 3375 -351.103324139431 0 0 60 (C1) n - 1
REM
REM in /home/bkarasulu/work/CARBON/AIRSS/Generating-Clusters/REBO/Higher-Symm/Only-C60
REM
REM
REM
REM
REM
REM ./C.cell (a2850807a9bf4ad07a5b6933b78d9264)
REM AIRSS Version 0.9.1 bugfix July 2018 build 013d7b7c2542+ Fri, 06 Jul 2018 19:26:36 +0100
REM compiler GCC version 9.2.1 20190827 (Red Hat 9.2.1-1)
REM options -cpp -mtune=generic -march=x86-64 -g -O0 -fpre-include=/usr/include/finclude/math-vector-fortran.h
REM seed -471626035 -1850378274 -1949035799 562868652 -1394446067 -1301758019 -793001896 285599667 -2020390632 1292844593 581596573 367221701 -199865944 1241866007 1501547052 2054326708 -408940763 2099495009 162433603 1387250821 -1596148044 -718438634 241518606 -1101712787 -718926756 -763523708 -1359334089 1645820136 -1776975659 -1073541342 -1454184408 -178675464 -429976044
REM
CELL 1.54180   15.00000   15.00000   15.00000   90.00000   90.00000   90.00000
LATT -1
SFAC C  
C      1  0.6455740000000  0.3477420000000  0.3969780000000 1.0
C      1  0.3501060000000  0.6452440000000  0.4474750000000 1.0
C      1  0.6389240000000  0.3779190000000  0.6658340000000 1.0
C      1  0.5772680000000  0.3142590000000  0.4744060000000 1.0
C      1  0.5705110000000  0.7278020000000  0.5209150000000 1.0
C      1  0.2896290000000  0.4747340000000  0.3418820000000 1.0
C      1  0.4707270000000  0.3475030000000  0.4810450000000 1.0
C      1  0.4532620000000  0.5311040000000  0.3689250000000 1.0
C      1  0.4091340000000  0.7119600000000  0.5100520000000 1.0
C      1  0.4688160000000  0.6703690000000  0.6628000000000 1.0
C      1  0.2865380000000  0.4778670000000  0.4557920000000 1.0
C      1  0.5390440000000  0.4688160000000  0.5989760000000 1.0
C      1  0.4932020000000  0.7399470000000  0.4676140000000 1.0
C      1  0.6062580000000  0.4384240000000  0.3492800000000 1.0
C      1  0.4867470000000  0.3230070000000  0.2999010000000 1.0
C      1  0.3791070000000  0.3606250000000  0.6608240000000 1.0
C      1  0.7502830000000  0.5501280000000  0.5109270000000 1.0
C      1  0.4099100000000  0.3932330000000  0.5313020000000 1.0
C      1  0.3212420000000  0.4565500000000  0.2590070000000 1.0
C      1  0.6948550000000  0.4588570000000  0.6909880000000 1.0
C      1  0.4368990000000  0.4649000000000  0.6007300000000 1.0
C      1  0.6463060000000  0.6737240000000  0.4830930000000 1.0
C      1  0.5738220000000  0.6364550000000  0.5881930000000 1.0
C      1  0.5852340000000  0.6397580000000  0.3340640000000 1.0
C      1  0.6974410000000  0.4480600000000  0.4073420000000 1.0
C      1  0.4129060000000  0.5076350000000  0.7051910000000 1.0
C      1  0.3215560000000  0.6103890000000  0.6170610000000 1.0
C      1  0.3508150000000  0.5462400000000  0.3922650000000 1.0
C      1  0.5566980000000  0.5113410000000  0.4990150000000 1.0
C      1  0.3071930000000  0.5669970000000  0.5149560000000 1.0
C      1  0.5311190000000  0.4772480000000  0.4081860000000 1.0
C      1  0.6835590000000  0.6171860000000  0.5649360000000 1.0
C      1  0.5033980000000  0.3092040000000  0.3883430000000 1.0
C      1  0.5361570000000  0.3962380000000  0.7103260000000 1.0
C      1  0.3995200000000  0.6863210000000  0.6020020000000 1.0
C      1  0.4655150000000  0.5365240000000  0.2683560000000 1.0
C      1  0.4334360000000  0.4124950000000  0.7227470000000 1.0
C      1  0.7276740000000  0.4567670000000  0.5512610000000 1.0
C      1  0.4594810000000  0.3781480000000  0.2332590000000 1.0
C      1  0.4392280000000  0.2971250000000  0.6187800000000 1.0
C      1  0.5124900000000  0.6911670000000  0.3757570000000 1.0
C      1  0.5588120000000  0.5706440000000  0.2656790000000 1.0
C      1  0.4089640000000  0.5584240000000  0.5662470000000 1.0
C      1  0.2963440000000  0.5024760000000  0.6408350000000 1.0
C      1  0.3048820000000  0.3959320000000  0.5104430000000 1.0
C      1  0.5287750000000  0.3186410000000  0.6302870000000 1.0
C      1  0.5552850000000  0.5975760000000  0.6855610000000 1.0
C      1  0.4533360000000  0.5875320000000  0.7259720000000 1.0
C      1  0.5883730000000  0.4968120000000  0.6949000000000 1.0
C      1  0.4552720000000  0.6198840000000  0.4258700000000 1.0
C      1  0.6229880000000  0.3275880000000  0.5694660000000 1.0
C      1  0.4931410000000  0.5959700000000  0.5194370000000 1.0
C      1  0.7179590000000  0.5467840000000  0.4191730000000 1.0
C      1  0.6577460000000  0.6229400000000  0.3997740000000 1.0
C      1  0.2621480000000  0.3179130000000  0.4837430000000 1.0
C      1  0.6390100000000  0.5155060000000  0.5734480000000 1.0
C      1  0.6937100000000  0.3745830000000  0.4963390000000 1.0
C      1  0.3114430000000  0.4151830000000  0.6169810000000 1.0
C      1  0.4140070000000  0.4618390000000  0.2314610000000 1.0
C      1  0.6162200000000  0.4937620000000  0.2635960000000 1.0
END
