TITL C-986975-4297-853 3.70793347259368e-06 3375 -349.597844795601 0 0 60 (C5) n - 1
REM
REM in /home/bkarasulu/work/CARBON/AIRSS/Generating-Clusters/REBO/Higher-Symm/Only-C60
REM
REM
REM
REM
REM
REM ./C.cell (a2850807a9bf4ad07a5b6933b78d9264)
REM AIRSS Version 0.9.1 bugfix July 2018 build 013d7b7c2542+ Fri, 06 Jul 2018 19:26:36 +0100
REM compiler GCC version 9.2.1 20190827 (Red Hat 9.2.1-1)
REM options -cpp -mtune=generic -march=x86-64 -g -O0 -fpre-include=/usr/include/finclude/math-vector-fortran.h
REM seed -1416890827 -1315394062 1518386179 -981661397 594190498 277263626 364003468 -1168249619 1988483770 -1278316068 -2020081284 -1741733272 158245867 2017605661 904617767 2071109350 -2090974150 -1952984420 1205177018 -1102933232 7665902 1214721949 -1283473563 -687037018 -1490368139 1813195058 92506819 885383320 1928324591 -1278540684 -1439167269 -567970591 -1580911447
REM
CELL 1.54180   15.00000   15.00000   15.00000   90.00000   90.00000   90.00000
LATT -1
SFAC C  
C      1  0.3888680000000  0.3287270000000  0.5698290000000 1.0
C      1  0.3888080000000  0.5134800000000  0.6844330000000 1.0
C      1  0.3887850000000  0.6795660000000  0.5441370000000 1.0
C      1  0.3888310000000  0.5974600000000  0.3428260000000 1.0
C      1  0.3888830000000  0.3806300000000  0.3587050000000 1.0
C      1  0.5089310000000  0.7700120000000  0.4757350000000 1.0
C      1  0.5090130000000  0.5603610000000  0.2357080000000 1.0
C      1  0.5090690000000  0.2672970000000  0.3609250000000 1.0
C      1  0.5090220000000  0.2958230000000  0.6783400000000 1.0
C      1  0.5089360000000  0.6065180000000  0.7492970000000 1.0
C      1  0.5836530000000  0.3663170000000  0.6893430000000 1.0
C      1  0.5835860000000  0.6387700000000  0.6856770000000 1.0
C      1  0.5836000000000  0.7194750000000  0.4254260000000 1.0
C      1  0.5836750000000  0.4969020000000  0.2682490000000 1.0
C      1  0.5837070000000  0.2786380000000  0.4313580000000 1.0
C      1  0.2229940000000  0.5243570000000  0.4186950000000 1.0
C      1  0.2230130000000  0.4301870000000  0.4516210000000 1.0
C      1  0.2230000000000  0.4324020000000  0.5513570000000 1.0
C      1  0.2229720000000  0.5279410000000  0.5800700000000 1.0
C      1  0.2229690000000  0.5847720000000  0.4980800000000 1.0
C      1  0.3854450000000  0.4600780000000  0.5871710000000 1.0
C      1  0.3854210000000  0.5705620000000  0.5648680000000 1.0
C      1  0.3854320000000  0.5834930000000  0.4529000000000 1.0
C      1  0.3854630000000  0.4810000000000  0.4060030000000 1.0
C      1  0.3854710000000  0.4047260000000  0.4889860000000 1.0
C      1  0.5391880000000  0.4195450000000  0.3284980000000 1.0
C      1  0.5391890000000  0.3120310000000  0.5235330000000 1.0
C      1  0.5391310000000  0.4642980000000  0.6860530000000 1.0
C      1  0.5390930000000  0.6659170000000  0.5914610000000 1.0
C      1  0.5391290000000  0.6382580000000  0.3704800000000 1.0
C      1  0.4730930000000  0.6146100000000  0.3060950000000 1.0
C      1  0.4731540000000  0.3510000000000  0.3310700000000 1.0
C      1  0.4731360000000  0.2932930000000  0.5894960000000 1.0
C      1  0.4730620000000  0.5212390000000  0.7242370000000 1.0
C      1  0.4730360000000  0.7198240000000  0.5490850000000 1.0
C      1  0.6686100000000  0.6483290000000  0.3989820000000 1.0
C      1  0.6686680000000  0.4497700000000  0.3277690000000 1.0
C      1  0.6686780000000  0.3206850000000  0.4946040000000 1.0
C      1  0.6686260000000  0.4394650000000  0.6689250000000 1.0
C      1  0.6685840000000  0.6419590000000  0.6098280000000 1.0
C      1  0.7133930000000  0.5635030000000  0.5501280000000 1.0
C      1  0.7134040000000  0.5673090000000  0.4551650000000 1.0
C      1  0.7134300000000  0.4781690000000  0.4221990000000 1.0
C      1  0.7134350000000  0.4192720000000  0.4967890000000 1.0
C      1  0.7134120000000  0.4720110000000  0.5758540000000 1.0
C      1  0.6418350000000  0.6672250000000  0.5068040000000 1.0
C      1  0.6418830000000  0.5581530000000  0.3431080000000 1.0
C      1  0.6419230000000  0.3687640000000  0.3962560000000 1.0
C      1  0.6418990000000  0.3607870000000  0.5928000000000 1.0
C      1  0.6418450000000  0.5452460000000  0.6611220000000 1.0
C      1  0.2996750000000  0.6436260000000  0.4947900000000 1.0
C      1  0.2997180000000  0.5394180000000  0.3617290000000 1.0
C      1  0.2997500000000  0.3806670000000  0.4197190000000 1.0
C      1  0.2997260000000  0.3867620000000  0.5886200000000 1.0
C      1  0.2996800000000  0.5492800000000  0.6350160000000 1.0
C      1  0.5742350000000  0.4542680000000  0.4245350000000 1.0
C      1  0.5742320000000  0.4141000000000  0.5201980000000 1.0
C      1  0.5742040000000  0.4926680000000  0.5879610000000 1.0
C      1  0.5741900000000  0.5813940000000  0.5341780000000 1.0
C      1  0.5742090000000  0.5576610000000  0.4331750000000 1.0
END
