TITL C-986975-4297-949 -0.357782477569225 3375 -336.631586877887 0 0 60 (C1) n - 1
REM
REM in /home/bkarasulu/work/CARBON/AIRSS/Generating-Clusters/REBO/Higher-Symm/Only-C60
REM
REM
REM
REM
REM
REM ./C.cell (a2850807a9bf4ad07a5b6933b78d9264)
REM AIRSS Version 0.9.1 bugfix July 2018 build 013d7b7c2542+ Fri, 06 Jul 2018 19:26:36 +0100
REM compiler GCC version 9.2.1 20190827 (Red Hat 9.2.1-1)
REM options -cpp -mtune=generic -march=x86-64 -g -O0 -fpre-include=/usr/include/finclude/math-vector-fortran.h
REM seed 273260782 1785841148 823998338 1811818300 578401760 870009636 -1578834902 -326418115 1917651206 38115684 395256831 -997445132 701485774 -1422657630 -891083247 -291806961 -1288098343 -1398396333 1332307155 -1275471729 169691654 1167043194 583155775 -1087711347 -1796916321 1551581753 -2077598765 -1447833806 -122698244 79649339 -231228503 -434887341 1947895600
REM
CELL 1.54180   15.00000   15.00000   15.00000   90.00000   90.00000   90.00000
LATT -1
SFAC C  
C      1  0.3675010000000  0.5528920000000  0.4495170000000 1.0
C      1  0.4939750000000  0.5670330000000  0.6519520000000 1.0
C      1  0.6263360000000  0.5761880000000  0.4277420000000 1.0
C      1  0.6846220000000  0.4923920000000  0.4696420000000 1.0
C      1  0.3954590000000  0.4829420000000  0.3230610000000 1.0
C      1  0.4352530000000  0.4600270000000  0.7042050000000 1.0
C      1  0.5144010000000  0.6489310000000  0.3496710000000 1.0
C      1  0.3344670000000  0.6372150000000  0.5471340000000 1.0
C      1  0.6192200000000  0.6500560000000  0.5880960000000 1.0
C      1  0.5103600000000  0.2895420000000  0.3002680000000 1.0
C      1  0.3212400000000  0.3211030000000  0.5360280000000 1.0
C      1  0.6565200000000  0.2850420000000  0.6388410000000 1.0
C      1  0.2595970000000  0.5393970000000  0.4203450000000 1.0
C      1  0.5751150000000  0.5743610000000  0.7262740000000 1.0
C      1  0.6634370000000  0.5743360000000  0.2976180000000 1.0
C      1  0.3456760000000  0.4717060000000  0.5102220000000 1.0
C      1  0.5571780000000  0.4791860000000  0.6353380000000 1.0
C      1  0.5986550000000  0.4826390000000  0.3693020000000 1.0
C      1  0.5043760000000  0.2734880000000  0.4045680000000 1.0
C      1  0.3946110000000  0.2525330000000  0.5668640000000 1.0
C      1  0.5741320000000  0.2623780000000  0.5765330000000 1.0
C      1  0.2525080000000  0.5999030000000  0.4972080000000 1.0
C      1  0.6416070000000  0.6231710000000  0.6865290000000 1.0
C      1  0.5921900000000  0.6150890000000  0.2919750000000 1.0
C      1  0.6405720000000  0.6771240000000  0.4348970000000 1.0
C      1  0.3710150000000  0.6542790000000  0.4202290000000 1.0
C      1  0.4677660000000  0.6681130000000  0.6401440000000 1.0
C      1  0.6776240000000  0.4057890000000  0.3981070000000 1.0
C      1  0.3233160000000  0.3890980000000  0.4709730000000 1.0
C      1  0.5325020000000  0.3993080000000  0.7090960000000 1.0
C      1  0.3817040000000  0.3485260000000  0.6273900000000 1.0
C      1  0.6378500000000  0.3518550000000  0.5488340000000 1.0
C      1  0.4607550000000  0.3704530000000  0.3627950000000 1.0
C      1  0.3777320000000  0.4610650000000  0.6139110000000 1.0
C      1  0.6293820000000  0.4556820000000  0.5593720000000 1.0
C      1  0.5014450000000  0.4694310000000  0.3567130000000 1.0
C      1  0.4120940000000  0.6668940000000  0.3399300000000 1.0
C      1  0.3795610000000  0.6852770000000  0.6316040000000 1.0
C      1  0.6791570000000  0.6968560000000  0.5167860000000 1.0
C      1  0.4665400000000  0.5626410000000  0.4026380000000 1.0
C      1  0.4093640000000  0.5645160000000  0.5800720000000 1.0
C      1  0.5878330000000  0.5583050000000  0.5320270000000 1.0
C      1  0.4539270000000  0.3283750000000  0.7000660000000 1.0
C      1  0.6700960000000  0.3296520000000  0.4516970000000 1.0
C      1  0.3599730000000  0.3711260000000  0.3860540000000 1.0
C      1  0.3973420000000  0.7160540000000  0.4948380000000 1.0
C      1  0.5330790000000  0.7096000000000  0.5858500000000 1.0
C      1  0.5531640000000  0.7164840000000  0.4172960000000 1.0
C      1  0.3087270000000  0.4975830000000  0.3435420000000 1.0
C      1  0.5219170000000  0.4983010000000  0.7621670000000 1.0
C      1  0.7148900000000  0.5059640000000  0.3577230000000 1.0
C      1  0.4865380000000  0.5401190000000  0.5081100000000 1.0
C      1  0.4972600000000  0.8603160000000  0.5004720000000 1.0
C      1  0.4767480000000  0.3553210000000  0.5093950000000 1.0
C      1  0.4934630000000  0.1304460000000  0.5021880000000 1.0
C      1  0.4951200000000  0.0407096000000  0.5007100000000 1.0
C      1  0.4961090000000  0.7544000000000  0.4979280000000 1.0
C      1  0.4771820000000  0.4354910000000  0.5086950000000 1.0
C      1  0.4902770000000  0.2414320000000  0.5124040000000 1.0
C      1  0.4964680000000  0.9500730000000  0.5006080000000 1.0
END
