TITL C-986979-5873-688 2.5503802557204e-07 3375 -335.500511076873 0 0 60 (C3) n - 1
REM
REM in /home/bkarasulu/work/CARBON/AIRSS/Generating-Clusters/REBO/Higher-Symm/Only-C60
REM
REM
REM
REM
REM
REM ./C.cell (a2850807a9bf4ad07a5b6933b78d9264)
REM AIRSS Version 0.9.1 bugfix July 2018 build 013d7b7c2542+ Fri, 06 Jul 2018 19:26:36 +0100
REM compiler GCC version 9.2.1 20190827 (Red Hat 9.2.1-1)
REM options -cpp -mtune=generic -march=x86-64 -g -O0 -fpre-include=/usr/include/finclude/math-vector-fortran.h
REM seed 2138673549 -1465617977 1880462660 712051328 -1524987161 -1479358368 437142147 2005928619 -147982636 402698049 -2018677677 -76776136 1824873807 -1199197270 1660748990 1076794938 1423595437 -1626566790 -470986723 -1127736008 166025631 121522369 -859264932 -501676146 -2053110060 -823380016 -1081666327 436929687 2084944359 -1489039693 1591878138 567973144 -1096617095
REM
CELL 1.54180   15.00000   15.00000   15.00000   90.00000   90.00000   90.00000
LATT -1
SFAC C  
C      1  0.5547630000000  0.4236870000000  0.6567750000000 1.0
C      1  0.6083860000000  0.4236640000000  0.3741970000000 1.0
C      1  0.3368540000000  0.4236690000000  0.4690470000000 1.0
C      1  0.3598440000000  0.5768320000000  0.5734430000000 1.0
C      1  0.6336840000000  0.5768370000000  0.5846460000000 1.0
C      1  0.5064670000000  0.5768140000000  0.3418910000000 1.0
C      1  0.6951010000000  0.6675170000000  0.4434500000000 1.0
C      1  0.3534850000000  0.6675060000000  0.3592900000000 1.0
C      1  0.4514060000000  0.6675340000000  0.6972180000000 1.0
C      1  0.3972170000000  0.4810520000000  0.5335990000000 1.0
C      1  0.5804880000000  0.4810570000000  0.5722160000000 1.0
C      1  0.5222960000000  0.4810420000000  0.3941900000000 1.0
C      1  0.5945580000000  0.4209630000000  0.4870480000000 1.0
C      1  0.4415000000000  0.4209560000000  0.4245970000000 1.0
C      1  0.4639450000000  0.4209700000000  0.5883750000000 1.0
C      1  0.4411070000000  0.6107670000000  0.6329370000000 1.0
C      1  0.6445780000000  0.6107580000000  0.4845180000000 1.0
C      1  0.4143090000000  0.6107450000000  0.3825170000000 1.0
C      1  0.5498060000000  0.5780270000000  0.7085480000000 1.0
C      1  0.6557090000000  0.5779990000000  0.3525820000000 1.0
C      1  0.2944810000000  0.5780010000000  0.4388520000000 1.0
C      1  0.5250330000000  0.5032180000000  0.2571320000000 1.0
C      1  0.2771540000000  0.5032440000000  0.5997570000000 1.0
C      1  0.6978140000000  0.5032550000000  0.6431100000000 1.0
C      1  0.5816650000000  0.6464430000000  0.3725140000000 1.0
C      1  0.3487690000000  0.6464500000000  0.4929980000000 1.0
C      1  0.5695590000000  0.6464660000000  0.6344500000000 1.0
C      1  0.5556880000000  0.5587340000000  0.4680720000000 1.0
C      1  0.4445090000000  0.5587320000000  0.4677280000000 1.0
C      1  0.4998010000000  0.5587410000000  0.5641840000000 1.0
C      1  0.3815130000000  0.3449200000000  0.5668050000000 1.0
C      1  0.6170900000000  0.3449230000000  0.5692320000000 1.0
C      1  0.5014030000000  0.3449050000000  0.3640010000000 1.0
C      1  0.5420510000000  0.6907090000000  0.4499720000000 1.0
C      1  0.4356590000000  0.6907120000000  0.4885690000000 1.0
C      1  0.5222810000000  0.6907190000000  0.5614090000000 1.0
C      1  0.6184270000000  0.5034700000000  0.3053860000000 1.0
C      1  0.2722460000000  0.5034820000000  0.4947480000000 1.0
C      1  0.6093270000000  0.5035040000000  0.6998660000000 1.0
C      1  0.7629610000000  0.5356450000000  0.5620500000000 1.0
C      1  0.4222620000000  0.5356210000000  0.2412470000000 1.0
C      1  0.3147790000000  0.5356500000000  0.6967020000000 1.0
C      1  0.4676030000000  0.5442910000000  0.7452490000000 1.0
C      1  0.7285940000000  0.5442670000000  0.4054270000000 1.0
C      1  0.3038010000000  0.5442570000000  0.3493150000000 1.0
C      1  0.3573150000000  0.4874020000000  0.2947720000000 1.0
C      1  0.3936080000000  0.4874340000000  0.7261880000000 1.0
C      1  0.7490800000000  0.4874190000000  0.4790460000000 1.0
C      1  0.7230060000000  0.3931860000000  0.5048420000000 1.0
C      1  0.3926850000000  0.3931680000000  0.3044630000000 1.0
C      1  0.3843130000000  0.3931970000000  0.6907200000000 1.0
C      1  0.5368710000000  0.3204960000000  0.6403800000000 1.0
C      1  0.6031270000000  0.3204760000000  0.3979030000000 1.0
C      1  0.3600080000000  0.3204790000000  0.4617610000000 1.0
C      1  0.7036490000000  0.4036020000000  0.6073300000000 1.0
C      1  0.4911220000000  0.4035700000000  0.2699810000000 1.0
C      1  0.3052340000000  0.4035970000000  0.6227110000000 1.0
C      1  0.3940510000000  0.3090610000000  0.3727980000000 1.0
C      1  0.4428050000000  0.3090840000000  0.6553800000000 1.0
C      1  0.6631510000000  0.3090720000000  0.4718680000000 1.0
END
