TITL C-986976-6631-10 -6.07228375214998e-06 3375 -347.202896279455 0 0 60 (C3) n - 1
REM
REM in /home/bkarasulu/work/CARBON/AIRSS/Generating-Clusters/REBO/Higher-Symm/Only-C60
REM
REM
REM
REM
REM
REM ./C.cell (a2850807a9bf4ad07a5b6933b78d9264)
REM AIRSS Version 0.9.1 bugfix July 2018 build 013d7b7c2542+ Fri, 06 Jul 2018 19:26:36 +0100
REM compiler GCC version 9.2.1 20190827 (Red Hat 9.2.1-1)
REM options -cpp -mtune=generic -march=x86-64 -g -O0 -fpre-include=/usr/include/finclude/math-vector-fortran.h
REM seed 465847225 1811384126 -1850046922 1581415904 1394481998 -608703983 2036654562 -2028865746 -821272707 1688150457 308823712 -2087759924 1327156490 1583120479 -1663541172 -1461559329 1989201547 -1528977541 1195256225 -206373515 -1851877585 1501324366 1318719075 184024989 2133536282 1244461721 -279267308 -1455767664 2056967325 1935636188 -1822205422 1851450273 557307000
REM
CELL 1.54180   15.00000   15.00000   15.00000   90.00000   90.00000   90.00000
LATT -1
SFAC C  
C      1  0.6816380000000  0.5203890000000  0.7241980000000 1.0
C      1  0.7451680000000  0.6854900000000  0.5273460000000 1.0
C      1  0.5274180000000  0.7274260000000  0.6704850000000 1.0
C      1  0.3144500000000  0.4726770000000  0.7451260000000 1.0
C      1  0.3395380000000  0.5297480000000  0.2571330000000 1.0
C      1  0.6704280000000  0.4726450000000  0.2725230000000 1.0
C      1  0.2724960000000  0.3296050000000  0.5273350000000 1.0
C      1  0.2571580000000  0.6605230000000  0.4703750000000 1.0
C      1  0.7241570000000  0.3183270000000  0.4794840000000 1.0
C      1  0.4794810000000  0.2757700000000  0.6815830000000 1.0
C      1  0.4703870000000  0.7429160000000  0.3395870000000 1.0
C      1  0.5272560000000  0.2549050000000  0.3143990000000 1.0
C      1  0.5193640000000  0.6651400000000  0.7265990000000 1.0
C      1  0.6819370000000  0.7415750000000  0.5232380000000 1.0
C      1  0.7432380000000  0.5198920000000  0.6661500000000 1.0
C      1  0.4799890000000  0.3338040000000  0.7431970000000 1.0
C      1  0.5231470000000  0.3181610000000  0.2583420000000 1.0
C      1  0.4847170000000  0.6869190000000  0.2782230000000 1.0
C      1  0.3347600000000  0.2734670000000  0.5192800000000 1.0
C      1  0.6660970000000  0.2567370000000  0.4799670000000 1.0
C      1  0.3131780000000  0.7218600000000  0.4847310000000 1.0
C      1  0.2583790000000  0.4768230000000  0.6818840000000 1.0
C      1  0.7265580000000  0.4806610000000  0.3348000000000 1.0
C      1  0.2781840000000  0.5154060000000  0.3131380000000 1.0
C      1  0.5694850000000  0.4902250000000  0.2934860000000 1.0
C      1  0.2857020000000  0.5610780000000  0.4872950000000 1.0
C      1  0.4987430000000  0.3069700000000  0.5838890000000 1.0
C      1  0.4389700000000  0.5127800000000  0.2856930000000 1.0
C      1  0.4127650000000  0.4989890000000  0.7245820000000 1.0
C      1  0.5839320000000  0.5011580000000  0.6930110000000 1.0
C      1  0.6929940000000  0.4160300000000  0.4987620000000 1.0
C      1  0.7245990000000  0.5871900000000  0.5009970000000 1.0
C      1  0.2934750000000  0.4305520000000  0.5097920000000 1.0
C      1  0.5098490000000  0.7064940000000  0.5695330000000 1.0
C      1  0.5009330000000  0.2754370000000  0.4127150000000 1.0
C      1  0.4873230000000  0.7143260000000  0.4390160000000 1.0
C      1  0.5123080000000  0.5876800000000  0.3009150000000 1.0
C      1  0.5656190000000  0.2828180000000  0.4955900000000 1.0
C      1  0.2910100000000  0.5048830000000  0.5856420000000 1.0
C      1  0.4951220000000  0.4144070000000  0.2909890000000 1.0
C      1  0.4956270000000  0.4342900000000  0.7171550000000 1.0
C      1  0.4991890000000  0.5655130000000  0.6959290000000 1.0
C      1  0.4124020000000  0.6991190000000  0.5123360000000 1.0
C      1  0.5856820000000  0.7089750000000  0.4951860000000 1.0
C      1  0.4344040000000  0.3040990000000  0.4991320000000 1.0
C      1  0.7171710000000  0.5043030000000  0.5656630000000 1.0
C      1  0.3008930000000  0.4877680000000  0.4123600000000 1.0
C      1  0.6959140000000  0.5008000000000  0.4344430000000 1.0
C      1  0.5918690000000  0.3828370000000  0.5274680000000 1.0
C      1  0.3861360000000  0.5404530000000  0.6308880000000 1.0
C      1  0.5360460000000  0.6269470000000  0.4028740000000 1.0
C      1  0.6171330000000  0.4724610000000  0.5918860000000 1.0
C      1  0.5978860000000  0.5334160000000  0.3872920000000 1.0
C      1  0.4028390000000  0.4640280000000  0.3730600000000 1.0
C      1  0.4595140000000  0.3691550000000  0.3860990000000 1.0
C      1  0.4666120000000  0.6127000000000  0.5979050000000 1.0
C      1  0.5274770000000  0.4080760000000  0.6171180000000 1.0
C      1  0.3730880000000  0.5971710000000  0.5360420000000 1.0
C      1  0.3872650000000  0.4021500000000  0.4665680000000 1.0
C      1  0.6309010000000  0.6138550000000  0.4595650000000 1.0
END
