TITL C-986978-6805-278 0.0141438540746349 3375 -325.326301509149 0 0 60 (C1) n - 1
REM
REM in /home/bkarasulu/work/CARBON/AIRSS/Generating-Clusters/REBO/Higher-Symm/Only-C60
REM
REM
REM
REM
REM
REM ./C.cell (a2850807a9bf4ad07a5b6933b78d9264)
REM AIRSS Version 0.9.1 bugfix July 2018 build 013d7b7c2542+ Fri, 06 Jul 2018 19:26:36 +0100
REM compiler GCC version 9.2.1 20190827 (Red Hat 9.2.1-1)
REM options -cpp -mtune=generic -march=x86-64 -g -O0 -fpre-include=/usr/include/finclude/math-vector-fortran.h
REM seed 1996704022 -1170301971 1851914938 -1104563485 -1200571432 1906770958 -1519552544 388965167 -301524421 -782162123 -1916497838 -332747660 1808520499 -224022514 -386976209 222210239 449221637 -1925801039 903515218 1012674467 1249406983 2042697131 1094950011 1259640267 1792632868 -791242067 37288111 -10114446 -404130819 446420630 127870112 -734726336 -457538610
REM
CELL 1.54180   15.00000   15.00000   15.00000   90.00000   90.00000   90.00000
LATT -1
SFAC C  
C      1  0.4672200000000  0.5055810000000  0.7319850000000 1.0
C      1  0.3385150000000  0.5869620000000  0.3845630000000 1.0
C      1  0.3539830000000  0.6281900000000  0.5998960000000 1.0
C      1  0.3657110000000  0.4768580000000  0.6514180000000 1.0
C      1  0.5321140000000  0.3619030000000  0.3786280000000 1.0
C      1  0.4524900000000  0.4564310000000  0.3399740000000 1.0
C      1  0.4376970000000  0.5591680000000  0.4234880000000 1.0
C      1  0.7432920000000  0.4996780000000  0.6054310000000 1.0
C      1  0.5750680000000  0.5244790000000  0.4788450000000 1.0
C      1  0.6067640000000  0.4491180000000  0.5458120000000 1.0
C      1  0.3971650000000  0.2677590000000  0.5400200000000 1.0
C      1  0.6624470000000  0.6642160000000  0.4476590000000 1.0
C      1  0.7373620000000  0.4242920000000  0.5488290000000 1.0
C      1  0.6137170000000  0.4643610000000  0.2956910000000 1.0
C      1  0.6203970000000  0.3347230000000  0.6242310000000 1.0
C      1  0.5503030000000  0.6969490000000  0.5578330000000 1.0
C      1  0.5238010000000  0.5013470000000  0.2685640000000 1.0
C      1  0.5261630000000  0.6092440000000  0.6191620000000 1.0
C      1  0.6689670000000  0.3204600000000  0.4171940000000 1.0
C      1  0.2984710000000  0.4905580000000  0.4005370000000 1.0
C      1  0.5517910000000  0.4732510000000  0.3949020000000 1.0
C      1  0.6806430000000  0.3328130000000  0.5279040000000 1.0
C      1  0.5853430000000  0.6720710000000  0.3681960000000 1.0
C      1  0.5270360000000  0.7067970000000  0.4540530000000 1.0
C      1  0.2977650000000  0.5427310000000  0.5505570000000 1.0
C      1  0.6307610000000  0.3773800000000  0.3470440000000 1.0
C      1  0.2997800000000  0.6776980000000  0.5193170000000 1.0
C      1  0.2961800000000  0.6611670000000  0.4382470000000 1.0
C      1  0.5508380000000  0.3558910000000  0.5377930000000 1.0
C      1  0.4906580000000  0.4590890000000  0.6094580000000 1.0
C      1  0.4370990000000  0.6745330000000  0.5466600000000 1.0
C      1  0.6961030000000  0.5776190000000  0.5953560000000 1.0
C      1  0.3262590000000  0.3756700000000  0.5097150000000 1.0
C      1  0.5851230000000  0.2823130000000  0.4711170000000 1.0
C      1  0.6700580000000  0.5963900000000  0.3669230000000 1.0
C      1  0.3808150000000  0.3731760000000  0.6093470000000 1.0
C      1  0.4592950000000  0.6165790000000  0.7457680000000 1.0
C      1  0.5280130000000  0.3856600000000  0.6649810000000 1.0
C      1  0.4563400000000  0.3640840000000  0.5238890000000 1.0
C      1  0.3908050000000  0.4991410000000  0.2628330000000 1.0
C      1  0.3764050000000  0.3020870000000  0.4391660000000 1.0
C      1  0.6173780000000  0.4825340000000  0.6457040000000 1.0
C      1  0.4265330000000  0.4016020000000  0.7102790000000 1.0
C      1  0.4329930000000  0.4488150000000  0.4511700000000 1.0
C      1  0.2925270000000  0.4310890000000  0.3305630000000 1.0
C      1  0.3443060000000  0.5669820000000  0.2821790000000 1.0
C      1  0.6239140000000  0.6147660000000  0.5292430000000 1.0
C      1  0.4811410000000  0.6363290000000  0.3518090000000 1.0
C      1  0.6845390000000  0.4504070000000  0.4624070000000 1.0
C      1  0.4951230000000  0.5856780000000  0.5119330000000 1.0
C      1  0.3823660000000  0.5751880000000  0.6822690000000 1.0
C      1  0.2976200000000  0.4663560000000  0.4911260000000 1.0
C      1  0.6924970000000  0.5097570000000  0.3921410000000 1.0
C      1  0.4982060000000  0.6888010000000  0.7708350000000 1.0
C      1  0.4177570000000  0.4870340000000  0.5518660000000 1.0
C      1  0.4260470000000  0.6911080000000  0.4349700000000 1.0
C      1  0.4829700000000  0.2867960000000  0.4194060000000 1.0
C      1  0.5043610000000  0.5906360000000  0.2604050000000 1.0
C      1  0.5561630000000  0.5470660000000  0.6823330000000 1.0
C      1  0.6548030000000  0.4106390000000  0.6963780000000 1.0
END
