TITL C-986976-6631-810 3.66726942399636e-06 3375 -341.808570993179 0 0 60 (C2) n - 1
REM
REM in /home/bkarasulu/work/CARBON/AIRSS/Generating-Clusters/REBO/Higher-Symm/Only-C60
REM
REM
REM
REM
REM
REM ./C.cell (a2850807a9bf4ad07a5b6933b78d9264)
REM AIRSS Version 0.9.1 bugfix July 2018 build 013d7b7c2542+ Fri, 06 Jul 2018 19:26:36 +0100
REM compiler GCC version 9.2.1 20190827 (Red Hat 9.2.1-1)
REM options -cpp -mtune=generic -march=x86-64 -g -O0 -fpre-include=/usr/include/finclude/math-vector-fortran.h
REM seed 1243704827 -1754940488 -1021416582 -1843895558 1256328601 -1809108861 1221457607 804384107 -1558262621 1204326957 -1181372760 -1992777309 1899569724 942581063 1323512177 1545039080 -304569210 374644326 1703842365 -1155593408 2081041573 -1005481877 1341784000 1417654772 586730030 817671960 -604948783 1244078044 749962821 -2141281646 -1239400368 -804466684 -301101675
REM
CELL 1.54180   15.00000   15.00000   15.00000   90.00000   90.00000   90.00000
LATT -1
SFAC C  
C      1  0.3217790000000  0.4253540000000  0.7268960000000 1.0
C      1  0.3955770000000  0.3445650000000  0.7151550000000 1.0
C      1  0.5049560000000  0.3372690000000  0.7286520000000 1.0
C      1  0.6091790000000  0.3722610000000  0.7182020000000 1.0
C      1  0.6655310000000  0.4656670000000  0.7319170000000 1.0
C      1  0.6782240000000  0.5746480000000  0.7268930000000 1.0
C      1  0.6044260000000  0.6554360000000  0.7151530000000 1.0
C      1  0.4950470000000  0.6627330000000  0.7286510000000 1.0
C      1  0.3908240000000  0.6277410000000  0.7182030000000 1.0
C      1  0.3344720000000  0.5343340000000  0.7319190000000 1.0
C      1  0.7164820000000  0.5123090000000  0.6401600000000 1.0
C      1  0.6840170000000  0.6409930000000  0.6354680000000 1.0
C      1  0.5427140000000  0.6954730000000  0.6296790000000 1.0
C      1  0.4314980000000  0.6993840000000  0.6406540000000 1.0
C      1  0.3333630000000  0.5872460000000  0.6304200000000 1.0
C      1  0.2835200000000  0.4876920000000  0.6401630000000 1.0
C      1  0.3159840000000  0.3590080000000  0.6354720000000 1.0
C      1  0.4572880000000  0.3045280000000  0.6296810000000 1.0
C      1  0.5685040000000  0.3006170000000  0.6406540000000 1.0
C      1  0.6666390000000  0.4127550000000  0.6304190000000 1.0
C      1  0.4474520000000  0.3611270000000  0.2987660000000 1.0
C      1  0.5428400000000  0.3516670000000  0.2874270000000 1.0
C      1  0.6152100000000  0.4152790000000  0.2962140000000 1.0
C      1  0.6675970000000  0.4997030000000  0.3015630000000 1.0
C      1  0.6382090000000  0.5912050000000  0.3070030000000 1.0
C      1  0.5525450000000  0.6388710000000  0.2987650000000 1.0
C      1  0.4571570000000  0.6483320000000  0.2874270000000 1.0
C      1  0.3847870000000  0.5847200000000  0.2962150000000 1.0
C      1  0.3324000000000  0.5002950000000  0.3015650000000 1.0
C      1  0.3617890000000  0.4087940000000  0.3070050000000 1.0
C      1  0.4212420000000  0.2926500000000  0.3666570000000 1.0
C      1  0.5701470000000  0.2687860000000  0.3330200000000 1.0
C      1  0.6737770000000  0.3763520000000  0.3679880000000 1.0
C      1  0.7483400000000  0.4855990000000  0.3549400000000 1.0
C      1  0.6942230000000  0.6414240000000  0.3696240000000 1.0
C      1  0.5787560000000  0.7073490000000  0.3666540000000 1.0
C      1  0.4298510000000  0.7312130000000  0.3330200000000 1.0
C      1  0.3262210000000  0.6236470000000  0.3679900000000 1.0
C      1  0.2516580000000  0.5144000000000  0.3549430000000 1.0
C      1  0.3057750000000  0.3585750000000  0.3696280000000 1.0
C      1  0.4613540000000  0.2857510000000  0.4475920000000 1.0
C      1  0.5674670000000  0.2711760000000  0.4421560000000 1.0
C      1  0.6451630000000  0.3452830000000  0.4477390000000 1.0
C      1  0.7473300000000  0.5126100000000  0.4454430000000 1.0
C      1  0.7125980000000  0.6051050000000  0.4550830000000 1.0
C      1  0.5386450000000  0.7142490000000  0.4475900000000 1.0
C      1  0.4325320000000  0.7288240000000  0.4421550000000 1.0
C      1  0.3548360000000  0.6547170000000  0.4477400000000 1.0
C      1  0.2526690000000  0.4873890000000  0.4454460000000 1.0
C      1  0.2874010000000  0.3948940000000  0.4550870000000 1.0
C      1  0.6533210000000  0.6120940000000  0.5429020000000 1.0
C      1  0.5656350000000  0.6602580000000  0.5344300000000 1.0
C      1  0.4517560000000  0.6687470000000  0.5366980000000 1.0
C      1  0.3678550000000  0.5960400000000  0.5341200000000 1.0
C      1  0.3175310000000  0.4978390000000  0.5334210000000 1.0
C      1  0.3466800000000  0.3879060000000  0.5429050000000 1.0
C      1  0.4343650000000  0.3397420000000  0.5344320000000 1.0
C      1  0.5482450000000  0.3312530000000  0.5366990000000 1.0
C      1  0.6321460000000  0.4039610000000  0.5341190000000 1.0
C      1  0.6824690000000  0.5021610000000  0.5334190000000 1.0
END
