TITL C-986975-4297-407 -0.017077016240426 3375 -334.028380718153 0 0 60 (C2) n - 1
REM
REM in /home/bkarasulu/work/CARBON/AIRSS/Generating-Clusters/REBO/Higher-Symm/Only-C60
REM
REM
REM
REM
REM
REM ./C.cell (a2850807a9bf4ad07a5b6933b78d9264)
REM AIRSS Version 0.9.1 bugfix July 2018 build 013d7b7c2542+ Fri, 06 Jul 2018 19:26:36 +0100
REM compiler GCC version 9.2.1 20190827 (Red Hat 9.2.1-1)
REM options -cpp -mtune=generic -march=x86-64 -g -O0 -fpre-include=/usr/include/finclude/math-vector-fortran.h
REM seed -736854876 -772220304 1515811967 292425327 -581224043 962055351 1826514159 601728976 -959955880 -655744409 633252057 -1130559751 821055958 1249010103 -1560253122 -1603140667 -294923393 -891684693 -153360306 1233371995 -1411963092 -657205858 254865424 734390133 -1090549804 -296463858 -439936888 1896643520 1882074750 -560708408 1980071530 -1712890228 864491838
REM
CELL 1.54180   15.00000   15.00000   15.00000   90.00000   90.00000   90.00000
LATT -1
SFAC C  
C      1  0.5631510000000  0.5206340000000  0.5542240000000 1.0
C      1  0.4365370000000  0.4799340000000  0.5542360000000 1.0
C      1  0.5622170000000  0.5226430000000  0.4529580000000 1.0
C      1  0.4378480000000  0.4771920000000  0.4529480000000 1.0
C      1  0.6161220000000  0.7018350000000  0.4401720000000 1.0
C      1  0.3836300000000  0.2978390000000  0.4396770000000 1.0
C      1  0.6341960000000  0.6818720000000  0.5477630000000 1.0
C      1  0.3656370000000  0.3190970000000  0.5470480000000 1.0
C      1  0.2986780000000  0.5455100000000  0.3801280000000 1.0
C      1  0.7012160000000  0.4539660000000  0.3802920000000 1.0
C      1  0.3111090000000  0.5666050000000  0.6225150000000 1.0
C      1  0.6897900000000  0.4342660000000  0.6210790000000 1.0
C      1  0.3536630000000  0.4434900000000  0.5970250000000 1.0
C      1  0.6460620000000  0.5572640000000  0.5969130000000 1.0
C      1  0.3625480000000  0.4317680000000  0.4045540000000 1.0
C      1  0.6376430000000  0.5678940000000  0.4046560000000 1.0
C      1  0.7358870000000  0.5318820000000  0.4489990000000 1.0
C      1  0.2644100000000  0.4679750000000  0.4492140000000 1.0
C      1  0.7392300000000  0.5081940000000  0.5556940000000 1.0
C      1  0.2611970000000  0.4932930000000  0.5555510000000 1.0
C      1  0.4695560000000  0.2735350000000  0.5383760000000 1.0
C      1  0.5302290000000  0.7271590000000  0.5386310000000 1.0
C      1  0.4850160000000  0.2515510000000  0.4298090000000 1.0
C      1  0.5148710000000  0.7481440000000  0.4297040000000 1.0
C      1  0.5621310000000  0.3236930000000  0.4566080000000 1.0
C      1  0.4375540000000  0.6759680000000  0.4561360000000 1.0
C      1  0.5621630000000  0.3261390000000  0.5673040000000 1.0
C      1  0.4375240000000  0.6748300000000  0.5668800000000 1.0
C      1  0.5976300000000  0.5967850000000  0.3059590000000 1.0
C      1  0.4026810000000  0.4029520000000  0.3058300000000 1.0
C      1  0.6057850000000  0.5898250000000  0.6940840000000 1.0
C      1  0.3934480000000  0.4096530000000  0.6940580000000 1.0
C      1  0.5298790000000  0.4228220000000  0.4185690000000 1.0
C      1  0.4702640000000  0.5768180000000  0.4182720000000 1.0
C      1  0.5241780000000  0.4250520000000  0.5957820000000 1.0
C      1  0.4749730000000  0.5756130000000  0.5954590000000 1.0
C      1  0.7089920000000  0.6428290000000  0.4450380000000 1.0
C      1  0.2906330000000  0.3569880000000  0.4440870000000 1.0
C      1  0.7252410000000  0.6207870000000  0.5507110000000 1.0
C      1  0.2746850000000  0.3806820000000  0.5494640000000 1.0
C      1  0.4605130000000  0.3472070000000  0.3736960000000 1.0
C      1  0.5396680000000  0.6524390000000  0.3738180000000 1.0
C      1  0.4431500000000  0.3484810000000  0.6210320000000 1.0
C      1  0.5561780000000  0.6518280000000  0.6211720000000 1.0
C      1  0.6639420000000  0.4960200000000  0.7133070000000 1.0
C      1  0.3363830000000  0.5037050000000  0.7140880000000 1.0
C      1  0.6633640000000  0.5086160000000  0.2882320000000 1.0
C      1  0.3367210000000  0.4909360000000  0.2881060000000 1.0
C      1  0.3447790000000  0.6143080000000  0.4429100000000 1.0
C      1  0.6552710000000  0.3845790000000  0.4425430000000 1.0
C      1  0.3507210000000  0.6192140000000  0.5396910000000 1.0
C      1  0.6496160000000  0.3802680000000  0.5395650000000 1.0
C      1  0.4516470000000  0.5010690000000  0.7279110000000 1.0
C      1  0.5487010000000  0.4974460000000  0.7272570000000 1.0
C      1  0.4516820000000  0.4998690000000  0.2766210000000 1.0
C      1  0.5484090000000  0.4999780000000  0.2766080000000 1.0
C      1  0.6108790000000  0.4156000000000  0.3208940000000 1.0
C      1  0.3889670000000  0.5840880000000  0.3208620000000 1.0
C      1  0.6049350000000  0.4049280000000  0.6918200000000 1.0
C      1  0.3962710000000  0.5944460000000  0.6934570000000 1.0
END
