TITL C-986978-6805-682 -2.49167569003646e-06 3375 -326.856877323679 0 0 60 (C2) n - 1
REM
REM in /home/bkarasulu/work/CARBON/AIRSS/Generating-Clusters/REBO/Higher-Symm/Only-C60
REM
REM
REM
REM
REM
REM ./C.cell (a2850807a9bf4ad07a5b6933b78d9264)
REM AIRSS Version 0.9.1 bugfix July 2018 build 013d7b7c2542+ Fri, 06 Jul 2018 19:26:36 +0100
REM compiler GCC version 9.2.1 20190827 (Red Hat 9.2.1-1)
REM options -cpp -mtune=generic -march=x86-64 -g -O0 -fpre-include=/usr/include/finclude/math-vector-fortran.h
REM seed 239935255 1298878695 -751713340 1782653511 92245721 32934109 616955858 1407815716 -1292477285 1649224610 -590706470 -1982281820 753012217 1908227096 -1103235905 1190643362 2014953662 -844124944 980111815 -1322558259 442052296 -183313908 -1111594171 2005677444 -1614093090 1222117234 100569595 1179953510 1092702030 1930574787 -107424281 -1254347638 -1958317996
REM
CELL 1.54180   15.00000   15.00000   15.00000   90.00000   90.00000   90.00000
LATT -1
SFAC C  
C      1  0.4529330000000  0.5467750000000  0.6750910000000 1.0
C      1  0.5470670000000  0.4532250000000  0.6750910000000 1.0
C      1  0.3704180000000  0.4666940000000  0.6082570000000 1.0
C      1  0.6295820000000  0.5333060000000  0.6082570000000 1.0
C      1  0.5321150000000  0.6061520000000  0.4164600000000 1.0
C      1  0.4678850000000  0.3938480000000  0.4164600000000 1.0
C      1  0.6714580000000  0.5548790000000  0.7001920000000 1.0
C      1  0.3285420000000  0.4451210000000  0.7001920000000 1.0
C      1  0.3594510000000  0.4626750000000  0.4520520000000 1.0
C      1  0.6405490000000  0.5373250000000  0.4520520000000 1.0
C      1  0.6221250000000  0.2163380000000  0.5905930000000 1.0
C      1  0.3778750000000  0.7836620000000  0.5905930000000 1.0
C      1  0.7261630000000  0.5507590000000  0.5221190000000 1.0
C      1  0.2738370000000  0.4492410000000  0.5221190000000 1.0
C      1  0.5221380000000  0.6247760000000  0.7065510000000 1.0
C      1  0.4778620000000  0.3752240000000  0.7065510000000 1.0
C      1  0.4797320000000  0.3114330000000  0.6242300000000 1.0
C      1  0.5202680000000  0.6885670000000  0.6242300000000 1.0
C      1  0.3766410000000  0.3117720000000  0.5760460000000 1.0
C      1  0.6233590000000  0.6882280000000  0.5760460000000 1.0
C      1  0.5221040000000  0.3187180000000  0.3197110000000 1.0
C      1  0.4778960000000  0.6812820000000  0.3197110000000 1.0
C      1  0.4062390000000  0.7105630000000  0.3913790000000 1.0
C      1  0.5937610000000  0.2894370000000  0.3913790000000 1.0
C      1  0.5098800000000  0.6493120000000  0.5197060000000 1.0
C      1  0.4901200000000  0.3506880000000  0.5197060000000 1.0
C      1  0.5744970000000  0.5395660000000  0.7282590000000 1.0
C      1  0.4255030000000  0.4604340000000  0.7282590000000 1.0
C      1  0.3394820000000  0.3610490000000  0.4031370000000 1.0
C      1  0.6605180000000  0.6389510000000  0.4031370000000 1.0
C      1  0.3214510000000  0.3524450000000  0.5149590000000 1.0
C      1  0.6785490000000  0.6475550000000  0.5149590000000 1.0
C      1  0.4723730000000  0.4394720000000  0.5902510000000 1.0
C      1  0.5276270000000  0.5605280000000  0.5902510000000 1.0
C      1  0.3607350000000  0.6360720000000  0.4303150000000 1.0
C      1  0.6392650000000  0.3639280000000  0.4303150000000 1.0
C      1  0.6732410000000  0.4590640000000  0.5545810000000 1.0
C      1  0.3267590000000  0.5409360000000  0.5545810000000 1.0
C      1  0.6256920000000  0.3859210000000  0.6554020000000 1.0
C      1  0.3743080000000  0.6140790000000  0.6554020000000 1.0
C      1  0.5734190000000  0.4146430000000  0.2838560000000 1.0
C      1  0.4265810000000  0.5853570000000  0.2838560000000 1.0
C      1  0.5343600000000  0.7311680000000  0.4597060000000 1.0
C      1  0.4656400000000  0.2688320000000  0.4597060000000 1.0
C      1  0.4564240000000  0.4738370000000  0.4858800000000 1.0
C      1  0.5435760000000  0.5261630000000  0.4858800000000 1.0
C      1  0.3193290000000  0.4594350000000  0.3498790000000 1.0
C      1  0.6806710000000  0.5405650000000  0.3498790000000 1.0
C      1  0.4106850000000  0.6970010000000  0.5933730000000 1.0
C      1  0.5893150000000  0.3029990000000  0.5933730000000 1.0
C      1  0.4216300000000  0.3007140000000  0.3693780000000 1.0
C      1  0.5783700000000  0.6992860000000  0.3693780000000 1.0
C      1  0.4679080000000  0.4169930000000  0.3088380000000 1.0
C      1  0.5320920000000  0.5830070000000  0.3088380000000 1.0
C      1  0.6021020000000  0.5188130000000  0.2815020000000 1.0
C      1  0.3978980000000  0.4811870000000  0.2815020000000 1.0
C      1  0.3523230000000  0.5665310000000  0.3647880000000 1.0
C      1  0.6476770000000  0.4334690000000  0.3647880000000 1.0
C      1  0.6393790000000  0.3771100000000  0.5235080000000 1.0
C      1  0.3606210000000  0.6228900000000  0.5235080000000 1.0
END
