TITL C-986978-6805-468 -6.88541413372052e-07 3375 -359.192297281517 0 0 60 (C2) n - 1
REM
REM in /home/bkarasulu/work/CARBON/AIRSS/Generating-Clusters/REBO/Higher-Symm/Only-C60
REM
REM
REM
REM
REM
REM ./C.cell (a2850807a9bf4ad07a5b6933b78d9264)
REM AIRSS Version 0.9.1 bugfix July 2018 build 013d7b7c2542+ Fri, 06 Jul 2018 19:26:36 +0100
REM compiler GCC version 9.2.1 20190827 (Red Hat 9.2.1-1)
REM options -cpp -mtune=generic -march=x86-64 -g -O0 -fpre-include=/usr/include/finclude/math-vector-fortran.h
REM seed -2122120689 -1074882097 35171342 -1867971876 619467873 1827163423 1839406904 -1631334342 50164910 640897631 1383971591 774468503 -2015717000 1442657110 -46559920 530931764 1637708560 379902119 1107550526 725997736 -374495239 1183203480 632212124 1373035854 1434925377 83590562 -1067255328 -1293586091 -651469416 852153104 -1549406241 1233532893 -384872908
REM
CELL 1.54180   15.00000   15.00000   15.00000   90.00000   90.00000   90.00000
LATT -1
SFAC C  
C      1  0.6235240000000  0.3051340000000  0.4615590000000 1.0
C      1  0.3729060000000  0.5352610000000  0.3095130000000 1.0
C      1  0.6235220000000  0.6948670000000  0.5384420000000 1.0
C      1  0.3729050000000  0.4647380000000  0.6904860000000 1.0
C      1  0.6478300000000  0.6471060000000  0.6266850000000 1.0
C      1  0.3430920000000  0.3755010000000  0.6482270000000 1.0
C      1  0.6478320000000  0.3528950000000  0.3733160000000 1.0
C      1  0.3430920000000  0.6244970000000  0.3517720000000 1.0
C      1  0.4756820000000  0.5084660000000  0.7141000000000 1.0
C      1  0.5184750000000  0.2888400000000  0.5038520000000 1.0
C      1  0.4756840000000  0.4915340000000  0.2859000000000 1.0
C      1  0.5184730000000  0.7111600000000  0.4961480000000 1.0
C      1  0.6304110000000  0.4441710000000  0.5786380000000 1.0
C      1  0.3940080000000  0.4332520000000  0.4353880000000 1.0
C      1  0.6304110000000  0.5558300000000  0.4213630000000 1.0
C      1  0.3940070000000  0.5667470000000  0.5646110000000 1.0
C      1  0.3838310000000  0.5777600000000  0.6964050000000 1.0
C      1  0.6071120000000  0.3133330000000  0.5735760000000 1.0
C      1  0.3838330000000  0.4222390000000  0.3035940000000 1.0
C      1  0.6071100000000  0.6866680000000  0.4264250000000 1.0
C      1  0.7126960000000  0.4597820000000  0.4752950000000 1.0
C      1  0.2740660000000  0.5216310000000  0.4573080000000 1.0
C      1  0.7126960000000  0.5402200000000  0.5247070000000 1.0
C      1  0.2740660000000  0.4783670000000  0.5426910000000 1.0
C      1  0.4688380000000  0.5040610000000  0.4182460000000 1.0
C      1  0.5607120000000  0.5838640000000  0.5023650000000 1.0
C      1  0.4688380000000  0.4959380000000  0.5817540000000 1.0
C      1  0.5607120000000  0.4161370000000  0.4976350000000 1.0
C      1  0.4815410000000  0.3012260000000  0.6105220000000 1.0
C      1  0.5095510000000  0.3843370000000  0.2958210000000 1.0
C      1  0.4815400000000  0.6987740000000  0.3894770000000 1.0
C      1  0.5095480000000  0.6156630000000  0.7041790000000 1.0
C      1  0.5936820000000  0.3445750000000  0.2975060000000 1.0
C      1  0.3990240000000  0.6996760000000  0.3461430000000 1.0
C      1  0.5936790000000  0.6554260000000  0.7024950000000 1.0
C      1  0.3990250000000  0.3003230000000  0.6538570000000 1.0
C      1  0.6855130000000  0.5597900000000  0.6154660000000 1.0
C      1  0.3041200000000  0.3865300000000  0.5609710000000 1.0
C      1  0.6855140000000  0.4402110000000  0.3845350000000 1.0
C      1  0.3041200000000  0.6134690000000  0.4390270000000 1.0
C      1  0.5501150000000  0.3630370000000  0.6527430000000 1.0
C      1  0.4396920000000  0.3387120000000  0.3532240000000 1.0
C      1  0.5501150000000  0.6369630000000  0.3472580000000 1.0
C      1  0.4396900000000  0.6612870000000  0.6467760000000 1.0
C      1  0.4372950000000  0.6922310000000  0.5579170000000 1.0
C      1  0.5555210000000  0.4457680000000  0.6936530000000 1.0
C      1  0.4372970000000  0.3077690000000  0.4420820000000 1.0
C      1  0.5555220000000  0.5542320000000  0.3063480000000 1.0
C      1  0.6444980000000  0.4903000000000  0.6769170000000 1.0
C      1  0.3582110000000  0.3491590000000  0.4918520000000 1.0
C      1  0.6445000000000  0.5097010000000  0.3230840000000 1.0
C      1  0.3582100000000  0.6508400000000  0.5081470000000 1.0
C      1  0.6910160000000  0.6307610000000  0.4724700000000 1.0
C      1  0.3109510000000  0.5328630000000  0.6233750000000 1.0
C      1  0.6910170000000  0.3692400000000  0.5275320000000 1.0
C      1  0.3109520000000  0.4671350000000  0.3766240000000 1.0
C      1  0.4656950000000  0.5791900000000  0.4776540000000 1.0
C      1  0.5603940000000  0.5270580000000  0.5803590000000 1.0
C      1  0.4656950000000  0.4208100000000  0.5223460000000 1.0
C      1  0.5603950000000  0.4729430000000  0.4196420000000 1.0
END
