TITL C-986972-3822-68 0.00214954835344928 3375 -334.323003489718 0 0 60 (Ci) n - 1
REM
REM in /home/bkarasulu/work/CARBON/AIRSS/Generating-Clusters/REBO/Higher-Symm/Only-C60
REM
REM
REM
REM
REM
REM ./C.cell (a2850807a9bf4ad07a5b6933b78d9264)
REM AIRSS Version 0.9.1 bugfix July 2018 build 013d7b7c2542+ Fri, 06 Jul 2018 19:26:36 +0100
REM compiler GCC version 9.2.1 20190827 (Red Hat 9.2.1-1)
REM options -cpp -mtune=generic -march=x86-64 -g -O0 -fpre-include=/usr/include/finclude/math-vector-fortran.h
REM seed -266152616 -726751018 -1569368684 -1513119592 -832481626 -255580005 952709584 2104966179 212419947 -1517103691 1249431902 -1298646481 -1641742291 -720050792 471522118 508939394 1545953303 1120022546 617630887 -1533757665 -216552103 2147319705 -204250639 1194332934 1642673803 -862487783 276078803 1933300072 -989617659 -557842580 762625137 1564691768 401954509
REM
CELL 1.54180   15.00000   15.00000   15.00000   90.00000   90.00000   90.00000
LATT -1
SFAC C  
C      1  0.4453050000000  0.6864100000000  0.5865400000000 1.0
C      1  0.5546950000000  0.3135900000000  0.4134600000000 1.0
C      1  0.4783090000000  0.4078910000000  0.7256520000000 1.0
C      1  0.5216910000000  0.5921090000000  0.2743480000000 1.0
C      1  0.4530900000000  0.7177420000000  0.4797810000000 1.0
C      1  0.5469100000000  0.2822580000000  0.5202190000000 1.0
C      1  0.4309150000000  0.5681570000000  0.2771870000000 1.0
C      1  0.5690850000000  0.4318430000000  0.7228130000000 1.0
C      1  0.3838450000000  0.4844590000000  0.3681800000000 1.0
C      1  0.6161550000000  0.5155410000000  0.6318200000000 1.0
C      1  0.4327100000000  0.6930270000000  0.3695460000000 1.0
C      1  0.5672900000000  0.3069730000000  0.6304530000000 1.0
C      1  0.2726620000000  0.5338210000000  0.4807680000000 1.0
C      1  0.7273380000000  0.4661790000000  0.5192320000000 1.0
C      1  0.5542630000000  0.5809680000000  0.4470000000000 1.0
C      1  0.4457370000000  0.4190320000000  0.5530000000000 1.0
C      1  0.4073930000000  0.3966920000000  0.6454350000000 1.0
C      1  0.5926070000000  0.6033080000000  0.3545650000000 1.0
C      1  0.3817780000000  0.5451080000000  0.4579530000000 1.0
C      1  0.6182220000000  0.4548920000000  0.5420470000000 1.0
C      1  0.6813760000000  0.5421310000000  0.4560320000000 1.0
C      1  0.3186240000000  0.4578690000000  0.5439680000000 1.0
C      1  0.7271450000000  0.5862730000000  0.6432730000000 1.0
C      1  0.2728550000000  0.4137270000000  0.3567270000000 1.0
C      1  0.3000850000000  0.6309370000000  0.5176090000000 1.0
C      1  0.6999150000000  0.3690630000000  0.4823910000000 1.0
C      1  0.4613120000000  0.6010090000000  0.4196190000000 1.0
C      1  0.5386880000000  0.3989910000000  0.5803810000000 1.0
C      1  0.5464560000000  0.4796810000000  0.4747780000000 1.0
C      1  0.4535440000000  0.5203190000000  0.5252220000000 1.0
C      1  0.4767360000000  0.5838840000000  0.5959960000000 1.0
C      1  0.5232640000000  0.4161160000000  0.4040040000000 1.0
C      1  0.6470710000000  0.3256650000000  0.5561770000000 1.0
C      1  0.3529290000000  0.6743350000000  0.4438230000000 1.0
C      1  0.3466440000000  0.3538360000000  0.5085130000000 1.0
C      1  0.6533560000000  0.6461640000000  0.4914870000000 1.0
C      1  0.3478280000000  0.3567880000000  0.3953460000000 1.0
C      1  0.6521720000000  0.6432120000000  0.6046540000000 1.0
C      1  0.6476620000000  0.3878240000000  0.6532740000000 1.0
C      1  0.3523380000000  0.6121760000000  0.3467260000000 1.0
C      1  0.4411960000000  0.2969750000000  0.4803800000000 1.0
C      1  0.5588040000000  0.7030250000000  0.5196200000000 1.0
C      1  0.4223920000000  0.4641370000000  0.2762810000000 1.0
C      1  0.5776080000000  0.5358630000000  0.7237190000000 1.0
C      1  0.5788280000000  0.4121080000000  0.3068530000000 1.0
C      1  0.4211720000000  0.5878920000000  0.6931470000000 1.0
C      1  0.3956640000000  0.4850160000000  0.7152800000000 1.0
C      1  0.6043360000000  0.5149840000000  0.2847200000000 1.0
C      1  0.3515280000000  0.6237950000000  0.6091510000000 1.0
C      1  0.6484720000000  0.3762050000000  0.3908490000000 1.0
C      1  0.3438550000000  0.5101970000000  0.6192580000000 1.0
C      1  0.6561450000000  0.4898030000000  0.3807420000000 1.0
C      1  0.4493940000000  0.3123250000000  0.3673710000000 1.0
C      1  0.5506060000000  0.6876750000000  0.6326290000000 1.0
C      1  0.7172090000000  0.4751120000000  0.6283750000000 1.0
C      1  0.2827910000000  0.5248880000000  0.3716250000000 1.0
C      1  0.4773480000000  0.3837680000000  0.2839370000000 1.0
C      1  0.5226520000000  0.6162320000000  0.7160630000000 1.0
C      1  0.5712510000000  0.5779280000000  0.5604130000000 1.0
C      1  0.4287490000000  0.4220720000000  0.4395870000000 1.0
END
