TITL C-986974-580-433 9.9650081036787e-06 3375 -353.053312486931 0 0 60 (C5) n - 1
REM
REM in /home/bkarasulu/work/CARBON/AIRSS/Generating-Clusters/REBO/Higher-Symm/Only-C60
REM
REM
REM
REM
REM
REM ./C.cell (a2850807a9bf4ad07a5b6933b78d9264)
REM AIRSS Version 0.9.1 bugfix July 2018 build 013d7b7c2542+ Fri, 06 Jul 2018 19:26:36 +0100
REM compiler GCC version 9.2.1 20190827 (Red Hat 9.2.1-1)
REM options -cpp -mtune=generic -march=x86-64 -g -O0 -fpre-include=/usr/include/finclude/math-vector-fortran.h
REM seed 1337822597 1381324034 -1460860206 816079294 1394803306 1321760527 534702289 736003708 -1340871414 -1683919375 363220100 -1068944913 -1846768129 -1346583514 -1656057119 520082163 2047572172 -1144086791 -162959968 -1297422133 179001577 -1469883076 -391406863 -1210311764 -255215279 1171489920 -1585797512 1749274674 1323887355 1756417507 -50876817 -379940968 -1728825253
REM
CELL 1.54180   15.00000   15.00000   15.00000   90.00000   90.00000   90.00000
LATT -1
SFAC C  
C      1  0.6767860000000  0.5804890000000  0.4806400000000 1.0
C      1  0.6767860000000  0.5064600000000  0.4174670000000 1.0
C      1  0.6767860000000  0.4235030000000  0.4683520000000 1.0
C      1  0.6767860000000  0.4462620000000  0.5629730000000 1.0
C      1  0.6767860000000  0.5432850000000  0.5705670000000 1.0
C      1  0.3232140000000  0.5804890000000  0.4806400000000 1.0
C      1  0.3232140000000  0.5064600000000  0.4174670000000 1.0
C      1  0.3232140000000  0.4235030000000  0.4683520000000 1.0
C      1  0.3232140000000  0.4462620000000  0.5629730000000 1.0
C      1  0.3232140000000  0.5432850000000  0.5705670000000 1.0
C      1  0.6300180000000  0.5034220000000  0.3251680000000 1.0
C      1  0.6300180000000  0.3347830000000  0.4427190000000 1.0
C      1  0.6300180000000  0.3944680000000  0.6394300000000 1.0
C      1  0.6300180000000  0.5999950000000  0.6434530000000 1.0
C      1  0.6300180000000  0.6673320000000  0.4492290000000 1.0
C      1  0.3699820000000  0.5034220000000  0.3251680000000 1.0
C      1  0.3699820000000  0.3347830000000  0.4427190000000 1.0
C      1  0.3699820000000  0.3944680000000  0.6394300000000 1.0
C      1  0.3699820000000  0.5999950000000  0.6434530000000 1.0
C      1  0.3699820000000  0.6673320000000  0.4492290000000 1.0
C      1  0.4439610000000  0.5757530000000  0.7278580000000 1.0
C      1  0.4439610000000  0.7401150000000  0.4983670000000 1.0
C      1  0.4439610000000  0.5726460000000  0.2711330000000 1.0
C      1  0.4439610000000  0.3047830000000  0.3601850000000 1.0
C      1  0.4439610000000  0.3067030000000  0.6424570000000 1.0
C      1  0.5560390000000  0.5757530000000  0.7278580000000 1.0
C      1  0.5560390000000  0.7401150000000  0.4983670000000 1.0
C      1  0.5560390000000  0.5726460000000  0.2711330000000 1.0
C      1  0.5560390000000  0.3047830000000  0.3601850000000 1.0
C      1  0.5560390000000  0.3067030000000  0.6424570000000 1.0
C      1  0.4449230000000  0.4930130000000  0.5905240000000 1.0
C      1  0.4449230000000  0.5839340000000  0.5346180000000 1.0
C      1  0.4449230000000  0.5588610000000  0.4308710000000 1.0
C      1  0.4449230000000  0.4524440000000  0.4226580000000 1.0
C      1  0.4449230000000  0.4117480000000  0.5213290000000 1.0
C      1  0.5550770000000  0.4930130000000  0.5905240000000 1.0
C      1  0.5550770000000  0.5839340000000  0.5346180000000 1.0
C      1  0.5550770000000  0.5588610000000  0.4308710000000 1.0
C      1  0.5550770000000  0.4524440000000  0.4226580000000 1.0
C      1  0.5550770000000  0.4117480000000  0.5213290000000 1.0
C      1  0.4133590000000  0.4003690000000  0.3354420000000 1.0
C      1  0.4133590000000  0.3127090000000  0.5439040000000 1.0
C      1  0.4133590000000  0.4838790000000  0.6916920000000 1.0
C      1  0.4133590000000  0.6773280000000  0.5745680000000 1.0
C      1  0.4133590000000  0.6257160000000  0.3543940000000 1.0
C      1  0.5866410000000  0.4003690000000  0.3354420000000 1.0
C      1  0.5866410000000  0.3127090000000  0.5439040000000 1.0
C      1  0.5866410000000  0.4838790000000  0.6916920000000 1.0
C      1  0.5866410000000  0.6773280000000  0.5745680000000 1.0
C      1  0.5866410000000  0.6257160000000  0.3543940000000 1.0
C      1  0.4472980000000  0.4612330000000  0.2505670000000 1.0
C      1  0.4472980000000  0.2507960000000  0.4597910000000 1.0
C      1  0.4472980000000  0.3847500000000  0.7245820000000 1.0
C      1  0.4472980000000  0.6779760000000  0.6790090000000 1.0
C      1  0.4472980000000  0.7252450000000  0.3860510000000 1.0
C      1  0.5527020000000  0.4612330000000  0.2505670000000 1.0
C      1  0.5527020000000  0.2507960000000  0.4597910000000 1.0
C      1  0.5527020000000  0.3847500000000  0.7245820000000 1.0
C      1  0.5527020000000  0.6779760000000  0.6790090000000 1.0
C      1  0.5527020000000  0.7252450000000  0.3860510000000 1.0
END
