TITL C-986975-4297-585 0.408323525386805 3375 -325.852933291677 0 0 60 (D3h) n - 1
REM
REM in /home/bkarasulu/work/CARBON/AIRSS/Generating-Clusters/REBO/Higher-Symm/Only-C60
REM
REM
REM
REM
REM
REM ./C.cell (a2850807a9bf4ad07a5b6933b78d9264)
REM AIRSS Version 0.9.1 bugfix July 2018 build 013d7b7c2542+ Fri, 06 Jul 2018 19:26:36 +0100
REM compiler GCC version 9.2.1 20190827 (Red Hat 9.2.1-1)
REM options -cpp -mtune=generic -march=x86-64 -g -O0 -fpre-include=/usr/include/finclude/math-vector-fortran.h
REM seed 836478183 -1955611567 1113705579 1031625828 -486132039 -187502030 -60091990 236029632 2027608947 2097686228 1891979116 205965170 1964476751 -1481585715 -1635651872 -159633213 704086858 -503986809 -2042470298 -531401134 -125641164 1394693847 500700071 751404640 92402572 1625684942 -783284396 -343177438 2044761835 1984323984 1843286478 -1597719423 -1125447778
REM
CELL 1.54180   15.00000   15.00000   15.00000   90.00000   90.00000   90.00000
LATT -1
SFAC C  
C      1  0.6455980000000  0.6413620000000  0.3597400000000 1.0
C      1  0.6456010000000  0.5507800000000  0.6925680000000 1.0
C      1  0.6455630000000  0.3078730000000  0.4476510000000 1.0
C      1  0.3544020000000  0.6413620000000  0.3597400000000 1.0
C      1  0.3543990000000  0.5507800000000  0.6925680000000 1.0
C      1  0.3544370000000  0.3078730000000  0.4476510000000 1.0
C      1  0.6455980000000  0.6413620000000  0.6402600000000 1.0
C      1  0.6456010000000  0.5507800000000  0.3074320000000 1.0
C      1  0.6455630000000  0.3078730000000  0.5523490000000 1.0
C      1  0.3544020000000  0.6413620000000  0.6402600000000 1.0
C      1  0.3543990000000  0.5507800000000  0.3074320000000 1.0
C      1  0.3544370000000  0.3078730000000  0.5523490000000 1.0
C      1  0.5880730000000  0.7009090000000  0.4511020000000 1.0
C      1  0.5880810000000  0.4419140000000  0.6984360000000 1.0
C      1  0.5881080000000  0.3571660000000  0.3505110000000 1.0
C      1  0.4119270000000  0.7009090000000  0.4511020000000 1.0
C      1  0.4119190000000  0.4419140000000  0.6984360000000 1.0
C      1  0.4118920000000  0.3571660000000  0.3505110000000 1.0
C      1  0.5880730000000  0.7009090000000  0.5488980000000 1.0
C      1  0.5880810000000  0.4419140000000  0.3015640000000 1.0
C      1  0.5881080000000  0.3571660000000  0.6494890000000 1.0
C      1  0.4119270000000  0.7009090000000  0.5488980000000 1.0
C      1  0.4119190000000  0.4419140000000  0.3015640000000 1.0
C      1  0.4118920000000  0.3571660000000  0.6494890000000 1.0
C      1  0.6863440000000  0.4963430000000  0.6017850000000 1.0
C      1  0.6863330000000  0.4136870000000  0.4459500000000 1.0
C      1  0.6863500000000  0.5899770000000  0.4522850000000 1.0
C      1  0.3136560000000  0.4963430000000  0.6017850000000 1.0
C      1  0.3136670000000  0.4136870000000  0.4459500000000 1.0
C      1  0.3136500000000  0.5899770000000  0.4522850000000 1.0
C      1  0.6863440000000  0.4963430000000  0.3982150000000 1.0
C      1  0.6863330000000  0.4136870000000  0.5540500000000 1.0
C      1  0.6863500000000  0.5899770000000  0.5477150000000 1.0
C      1  0.3136560000000  0.4963430000000  0.3982150000000 1.0
C      1  0.3136670000000  0.4136870000000  0.5540500000000 1.0
C      1  0.3136500000000  0.5899770000000  0.5477150000000 1.0
C      1  0.4460060000000  0.5934350000000  0.5564730000000 1.0
C      1  0.4460030000000  0.4043780000000  0.5526870000000 1.0
C      1  0.4460110000000  0.5021810000000  0.3908440000000 1.0
C      1  0.5539940000000  0.5934350000000  0.5564730000000 1.0
C      1  0.5539970000000  0.4043780000000  0.5526870000000 1.0
C      1  0.5539890000000  0.5021810000000  0.3908440000000 1.0
C      1  0.4460060000000  0.5934350000000  0.4435270000000 1.0
C      1  0.4460030000000  0.4043780000000  0.4473130000000 1.0
C      1  0.4460110000000  0.5021810000000  0.6091560000000 1.0
C      1  0.5539940000000  0.5934350000000  0.4435270000000 1.0
C      1  0.5539970000000  0.4043780000000  0.4473130000000 1.0
C      1  0.5539890000000  0.5021810000000  0.6091560000000 1.0
C      1  0.4537360000000  0.2742990000000  0.4062680000000 1.0
C      1  0.4537460000000  0.6940190000000  0.3514070000000 1.0
C      1  0.4537410000000  0.5316770000000  0.7423330000000 1.0
C      1  0.5462640000000  0.2742990000000  0.4062680000000 1.0
C      1  0.5462540000000  0.6940190000000  0.3514070000000 1.0
C      1  0.5462590000000  0.5316770000000  0.7423330000000 1.0
C      1  0.4537360000000  0.2742990000000  0.5937320000000 1.0
C      1  0.4537460000000  0.6940190000000  0.6485930000000 1.0
C      1  0.4537410000000  0.5316770000000  0.2576670000000 1.0
C      1  0.5462640000000  0.2742990000000  0.5937320000000 1.0
C      1  0.5462540000000  0.6940190000000  0.6485930000000 1.0
C      1  0.5462590000000  0.5316770000000  0.2576670000000 1.0
END
