TITL C-986979-5873-49 1.02228160187171e-06 3375 -335.73826576259 0 0 60 (C2) n - 1
REM
REM in /home/bkarasulu/work/CARBON/AIRSS/Generating-Clusters/REBO/Higher-Symm/Only-C60
REM
REM
REM
REM
REM
REM ./C.cell (a2850807a9bf4ad07a5b6933b78d9264)
REM AIRSS Version 0.9.1 bugfix July 2018 build 013d7b7c2542+ Fri, 06 Jul 2018 19:26:36 +0100
REM compiler GCC version 9.2.1 20190827 (Red Hat 9.2.1-1)
REM options -cpp -mtune=generic -march=x86-64 -g -O0 -fpre-include=/usr/include/finclude/math-vector-fortran.h
REM seed 343104526 1090352048 1578544665 -1801992014 209187180 -1906797222 892293899 1643049063 411009820 1922849981 292116568 -1586402685 221777197 549723217 -39114318 1975086181 -1587727420 1450011242 -457846679 137246742 -1855430214 1372653771 931347792 623483399 292618677 86250182 -410252353 1530670934 1477054729 -1206130363 1806543329 -1340171306 1127133879
REM
CELL 1.54180   15.00000   15.00000   15.00000   90.00000   90.00000   90.00000
LATT -1
SFAC C  
C      1  0.4393170000000  0.6220250000000  0.7023550000000 1.0
C      1  0.5606830000000  0.6220230000000  0.2976440000000 1.0
C      1  0.4581360000000  0.6348630000000  0.3140190000000 1.0
C      1  0.5418640000000  0.6348650000000  0.6859790000000 1.0
C      1  0.3678610000000  0.5395390000000  0.3195230000000 1.0
C      1  0.6321390000000  0.5395410000000  0.6804770000000 1.0
C      1  0.3498100000000  0.5253530000000  0.6901510000000 1.0
C      1  0.6501900000000  0.5253520000000  0.3098480000000 1.0
C      1  0.5503950000000  0.6348310000000  0.4295500000000 1.0
C      1  0.4496050000000  0.6348310000000  0.5704490000000 1.0
C      1  0.5551360000000  0.6445700000000  0.5371790000000 1.0
C      1  0.4448640000000  0.6445700000000  0.4628190000000 1.0
C      1  0.2907980000000  0.5189780000000  0.5673300000000 1.0
C      1  0.7092020000000  0.5189780000000  0.4326700000000 1.0
C      1  0.3030230000000  0.5320170000000  0.4731230000000 1.0
C      1  0.6969770000000  0.5320170000000  0.5268770000000 1.0
C      1  0.6435990000000  0.6891090000000  0.4485970000000 1.0
C      1  0.3564000000000  0.6891090000000  0.5514010000000 1.0
C      1  0.6344840000000  0.7188930000000  0.5558320000000 1.0
C      1  0.3655160000000  0.7188920000000  0.4441660000000 1.0
C      1  0.5579130000000  0.2335520000000  0.5574560000000 1.0
C      1  0.4420880000000  0.2335510000000  0.4425460000000 1.0
C      1  0.5476450000000  0.2330230000000  0.4539110000000 1.0
C      1  0.4523560000000  0.2330230000000  0.5460920000000 1.0
C      1  0.6052640000000  0.2910990000000  0.4052040000000 1.0
C      1  0.3947370000000  0.2911000000000  0.5947980000000 1.0
C      1  0.6102650000000  0.3023300000000  0.5981670000000 1.0
C      1  0.3897360000000  0.3023290000000  0.4018350000000 1.0
C      1  0.4421620000000  0.4357620000000  0.6571040000000 1.0
C      1  0.5578390000000  0.4357610000000  0.3428960000000 1.0
C      1  0.4509820000000  0.4491010000000  0.3636580000000 1.0
C      1  0.5490180000000  0.4491020000000  0.6363420000000 1.0
C      1  0.7335620000000  0.6254550000000  0.4397540000000 1.0
C      1  0.2664380000000  0.6254550000000  0.5602450000000 1.0
C      1  0.7094990000000  0.6346400000000  0.5509770000000 1.0
C      1  0.2905000000000  0.6346390000000  0.4490210000000 1.0
C      1  0.6568850000000  0.3592140000000  0.4505390000000 1.0
C      1  0.3431150000000  0.3592140000000  0.5494620000000 1.0
C      1  0.6553040000000  0.3686910000000  0.5441520000000 1.0
C      1  0.3446960000000  0.3686900000000  0.4558490000000 1.0
C      1  0.6623130000000  0.4423190000000  0.3865240000000 1.0
C      1  0.3376880000000  0.4423190000000  0.6134770000000 1.0
C      1  0.6531760000000  0.4687350000000  0.5938750000000 1.0
C      1  0.3468240000000  0.4687330000000  0.4061260000000 1.0
C      1  0.4284760000000  0.3319620000000  0.6747340000000 1.0
C      1  0.5715250000000  0.3319610000000  0.3252670000000 1.0
C      1  0.4298220000000  0.3500380000000  0.3295360000000 1.0
C      1  0.5701780000000  0.3500390000000  0.6704660000000 1.0
C      1  0.3604570000000  0.6439920000000  0.3598340000000 1.0
C      1  0.6395430000000  0.6439940000000  0.6401640000000 1.0
C      1  0.3411570000000  0.6266560000000  0.6460610000000 1.0
C      1  0.6588430000000  0.6266550000000  0.3539380000000 1.0
C      1  0.4335720000000  0.5258250000000  0.7535280000000 1.0
C      1  0.5664280000000  0.5258230000000  0.2464710000000 1.0
C      1  0.4630230000000  0.5379320000000  0.2656810000000 1.0
C      1  0.5369770000000  0.5379340000000  0.7343180000000 1.0
C      1  0.4509770000000  0.5317230000000  0.6055050000000 1.0
C      1  0.5490230000000  0.5317220000000  0.3944950000000 1.0
C      1  0.4514000000000  0.5477760000000  0.4202990000000 1.0
C      1  0.5486000000000  0.5477770000000  0.5797000000000 1.0
END
