TITL C-986974-580-415 0.016296797215739 3375 -330.602784554451 0 0 60 (C10) n - 1
REM
REM in /home/bkarasulu/work/CARBON/AIRSS/Generating-Clusters/REBO/Higher-Symm/Only-C60
REM
REM
REM
REM
REM
REM ./C.cell (a2850807a9bf4ad07a5b6933b78d9264)
REM AIRSS Version 0.9.1 bugfix July 2018 build 013d7b7c2542+ Fri, 06 Jul 2018 19:26:36 +0100
REM compiler GCC version 9.2.1 20190827 (Red Hat 9.2.1-1)
REM options -cpp -mtune=generic -march=x86-64 -g -O0 -fpre-include=/usr/include/finclude/math-vector-fortran.h
REM seed -852137632 -1937739890 -1213965178 -118115537 619260228 1310779253 -1773291035 -989973331 1334036566 833269003 -1208954731 839330702 1126576688 -1379445459 -30600618 -1105261541 290657888 -886949441 -1808024156 1718901109 -975968573 -1097723824 -2007638501 -590996751 -1351780451 2066018129 -161460674 -776228739 1090329155 1203713591 2081651476 -97469707 -1262414829
REM
CELL 1.54180   15.00000   15.00000   15.00000   90.00000   90.00000   90.00000
LATT -1
SFAC C  
C      1  0.3846410000000  0.6987210000000  0.4540640000000 1.0
C      1  0.2897630000000  0.5927310000000  0.4540600000000 1.0
C      1  0.2753970000000  0.4516530000000  0.4540600000000 1.0
C      1  0.3467630000000  0.3287410000000  0.4540620000000 1.0
C      1  0.4765870000000  0.2714800000000  0.4540360000000 1.0
C      1  0.6153590000000  0.3012790000000  0.4540640000000 1.0
C      1  0.7102370000000  0.4072690000000  0.4540600000000 1.0
C      1  0.7246030000000  0.5483470000000  0.4540600000000 1.0
C      1  0.6532370000000  0.6712590000000  0.4540620000000 1.0
C      1  0.5234130000000  0.7285200000000  0.4540360000000 1.0
C      1  0.6722300000000  0.5349700000000  0.5368540000000 1.0
C      1  0.6188280000000  0.6295350000000  0.5368130000000 1.0
C      1  0.5199750000000  0.6745330000000  0.5368130000000 1.0
C      1  0.4135330000000  0.6529470000000  0.5368120000000 1.0
C      1  0.3400970000000  0.5729340000000  0.5368250000000 1.0
C      1  0.3277700000000  0.4650300000000  0.5368540000000 1.0
C      1  0.3811720000000  0.3704650000000  0.5368130000000 1.0
C      1  0.4800250000000  0.3254670000000  0.5368130000000 1.0
C      1  0.5864670000000  0.3470530000000  0.5368120000000 1.0
C      1  0.6599030000000  0.4270660000000  0.5368250000000 1.0
C      1  0.4005010000000  0.6651100000000  0.3585140000000 1.0
C      1  0.3224690000000  0.5750500000000  0.3585550000000 1.0
C      1  0.3122730000000  0.4563630000000  0.3585600000000 1.0
C      1  0.3737220000000  0.3543560000000  0.3585330000000 1.0
C      1  0.4835170000000  0.3079630000000  0.3585400000000 1.0
C      1  0.5994990000000  0.3348900000000  0.3585140000000 1.0
C      1  0.6775310000000  0.4249500000000  0.3585550000000 1.0
C      1  0.6877270000000  0.5436370000000  0.3585600000000 1.0
C      1  0.6262780000000  0.6456440000000  0.3585330000000 1.0
C      1  0.5164830000000  0.6920370000000  0.3585400000000 1.0
C      1  0.6468650000000  0.5610660000000  0.2579960000000 1.0
C      1  0.5829450000000  0.6357000000000  0.2579530000000 1.0
C      1  0.4873020000000  0.6584950000000  0.2579910000000 1.0
C      1  0.3965690000000  0.6207870000000  0.2579550000000 1.0
C      1  0.3452930000000  0.5369160000000  0.2579820000000 1.0
C      1  0.3531350000000  0.4389340000000  0.2579960000000 1.0
C      1  0.4170550000000  0.3643000000000  0.2579530000000 1.0
C      1  0.5126980000000  0.3415050000000  0.2579910000000 1.0
C      1  0.6034310000000  0.3792130000000  0.2579550000000 1.0
C      1  0.6547070000000  0.4630840000000  0.2579820000000 1.0
C      1  0.4877680000000  0.6822870000000  0.6429440000000 1.0
C      1  0.3829200000000  0.6403430000000  0.6429500000000 1.0
C      1  0.3227400000000  0.5447330000000  0.6429530000000 1.0
C      1  0.3302910000000  0.4320240000000  0.6429450000000 1.0
C      1  0.4026610000000  0.3452590000000  0.6429440000000 1.0
C      1  0.5122320000000  0.3177130000000  0.6429440000000 1.0
C      1  0.6170800000000  0.3596570000000  0.6429500000000 1.0
C      1  0.6772600000000  0.4552670000000  0.6429530000000 1.0
C      1  0.6697090000000  0.5679760000000  0.6429450000000 1.0
C      1  0.5973390000000  0.6547410000000  0.6429440000000 1.0
C      1  0.6598490000000  0.4896160000000  0.7496720000000 1.0
C      1  0.6354030000000  0.5855370000000  0.7496730000000 1.0
C      1  0.5592920000000  0.6487970000000  0.7496790000000 1.0
C      1  0.4605320000000  0.6552060000000  0.7496200000000 1.0
C      1  0.3768270000000  0.6023370000000  0.7496420000000 1.0
C      1  0.3401510000000  0.5103840000000  0.7496720000000 1.0
C      1  0.3645970000000  0.4144630000000  0.7496730000000 1.0
C      1  0.4407080000000  0.3512030000000  0.7496790000000 1.0
C      1  0.5394680000000  0.3447940000000  0.7496200000000 1.0
C      1  0.6231730000000  0.3976630000000  0.7496420000000 1.0
END
