TITL C-986975-4297-353 -0.0177094809534957 3375 -336.519805605961 0 0 60 (Ci) n - 1
REM
REM in /home/bkarasulu/work/CARBON/AIRSS/Generating-Clusters/REBO/Higher-Symm/Only-C60
REM
REM
REM
REM
REM
REM ./C.cell (a2850807a9bf4ad07a5b6933b78d9264)
REM AIRSS Version 0.9.1 bugfix July 2018 build 013d7b7c2542+ Fri, 06 Jul 2018 19:26:36 +0100
REM compiler GCC version 9.2.1 20190827 (Red Hat 9.2.1-1)
REM options -cpp -mtune=generic -march=x86-64 -g -O0 -fpre-include=/usr/include/finclude/math-vector-fortran.h
REM seed 1256483199 2063329075 -527678690 164759929 -1660789092 1198436811 1423661798 405321490 768578864 2012388115 1560220212 -1464315764 721953704 2131082966 28923704 1401200216 576436007 2020035356 -1302228747 -161857894 -1640258254 -992891688 1507801617 2009136953 283070860 123094758 1712190625 -262566232 160988585 -1719227925 1954205527 395365109 10035601
REM
CELL 1.54180   15.00000   15.00000   15.00000   90.00000   90.00000   90.00000
LATT -1
SFAC C  
C      1  0.6454120000000  0.6688760000000  0.6516890000000 1.0
C      1  0.3802800000000  0.5043200000000  0.7177720000000 1.0
C      1  0.6851650000000  0.4210930000000  0.6978370000000 1.0
C      1  0.3028870000000  0.3006020000000  0.5933990000000 1.0
C      1  0.6607110000000  0.3072690000000  0.4490340000000 1.0
C      1  0.3545980000000  0.3311330000000  0.3483600000000 1.0
C      1  0.6196700000000  0.4957960000000  0.2820930000000 1.0
C      1  0.3147590000000  0.5789330000000  0.3023680000000 1.0
C      1  0.6973360000000  0.6995210000000  0.4066760000000 1.0
C      1  0.3393370000000  0.6925850000000  0.5510030000000 1.0
C      1  0.6651720000000  0.5783030000000  0.6617370000000 1.0
C      1  0.3617910000000  0.4273630000000  0.6653840000000 1.0
C      1  0.6712490000000  0.3796860000000  0.6003100000000 1.0
C      1  0.3355620000000  0.3061170000000  0.5066880000000 1.0
C      1  0.6451200000000  0.3721390000000  0.3839690000000 1.0
C      1  0.3347160000000  0.4216620000000  0.3382130000000 1.0
C      1  0.6382070000000  0.5727880000000  0.3345520000000 1.0
C      1  0.3287000000000  0.6203230000000  0.3998460000000 1.0
C      1  0.6645580000000  0.6938650000000  0.4933780000000 1.0
C      1  0.3547380000000  0.6278470000000  0.6159950000000 1.0
C      1  0.6421880000000  0.5026290000000  0.7228320000000 1.0
C      1  0.3044500000000  0.3528110000000  0.6731030000000 1.0
C      1  0.6437070000000  0.2954730000000  0.5417090000000 1.0
C      1  0.3865500000000  0.2807340000000  0.4226840000000 1.0
C      1  0.5982630000000  0.4029100000000  0.2983080000000 1.0
C      1  0.3576240000000  0.4974150000000  0.2771330000000 1.0
C      1  0.6956540000000  0.6472940000000  0.3269580000000 1.0
C      1  0.3564190000000  0.7044300000000  0.4584760000000 1.0
C      1  0.6135060000000  0.7192070000000  0.5773090000000 1.0
C      1  0.4016820000000  0.5972380000000  0.7017210000000 1.0
C      1  0.4640020000000  0.6402950000000  0.5258460000000 1.0
C      1  0.5360530000000  0.6009020000000  0.5958620000000 1.0
C      1  0.4963610000000  0.5080010000000  0.6399910000000 1.0
C      1  0.5719860000000  0.4293030000000  0.6269580000000 1.0
C      1  0.5007140000000  0.3707730000000  0.5786350000000 1.0
C      1  0.5360060000000  0.3596830000000  0.4741980000000 1.0
C      1  0.4639810000000  0.3990900000000  0.4041630000000 1.0
C      1  0.5035750000000  0.4920460000000  0.3598470000000 1.0
C      1  0.4278940000000  0.5707290000000  0.3729150000000 1.0
C      1  0.4992480000000  0.6291300000000  0.4213220000000 1.0
C      1  0.4027730000000  0.5282630000000  0.5879730000000 1.0
C      1  0.6397110000000  0.5071630000000  0.5796370000000 1.0
C      1  0.4138010000000  0.4211800000000  0.5733190000000 1.0
C      1  0.6243000000000  0.4222940000000  0.5055530000000 1.0
C      1  0.3804450000000  0.4026570000000  0.4756310000000 1.0
C      1  0.5971050000000  0.4716090000000  0.4120160000000 1.0
C      1  0.3603020000000  0.4928540000000  0.4202310000000 1.0
C      1  0.5861590000000  0.5787180000000  0.4266950000000 1.0
C      1  0.3757900000000  0.5775660000000  0.4944750000000 1.0
C      1  0.6195440000000  0.5973810000000  0.5242500000000 1.0
C      1  0.5056520000000  0.3722330000000  0.3034030000000 1.0
C      1  0.4531970000000  0.5005870000000  0.2632070000000 1.0
C      1  0.7441810000000  0.6676010000000  0.2533220000000 1.0
C      1  0.4434170000000  0.7262630000000  0.4273000000000 1.0
C      1  0.5183100000000  0.7288460000000  0.5649300000000 1.0
C      1  0.4943090000000  0.6278050000000  0.6964520000000 1.0
C      1  0.5466130000000  0.4994550000000  0.7366450000000 1.0
C      1  0.2562050000000  0.3322920000000  0.7468050000000 1.0
C      1  0.5566190000000  0.2737800000000  0.5728190000000 1.0
C      1  0.4817360000000  0.2711360000000  0.4350650000000 1.0
END
