TITL C-986974-580-20 -6.10345168432299e-07 3375 -345.543490787749 0 0 60 (C1) n - 1
REM
REM in /home/bkarasulu/work/CARBON/AIRSS/Generating-Clusters/REBO/Higher-Symm/Only-C60
REM
REM
REM
REM
REM
REM ./C.cell (a2850807a9bf4ad07a5b6933b78d9264)
REM AIRSS Version 0.9.1 bugfix July 2018 build 013d7b7c2542+ Fri, 06 Jul 2018 19:26:36 +0100
REM compiler GCC version 9.2.1 20190827 (Red Hat 9.2.1-1)
REM options -cpp -mtune=generic -march=x86-64 -g -O0 -fpre-include=/usr/include/finclude/math-vector-fortran.h
REM seed 1435224707 -842931351 1202399870 586662688 -903247447 -1365205833 1819254081 1678263373 -1069746438 966403556 1194716243 854754828 1564826565 1594682741 2093153680 -16578560 -194152116 -345023576 1900609598 -526431974 -1283785535 1923121773 1271593208 51651936 102059227 417130898 -1016608558 -1728226265 241005234 842488564 -2043824728 1107555867 1365321198
REM
CELL 1.54180   15.00000   15.00000   15.00000   90.00000   90.00000   90.00000
LATT -1
SFAC C  
C      1  0.3920790000000  0.2805300000000  0.4189900000000 1.0
C      1  0.2625790000000  0.5283080000000  0.4182180000000 1.0
C      1  0.4593150000000  0.7182900000000  0.4192860000000 1.0
C      1  0.7151210000000  0.6422450000000  0.4147310000000 1.0
C      1  0.7049090000000  0.3404090000000  0.4166960000000 1.0
C      1  0.6044590000000  0.2878030000000  0.4197250000000 1.0
C      1  0.7313610000000  0.5331700000000  0.4192270000000 1.0
C      1  0.5661520000000  0.7424030000000  0.4153220000000 1.0
C      1  0.2884750000000  0.6371860000000  0.4166520000000 1.0
C      1  0.2897330000000  0.3300390000000  0.4170920000000 1.0
C      1  0.5421260000000  0.3529130000000  0.3517760000000 1.0
C      1  0.3612100000000  0.3933000000000  0.3555720000000 1.0
C      1  0.3680500000000  0.5820940000000  0.3572070000000 1.0
C      1  0.5516980000000  0.6453830000000  0.3576720000000 1.0
C      1  0.6473210000000  0.4923530000000  0.3557230000000 1.0
C      1  0.4518240000000  0.3488350000000  0.3511140000000 1.0
C      1  0.6308800000000  0.4016320000000  0.3560920000000 1.0
C      1  0.6301190000000  0.5931510000000  0.3572900000000 1.0
C      1  0.4501670000000  0.6250870000000  0.3568490000000 1.0
C      1  0.3438980000000  0.4835400000000  0.3545100000000 1.0
C      1  0.3021550000000  0.3583800000000  0.5806590000000 1.0
C      1  0.3166650000000  0.6327200000000  0.5825590000000 1.0
C      1  0.5744040000000  0.7201520000000  0.5815510000000 1.0
C      1  0.7180540000000  0.5124590000000  0.5793180000000 1.0
C      1  0.5767890000000  0.2990320000000  0.5748210000000 1.0
C      1  0.6909630000000  0.3654170000000  0.5812510000000 1.0
C      1  0.6919750000000  0.6405300000000  0.5812050000000 1.0
C      1  0.4456680000000  0.6981750000000  0.5796780000000 1.0
C      1  0.2738890000000  0.5072590000000  0.5760110000000 1.0
C      1  0.4186110000000  0.2950770000000  0.5745680000000 1.0
C      1  0.6375860000000  0.3966430000000  0.4889880000000 1.0
C      1  0.4506520000000  0.3562940000000  0.4841000000000 1.0
C      1  0.3417360000000  0.4834080000000  0.4876690000000 1.0
C      1  0.4506150000000  0.6262040000000  0.4899480000000 1.0
C      1  0.6395870000000  0.5989550000000  0.4898910000000 1.0
C      1  0.3551040000000  0.3877940000000  0.4885150000000 1.0
C      1  0.5432990000000  0.3600240000000  0.4848200000000 1.0
C      1  0.6490590000000  0.4941000000000  0.4888480000000 1.0
C      1  0.5530670000000  0.6560190000000  0.4903130000000 1.0
C      1  0.3593290000000  0.5851050000000  0.4900020000000 1.0
C      1  0.7116790000000  0.7091580000000  0.5024160000000 1.0
C      1  0.7675530000000  0.3783750000000  0.5032620000000 1.0
C      1  0.4505700000000  0.2247910000000  0.4988130000000 1.0
C      1  0.2107270000000  0.4681720000000  0.4993290000000 1.0
C      1  0.3942300000000  0.7454560000000  0.5028890000000 1.0
C      1  0.3052590000000  0.7049770000000  0.5032300000000 1.0
C      1  0.2248870000000  0.3706090000000  0.5011570000000 1.0
C      1  0.5483030000000  0.2283910000000  0.4985680000000 1.0
C      1  0.7795660000000  0.4757420000000  0.5026450000000 1.0
C      1  0.6298530000000  0.7631010000000  0.5028590000000 1.0
C      1  0.6391400000000  0.6013380000000  0.6576600000000 1.0
C      1  0.6356870000000  0.4032810000000  0.6563200000000 1.0
C      1  0.4470850000000  0.3506220000000  0.6557310000000 1.0
C      1  0.3343700000000  0.4973720000000  0.6558640000000 1.0
C      1  0.4547440000000  0.6423750000000  0.6639850000000 1.0
C      1  0.3675770000000  0.5930720000000  0.6605390000000 1.0
C      1  0.3569700000000  0.4000830000000  0.6540290000000 1.0
C      1  0.5461090000000  0.3524100000000  0.6563610000000 1.0
C      1  0.6586120000000  0.5003820000000  0.6609550000000 1.0
C      1  0.5563960000000  0.6578760000000  0.6589280000000 1.0
END
