TITL C-986974-580-1014 -7.81992837320501e-05 3375 -335.067830718337 0 0 60 (C3) n - 1
REM
REM in /home/bkarasulu/work/CARBON/AIRSS/Generating-Clusters/REBO/Higher-Symm/Only-C60
REM
REM
REM
REM
REM
REM ./C.cell (a2850807a9bf4ad07a5b6933b78d9264)
REM AIRSS Version 0.9.1 bugfix July 2018 build 013d7b7c2542+ Fri, 06 Jul 2018 19:26:36 +0100
REM compiler GCC version 9.2.1 20190827 (Red Hat 9.2.1-1)
REM options -cpp -mtune=generic -march=x86-64 -g -O0 -fpre-include=/usr/include/finclude/math-vector-fortran.h
REM seed -1108368006 -1151168312 1001865540 -1536054441 1126004843 -1954900462 -1188824166 -8048733 1490357056 -1906514010 -395356943 -603956619 -1821230812 -1876245135 -1303168922 336981869 1723471578 -368146485 -821978475 -89363007 -206737298 114140024 1511624342 -1195183603 -1037148569 -1824284046 728486733 657004165 385062539 -1644931857 1090698423 384290774 999006031
REM
CELL 1.54180   15.00000   15.00000   15.00000   90.00000   90.00000   90.00000
LATT -1
SFAC C  
C      1  0.5245510000000  0.5739660000000  0.2305370000000 1.0
C      1  0.5245110000000  0.6963700000000  0.6988010000000 1.0
C      1  0.5243780000000  0.2296390000000  0.5706740000000 1.0
C      1  0.5480980000000  0.3737110000000  0.5715410000000 1.0
C      1  0.5481780000000  0.5011720000000  0.3548860000000 1.0
C      1  0.5481810000000  0.6250700000000  0.5735980000000 1.0
C      1  0.3919140000000  0.7146770000000  0.3814020000000 1.0
C      1  0.3917780000000  0.4954080000000  0.7451550000000 1.0
C      1  0.3917750000000  0.2900230000000  0.3733860000000 1.0
C      1  0.6051630000000  0.4437180000000  0.2728050000000 1.0
C      1  0.6052050000000  0.7248610000000  0.5649130000000 1.0
C      1  0.6050580000000  0.3313160000000  0.6623370000000 1.0
C      1  0.5235360000000  0.4783570000000  0.2262390000000 1.0
C      1  0.5235580000000  0.7478980000000  0.6181500000000 1.0
C      1  0.5233940000000  0.2737220000000  0.6556230000000 1.0
C      1  0.3609170000000  0.6018350000000  0.5064850000000 1.0
C      1  0.3608510000000  0.4435140000000  0.5848730000000 1.0
C      1  0.3608850000000  0.4547890000000  0.4085700000000 1.0
C      1  0.3852720000000  0.6979780000000  0.4949070000000 1.0
C      1  0.3851440000000  0.4054620000000  0.6739370000000 1.0
C      1  0.3852010000000  0.3966750000000  0.3310960000000 1.0
C      1  0.2659480000000  0.5048060000000  0.5947480000000 1.0
C      1  0.2659430000000  0.4156240000000  0.4566600000000 1.0
C      1  0.2659990000000  0.5798030000000  0.4484700000000 1.0
C      1  0.4983250000000  0.5286950000000  0.7232990000000 1.0
C      1  0.4983010000000  0.2922700000000  0.4132000000000 1.0
C      1  0.4984380000000  0.6790360000000  0.3634990000000 1.0
C      1  0.5621410000000  0.2658310000000  0.4947680000000 1.0
C      1  0.5622930000000  0.6215940000000  0.2998530000000 1.0
C      1  0.5622200000000  0.6125140000000  0.7054110000000 1.0
C      1  0.3275380000000  0.6323720000000  0.3811820000000 1.0
C      1  0.3274550000000  0.5367730000000  0.6739520000000 1.0
C      1  0.3274270000000  0.3310270000000  0.4447760000000 1.0
C      1  0.6382850000000  0.3431240000000  0.5098680000000 1.0
C      1  0.6383870000000  0.5698440000000  0.3592830000000 1.0
C      1  0.6383450000000  0.5868950000000  0.6309210000000 1.0
C      1  0.5530870000000  0.6180960000000  0.4699440000000 1.0
C      1  0.5530120000000  0.4669630000000  0.6173310000000 1.0
C      1  0.5530300000000  0.4148890000000  0.4127520000000 1.0
C      1  0.4526930000000  0.7606870000000  0.5578680000000 1.0
C      1  0.4525230000000  0.3195580000000  0.6968010000000 1.0
C      1  0.4526350000000  0.4198020000000  0.2453060000000 1.0
C      1  0.4758640000000  0.7517830000000  0.4475270000000 1.0
C      1  0.4757030000000  0.4195600000000  0.7442740000000 1.0
C      1  0.4757480000000  0.3286810000000  0.3081870000000 1.0
C      1  0.6634570000000  0.7222500000000  0.4954080000000 1.0
C      1  0.6633130000000  0.3927950000000  0.6948600000000 1.0
C      1  0.6633780000000  0.3847920000000  0.3098170000000 1.0
C      1  0.6607300000000  0.6280780000000  0.4481650000000 1.0
C      1  0.6606480000000  0.4807960000000  0.6369250000000 1.0
C      1  0.6606570000000  0.3909660000000  0.4149940000000 1.0
C      1  0.3907760000000  0.4012010000000  0.5011430000000 1.0
C      1  0.3908400000000  0.5484480000000  0.4138060000000 1.0
C      1  0.3908110000000  0.5504600000000  0.5849940000000 1.0
C      1  0.6838270000000  0.4983000000000  0.4343060000000 1.0
C      1  0.6838300000000  0.5576790000000  0.5314750000000 1.0
C      1  0.6837910000000  0.4438390000000  0.5343140000000 1.0
C      1  0.4883130000000  0.3761770000000  0.4888150000000 1.0
C      1  0.4883930000000  0.5716020000000  0.3983520000000 1.0
C      1  0.4883490000000  0.5522330000000  0.6128270000000 1.0
END
