TITL C-986974-580-149 2.38930104906409e-05 3375 -332.66768360424 0 0 60 (C1) n - 1
REM
REM in /home/bkarasulu/work/CARBON/AIRSS/Generating-Clusters/REBO/Higher-Symm/Only-C60
REM
REM
REM
REM
REM
REM ./C.cell (a2850807a9bf4ad07a5b6933b78d9264)
REM AIRSS Version 0.9.1 bugfix July 2018 build 013d7b7c2542+ Fri, 06 Jul 2018 19:26:36 +0100
REM compiler GCC version 9.2.1 20190827 (Red Hat 9.2.1-1)
REM options -cpp -mtune=generic -march=x86-64 -g -O0 -fpre-include=/usr/include/finclude/math-vector-fortran.h
REM seed 983541797 524900956 1355353759 376439753 1703782230 482197432 2019428364 180947321 -411411973 255989254 -107357617 -1732101841 -1112784779 2104112852 -1644543902 1766077004 -1985025505 463359311 -584703366 2138317924 -1869143867 774753884 -265464398 1122381360 -1009469444 1766160785 -1787071347 -735959168 1685852368 933030126 -1214140879 1788932528 -2048293327
REM
CELL 1.54180   15.00000   15.00000   15.00000   90.00000   90.00000   90.00000
LATT -1
SFAC C  
C      1  0.4453360000000  0.2445120000000  0.6783470000000 1.0
C      1  0.4389480000000  0.7570050000000  0.3236060000000 1.0
C      1  0.5076490000000  0.2363020000000  0.5837980000000 1.0
C      1  0.5060980000000  0.7637860000000  0.4151680000000 1.0
C      1  0.6397480000000  0.5846960000000  0.5947910000000 1.0
C      1  0.6390930000000  0.4166590000000  0.4108320000000 1.0
C      1  0.6031100000000  0.4616660000000  0.6284410000000 1.0
C      1  0.6089860000000  0.5379440000000  0.3661660000000 1.0
C      1  0.5334300000000  0.7099670000000  0.5063730000000 1.0
C      1  0.5280910000000  0.2888070000000  0.4914720000000 1.0
C      1  0.2820600000000  0.5842480000000  0.5138800000000 1.0
C      1  0.2823220000000  0.4143180000000  0.4894550000000 1.0
C      1  0.6300010000000  0.6444630000000  0.4423340000000 1.0
C      1  0.6259030000000  0.3621050000000  0.5435260000000 1.0
C      1  0.4604980000000  0.4932850000000  0.3114510000000 1.0
C      1  0.4584010000000  0.5070890000000  0.6904960000000 1.0
C      1  0.6643300000000  0.5900900000000  0.3218420000000 1.0
C      1  0.6583050000000  0.4083440000000  0.6720980000000 1.0
C      1  0.4930040000000  0.3975500000000  0.5008490000000 1.0
C      1  0.4951030000000  0.6022150000000  0.4986550000000 1.0
C      1  0.3993680000000  0.4242100000000  0.3303480000000 1.0
C      1  0.3973420000000  0.5767530000000  0.6746940000000 1.0
C      1  0.5820290000000  0.4593900000000  0.5234440000000 1.0
C      1  0.5830980000000  0.5448160000000  0.4702510000000 1.0
C      1  0.3301620000000  0.6092290000000  0.4162390000000 1.0
C      1  0.3310040000000  0.3897120000000  0.5872310000000 1.0
C      1  0.7627090000000  0.4776340000000  0.6080990000000 1.0
C      1  0.7677680000000  0.5157990000000  0.4058700000000 1.0
C      1  0.5524300000000  0.4632890000000  0.3360760000000 1.0
C      1  0.5488970000000  0.5360540000000  0.6633300000000 1.0
C      1  0.5499030000000  0.7990930000000  0.6701790000000 1.0
C      1  0.5551350000000  0.2078370000000  0.3221120000000 1.0
C      1  0.4191010000000  0.6800190000000  0.6318700000000 1.0
C      1  0.4203900000000  0.3203970000000  0.3722610000000 1.0
C      1  0.3114800000000  0.5030230000000  0.4360290000000 1.0
C      1  0.3110520000000  0.4957960000000  0.5673920000000 1.0
C      1  0.3277920000000  0.6242710000000  0.5988660000000 1.0
C      1  0.3279850000000  0.3749680000000  0.4034830000000 1.0
C      1  0.6363540000000  0.6739290000000  0.5392730000000 1.0
C      1  0.6330310000000  0.3131700000000  0.4534380000000 1.0
C      1  0.5062030000000  0.6739170000000  0.3169410000000 1.0
C      1  0.5078120000000  0.3309010000000  0.6775110000000 1.0
C      1  0.4135090000000  0.2894240000000  0.5592200000000 1.0
C      1  0.4158800000000  0.7067340000000  0.4441810000000 1.0
C      1  0.5163740000000  0.2786680000000  0.3787300000000 1.0
C      1  0.5136370000000  0.7238170000000  0.6173250000000 1.0
C      1  0.3772460000000  0.6643350000000  0.3460310000000 1.0
C      1  0.3766710000000  0.3326040000000  0.6577390000000 1.0
C      1  0.5343730000000  0.3834980000000  0.3999040000000 1.0
C      1  0.5332110000000  0.6183000000000  0.6013430000000 1.0
C      1  0.4067230000000  0.5521940000000  0.4795350000000 1.0
C      1  0.4066100000000  0.4475780000000  0.5236210000000 1.0
C      1  0.3898740000000  0.6805250000000  0.5220960000000 1.0
C      1  0.3882230000000  0.3176640000000  0.4810450000000 1.0
C      1  0.4479300000000  0.4142670000000  0.6931150000000 1.0
C      1  0.4503140000000  0.5864440000000  0.3067260000000 1.0
C      1  0.5837610000000  0.3157450000000  0.6117770000000 1.0
C      1  0.5849120000000  0.6923250000000  0.3783790000000 1.0
C      1  0.6994550000000  0.5143770000000  0.5529440000000 1.0
C      1  0.6998360000000  0.4822440000000  0.4577750000000 1.0
END
