TITL C-986979-5873-371 -2.01982091063735e-05 3375 -331.295911235423 0 0 60 (C3i) n - 1
REM
REM in /home/bkarasulu/work/CARBON/AIRSS/Generating-Clusters/REBO/Higher-Symm/Only-C60
REM
REM
REM
REM
REM
REM ./C.cell (a2850807a9bf4ad07a5b6933b78d9264)
REM AIRSS Version 0.9.1 bugfix July 2018 build 013d7b7c2542+ Fri, 06 Jul 2018 19:26:36 +0100
REM compiler GCC version 9.2.1 20190827 (Red Hat 9.2.1-1)
REM options -cpp -mtune=generic -march=x86-64 -g -O0 -fpre-include=/usr/include/finclude/math-vector-fortran.h
REM seed -273779020 -1142114438 -2099660687 -532088998 638404134 1355474304 40197248 327519656 1557789364 -1543260818 490516266 -304345463 1807278461 -1798552783 -292532431 970337086 857992093 -1655272323 1595664975 -475932286 -745119540 -1280571727 507956915 -647352844 593032862 -2111517407 1885100451 -1325941180 1994283815 -1732685991 -2035285116 2107123009 -784518354
REM
CELL 1.54180   15.00000   15.00000   15.00000   90.00000   90.00000   90.00000
LATT -1
SFAC C  
C      1  0.2172080000000  0.4919740000000  0.4388890000000 1.0
C      1  0.7828260000000  0.5490370000000  0.4626270000000 1.0
C      1  0.2172080000000  0.5569280000000  0.5236260000000 1.0
C      1  0.7828320000000  0.5078580000000  0.5611300000000 1.0
C      1  0.2172120000000  0.4510670000000  0.5375090000000 1.0
C      1  0.7828320000000  0.4431420000000  0.4762170000000 1.0
C      1  0.2771050000000  0.4907360000000  0.6487940000000 1.0
C      1  0.7229570000000  0.3663530000000  0.5660140000000 1.0
C      1  0.2771020000000  0.3757650000000  0.4175970000000 1.0
C      1  0.7229430000000  0.5096630000000  0.3512320000000 1.0
C      1  0.2770950000000  0.6334730000000  0.4336280000000 1.0
C      1  0.7229460000000  0.6240140000000  0.5827330000000 1.0
C      1  0.7111290000000  0.5308130000000  0.6406010000000 1.0
C      1  0.2889390000000  0.3938820000000  0.5972700000000 1.0
C      1  0.7111300000000  0.3628380000000  0.4563670000000 1.0
C      1  0.2889290000000  0.4688130000000  0.3594800000000 1.0
C      1  0.7111180000000  0.6063760000000  0.4030130000000 1.0
C      1  0.2889300000000  0.6372800000000  0.5432680000000 1.0
C      1  0.2277260000000  0.6264730000000  0.3586850000000 1.0
C      1  0.7723080000000  0.6855380000000  0.5393640000000 1.0
C      1  0.2277370000000  0.5591370000000  0.6802070000000 1.0
C      1  0.7723270000000  0.3731520000000  0.6409750000000 1.0
C      1  0.2277380000000  0.3143590000000  0.4611320000000 1.0
C      1  0.7723120000000  0.4413460000000  0.3196360000000 1.0
C      1  0.2251790000000  0.5446150000000  0.3166890000000 1.0
C      1  0.7748570000000  0.6812260000000  0.4474630000000 1.0
C      1  0.2251860000000  0.6364350000000  0.6303140000000 1.0
C      1  0.7748760000000  0.4548970000000  0.6831910000000 1.0
C      1  0.2251930000000  0.3189190000000  0.5530210000000 1.0
C      1  0.7748690000000  0.3639140000000  0.3693210000000 1.0
C      1  0.5027490000000  0.3087550000000  0.4415650000000 1.0
C      1  0.4969240000000  0.4549320000000  0.3051180000000 1.0
C      1  0.5027330000000  0.6462270000000  0.3635960000000 1.0
C      1  0.4969220000000  0.6913050000000  0.5584140000000 1.0
C      1  0.5027480000000  0.5450140000000  0.6948400000000 1.0
C      1  0.4969400000000  0.3537580000000  0.6364700000000 1.0
C      1  0.4840520000000  0.4335560000000  0.5630320000000 1.0
C      1  0.5161230000000  0.4121660000000  0.4739960000000 1.0
C      1  0.4840450000000  0.4786330000000  0.4109440000000 1.0
C      1  0.5161160000000  0.5664360000000  0.4369360000000 1.0
C      1  0.4840460000000  0.5878060000000  0.5260270000000 1.0
C      1  0.5161220000000  0.5213960000000  0.5890680000000 1.0
C      1  0.6127590000000  0.6165240000000  0.4374090000000 1.0
C      1  0.3872930000000  0.6126220000000  0.5693160000000 1.0
C      1  0.6127710000000  0.4959470000000  0.6322000000000 1.0
C      1  0.3873000000000  0.3836540000000  0.5628850000000 1.0
C      1  0.6127690000000  0.3875430000000  0.4303830000000 1.0
C      1  0.3872900000000  0.5037070000000  0.3678090000000 1.0
C      1  0.3365050000000  0.5139000000000  0.5641160000000 1.0
C      1  0.6635370000000  0.4513170000000  0.5439630000000 1.0
C      1  0.3365050000000  0.4375170000000  0.4799930000000 1.0
C      1  0.6635320000000  0.4862750000000  0.4358440000000 1.0
C      1  0.3365010000000  0.5485620000000  0.4559050000000 1.0
C      1  0.6635310000000  0.5624300000000  0.5201790000000 1.0
C      1  0.4655700000000  0.5639280000000  0.3113720000000 1.0
C      1  0.5342250000000  0.6953510000000  0.4610530000000 1.0
C      1  0.4655780000000  0.6313890000000  0.6496820000000 1.0
C      1  0.5342450000000  0.4360530000000  0.6886510000000 1.0
C      1  0.4655860000000  0.3046750000000  0.5389500000000 1.0
C      1  0.5342360000000  0.3685960000000  0.3502940000000 1.0
END
