TITL C-986973-6940-151 -1.36039498362225e-06 3375 -330.78745027986 0 0 60 (D2) n - 1
REM
REM in /home/bkarasulu/work/CARBON/AIRSS/Generating-Clusters/REBO/Higher-Symm/Only-C60
REM
REM
REM
REM
REM
REM ./C.cell (a2850807a9bf4ad07a5b6933b78d9264)
REM AIRSS Version 0.9.1 bugfix July 2018 build 013d7b7c2542+ Fri, 06 Jul 2018 19:26:36 +0100
REM compiler GCC version 9.2.1 20190827 (Red Hat 9.2.1-1)
REM options -cpp -mtune=generic -march=x86-64 -g -O0 -fpre-include=/usr/include/finclude/math-vector-fortran.h
REM seed 983370278 -1418268653 444905742 1720188758 -1874510839 -1396357935 -1588764030 1743261148 -1707140992 -2107402401 -725237491 -1284691317 1275831161 -1685315848 -350291256 -2081575830 2009016446 1261463820 1952180096 1810145996 -1553709484 269984109 1138396687 695983407 2089974377 1484971303 -13750551 -1723858732 -1089107297 472793883 459834766 410005506 1755658723
REM
CELL 1.54180   15.00000   15.00000   15.00000   90.00000   90.00000   90.00000
LATT -1
SFAC C  
C      1  0.3856950000000  0.3260780000000  0.6284050000000 1.0
C      1  0.6142790000000  0.3260630000000  0.3715940000000 1.0
C      1  0.3921820000000  0.6892650000000  0.6440120000000 1.0
C      1  0.6078450000000  0.6892510000000  0.3559890000000 1.0
C      1  0.6078190000000  0.3107350000000  0.6440120000000 1.0
C      1  0.3921540000000  0.3107520000000  0.3559860000000 1.0
C      1  0.6143040000000  0.6739230000000  0.6284070000000 1.0
C      1  0.3857210000000  0.6739410000000  0.3715950000000 1.0
C      1  0.5450220000000  0.3958800000000  0.6881980000000 1.0
C      1  0.4549630000000  0.3958890000000  0.3118010000000 1.0
C      1  0.5525000000000  0.5993430000000  0.6878740000000 1.0
C      1  0.4475140000000  0.5993520000000  0.3121270000000 1.0
C      1  0.4474990000000  0.4006570000000  0.6878730000000 1.0
C      1  0.5524870000000  0.4006520000000  0.3121250000000 1.0
C      1  0.4549780000000  0.6041200000000  0.6881990000000 1.0
C      1  0.5450370000000  0.6041150000000  0.3118010000000 1.0
C      1  0.6553560000000  0.4283500000000  0.3573160000000 1.0
C      1  0.3446330000000  0.4283710000000  0.6426830000000 1.0
C      1  0.6515880000000  0.5844870000000  0.3508910000000 1.0
C      1  0.3484240000000  0.5845070000000  0.6491100000000 1.0
C      1  0.3484120000000  0.4155170000000  0.3508890000000 1.0
C      1  0.6515760000000  0.4154930000000  0.6491100000000 1.0
C      1  0.3446460000000  0.5716530000000  0.3573180000000 1.0
C      1  0.6553650000000  0.5716290000000  0.6426820000000 1.0
C      1  0.5547260000000  0.5364100000000  0.4295040000000 1.0
C      1  0.4452800000000  0.5364170000000  0.5704960000000 1.0
C      1  0.5514780000000  0.4357750000000  0.4405400000000 1.0
C      1  0.4485130000000  0.4357820000000  0.5594600000000 1.0
C      1  0.4485270000000  0.5642180000000  0.4405380000000 1.0
C      1  0.5514830000000  0.5642100000000  0.5594620000000 1.0
C      1  0.4452830000000  0.4635850000000  0.4295020000000 1.0
C      1  0.5547130000000  0.4635770000000  0.5704970000000 1.0
C      1  0.3164480000000  0.6764320000000  0.5604880000000 1.0
C      1  0.6835780000000  0.6764060000000  0.4395140000000 1.0
C      1  0.3187660000000  0.3491710000000  0.5400200000000 1.0
C      1  0.6812120000000  0.3491450000000  0.4599780000000 1.0
C      1  0.6812350000000  0.6508320000000  0.5400220000000 1.0
C      1  0.3187870000000  0.6508580000000  0.4599800000000 1.0
C      1  0.6835510000000  0.3235710000000  0.5604860000000 1.0
C      1  0.3164230000000  0.3235980000000  0.4395120000000 1.0
C      1  0.7053330000000  0.4593010000000  0.4474190000000 1.0
C      1  0.2946610000000  0.4593300000000  0.5525800000000 1.0
C      1  0.7067840000000  0.5652490000000  0.4415720000000 1.0
C      1  0.2932260000000  0.5652780000000  0.5584290000000 1.0
C      1  0.2932160000000  0.4347550000000  0.4415710000000 1.0
C      1  0.7067740000000  0.4347240000000  0.5584290000000 1.0
C      1  0.2946680000000  0.5407020000000  0.4474200000000 1.0
C      1  0.7053380000000  0.5406720000000  0.5525800000000 1.0
C      1  0.5504510000000  0.6748440000000  0.5430430000000 1.0
C      1  0.4495750000000  0.6748510000000  0.4569590000000 1.0
C      1  0.5546800000000  0.3561990000000  0.5614860000000 1.0
C      1  0.4452990000000  0.3562070000000  0.4385130000000 1.0
C      1  0.4453170000000  0.6437960000000  0.5614860000000 1.0
C      1  0.5547040000000  0.6437880000000  0.4385150000000 1.0
C      1  0.4495480000000  0.3251480000000  0.5430400000000 1.0
C      1  0.5504270000000  0.3251400000000  0.4569590000000 1.0
C      1  0.4038600000000  0.5035070000000  0.6973150000000 1.0
C      1  0.5961410000000  0.5034950000000  0.3026850000000 1.0
C      1  0.5961390000000  0.4964940000000  0.6973140000000 1.0
C      1  0.4038600000000  0.4965090000000  0.3026860000000 1.0
END
