TITL C-986979-5873-806 -1.59940690302881e-05 3375 -336.905962836692 0 0 60 (C1) n - 1
REM
REM in /home/bkarasulu/work/CARBON/AIRSS/Generating-Clusters/REBO/Higher-Symm/Only-C60
REM
REM
REM
REM
REM
REM ./C.cell (a2850807a9bf4ad07a5b6933b78d9264)
REM AIRSS Version 0.9.1 bugfix July 2018 build 013d7b7c2542+ Fri, 06 Jul 2018 19:26:36 +0100
REM compiler GCC version 9.2.1 20190827 (Red Hat 9.2.1-1)
REM options -cpp -mtune=generic -march=x86-64 -g -O0 -fpre-include=/usr/include/finclude/math-vector-fortran.h
REM seed 1528818867 452705987 153999773 968759377 -236430099 1541197835 350574458 1176791518 -901722240 -1550627127 1989980325 850501026 1659898416 739743043 1813457711 -1858139440 -167075385 -686585350 -284845893 1426399256 1480324841 -2135532575 -27608138 -1116800183 1381170692 -60429900 1649727693 1738249369 -748447862 1792293653 1929227012 1381979435 169412122
REM
CELL 1.54180   15.00000   15.00000   15.00000   90.00000   90.00000   90.00000
LATT -1
SFAC C  
C      1  0.4829460000000  0.3042450000000  0.3327290000000 1.0
C      1  0.4764030000000  0.7010410000000  0.3409830000000 1.0
C      1  0.3172030000000  0.7034110000000  0.5364030000000 1.0
C      1  0.3222270000000  0.3056810000000  0.5313010000000 1.0
C      1  0.2377960000000  0.5572220000000  0.4440270000000 1.0
C      1  0.2583820000000  0.4634070000000  0.4447590000000 1.0
C      1  0.5308210000000  0.7211760000000  0.5824410000000 1.0
C      1  0.5327850000000  0.2902860000000  0.5921400000000 1.0
C      1  0.6805510000000  0.4577780000000  0.3063760000000 1.0
C      1  0.6888300000000  0.5488920000000  0.2892470000000 1.0
C      1  0.4598140000000  0.3400180000000  0.4589550000000 1.0
C      1  0.4453960000000  0.6516640000000  0.4608180000000 1.0
C      1  0.5368590000000  0.7001200000000  0.4825450000000 1.0
C      1  0.5457280000000  0.2844720000000  0.4902280000000 1.0
C      1  0.6333200000000  0.5598510000000  0.6765350000000 1.0
C      1  0.6359530000000  0.4524770000000  0.6832590000000 1.0
C      1  0.5433010000000  0.4248190000000  0.7426490000000 1.0
C      1  0.5434160000000  0.5323300000000  0.7343970000000 1.0
C      1  0.6079770000000  0.4325640000000  0.5024850000000 1.0
C      1  0.6021750000000  0.5372750000000  0.4863430000000 1.0
C      1  0.3693290000000  0.4504420000000  0.4643990000000 1.0
C      1  0.3512050000000  0.5573090000000  0.4592080000000 1.0
C      1  0.4314890000000  0.2962550000000  0.5570800000000 1.0
C      1  0.4272910000000  0.7074050000000  0.5568300000000 1.0
C      1  0.2981920000000  0.6530830000000  0.4513670000000 1.0
C      1  0.3085490000000  0.3614080000000  0.4479780000000 1.0
C      1  0.5243030000000  0.4661240000000  0.6117970000000 1.0
C      1  0.5227040000000  0.5473440000000  0.6036830000000 1.0
C      1  0.3611630000000  0.4048840000000  0.6950450000000 1.0
C      1  0.3616870000000  0.5965390000000  0.6942780000000 1.0
C      1  0.5013800000000  0.5537720000000  0.3006940000000 1.0
C      1  0.5176510000000  0.4498750000000  0.2999160000000 1.0
C      1  0.3929620000000  0.3578050000000  0.3724030000000 1.0
C      1  0.3799020000000  0.6549970000000  0.3739820000000 1.0
C      1  0.3605320000000  0.3450720000000  0.6255560000000 1.0
C      1  0.3587770000000  0.6592390000000  0.6275910000000 1.0
C      1  0.4781420000000  0.4490020000000  0.4634870000000 1.0
C      1  0.4624700000000  0.5441440000000  0.4629910000000 1.0
C      1  0.5775960000000  0.3715340000000  0.6262350000000 1.0
C      1  0.5772920000000  0.6440180000000  0.6245250000000 1.0
C      1  0.6247590000000  0.3276490000000  0.4659080000000 1.0
C      1  0.6094900000000  0.6482650000000  0.4615870000000 1.0
C      1  0.5518570000000  0.3608590000000  0.3071080000000 1.0
C      1  0.5414670000000  0.6408530000000  0.3143580000000 1.0
C      1  0.7051820000000  0.6187800000000  0.4340360000000 1.0
C      1  0.7159410000000  0.3742360000000  0.4385990000000 1.0
C      1  0.2826470000000  0.4550740000000  0.7144760000000 1.0
C      1  0.2830380000000  0.5469950000000  0.7148230000000 1.0
C      1  0.4168090000000  0.4558700000000  0.3304210000000 1.0
C      1  0.3997220000000  0.5583590000000  0.3294910000000 1.0
C      1  0.6774240000000  0.4122840000000  0.5886130000000 1.0
C      1  0.6583800000000  0.5866740000000  0.5692390000000 1.0
C      1  0.6587350000000  0.3544110000000  0.3411300000000 1.0
C      1  0.6500180000000  0.6422060000000  0.3357800000000 1.0
C      1  0.4427400000000  0.4467620000000  0.7253550000000 1.0
C      1  0.4425740000000  0.5538330000000  0.7212470000000 1.0
C      1  0.6107800000000  0.5461050000000  0.3760940000000 1.0
C      1  0.6097750000000  0.4407260000000  0.3956870000000 1.0
C      1  0.7344580000000  0.5437000000000  0.4962190000000 1.0
C      1  0.7397030000000  0.4473770000000  0.5021660000000 1.0
END
