TITL C-986974-580-600 -1.17865321691341e-05 3375 -359.908768765185 0 0 60 (C4) n - 1
REM
REM in /home/bkarasulu/work/CARBON/AIRSS/Generating-Clusters/REBO/Higher-Symm/Only-C60
REM
REM
REM
REM
REM
REM ./C.cell (a2850807a9bf4ad07a5b6933b78d9264)
REM AIRSS Version 0.9.1 bugfix July 2018 build 013d7b7c2542+ Fri, 06 Jul 2018 19:26:36 +0100
REM compiler GCC version 9.2.1 20190827 (Red Hat 9.2.1-1)
REM options -cpp -mtune=generic -march=x86-64 -g -O0 -fpre-include=/usr/include/finclude/math-vector-fortran.h
REM seed 1610355034 -380872365 1138712618 -258016217 -1801896836 -134108468 -691704303 1465378050 1027130820 -2024476588 1467238099 -735585490 -1204167997 -1525891219 1457372142 58432678 414836009 344407188 1660966447 1275699880 2074156809 178925319 1009055599 1615481352 -1124245643 633645407 304174875 -39223476 1011055017 1557522936 425862174 213649839 -209262303
REM
CELL 1.54180   15.00000   15.00000   15.00000   90.00000   90.00000   90.00000
LATT -1
SFAC C  
C      1  0.5377320000000  0.3938900000000  0.6301270000000 1.0
C      1  0.3698720000000  0.3938940000000  0.5377330000000 1.0
C      1  0.4622630000000  0.3938920000000  0.3698730000000 1.0
C      1  0.6301220000000  0.3938870000000  0.4622670000000 1.0
C      1  0.5666570000000  0.3934010000000  0.3682020000000 1.0
C      1  0.3681980000000  0.3934060000000  0.4333390000000 1.0
C      1  0.4333370000000  0.3934040000000  0.6317980000000 1.0
C      1  0.6317970000000  0.3933990000000  0.5666610000000 1.0
C      1  0.3745300000000  0.3685040000000  0.3030500000000 1.0
C      1  0.6969450000000  0.3684960000000  0.3745350000000 1.0
C      1  0.6254630000000  0.3684980000000  0.6969500000000 1.0
C      1  0.3030480000000  0.3685060000000  0.6254650000000 1.0
C      1  0.3595450000000  0.3664000000000  0.7097850000000 1.0
C      1  0.7097830000000  0.3663920000000  0.6404530000000 1.0
C      1  0.6404480000000  0.3663930000000  0.2902150000000 1.0
C      1  0.2902100000000  0.3664030000000  0.3595470000000 1.0
C      1  0.2539600000000  0.4529440000000  0.3992690000000 1.0
C      1  0.6007290000000  0.4529340000000  0.2539630000000 1.0
C      1  0.7460370000000  0.4529310000000  0.6007310000000 1.0
C      1  0.3992680000000  0.4529390000000  0.7460370000000 1.0
C      1  0.2611030000000  0.4540220000000  0.5899440000000 1.0
C      1  0.5899430000000  0.4540140000000  0.7388960000000 1.0
C      1  0.7388950000000  0.4540100000000  0.4100560000000 1.0
C      1  0.4100540000000  0.4540190000000  0.2611040000000 1.0
C      1  0.5375450000000  0.5031630000000  0.3626790000000 1.0
C      1  0.6373210000000  0.5031600000000  0.5375460000000 1.0
C      1  0.4624550000000  0.5031640000000  0.6373210000000 1.0
C      1  0.3626790000000  0.5031670000000  0.4624540000000 1.0
C      1  0.5620600000000  0.5002230000000  0.6043380000000 1.0
C      1  0.6043370000000  0.5002220000000  0.4379410000000 1.0
C      1  0.4379400000000  0.5002260000000  0.3956620000000 1.0
C      1  0.3956630000000  0.5002270000000  0.5620590000000 1.0
C      1  0.3628420000000  0.5355990000000  0.2925570000000 1.0
C      1  0.7074440000000  0.5355890000000  0.3628420000000 1.0
C      1  0.6371600000000  0.5355920000000  0.7074430000000 1.0
C      1  0.2925580000000  0.5356000000000  0.6371580000000 1.0
C      1  0.3564330000000  0.5345220000000  0.7106790000000 1.0
C      1  0.7106800000000  0.5345140000000  0.6435680000000 1.0
C      1  0.6435690000000  0.5345150000000  0.2893220000000 1.0
C      1  0.2893220000000  0.5345250000000  0.3564320000000 1.0
C      1  0.5394800000000  0.6773450000000  0.3753410000000 1.0
C      1  0.6246640000000  0.6773430000000  0.5394760000000 1.0
C      1  0.4605290000000  0.6773470000000  0.6246590000000 1.0
C      1  0.3753460000000  0.6773500000000  0.4605240000000 1.0
C      1  0.5593320000000  0.6806400000000  0.6048540000000 1.0
C      1  0.6048580000000  0.6806390000000  0.4406730000000 1.0
C      1  0.4406770000000  0.6806430000000  0.3951460000000 1.0
C      1  0.3951510000000  0.6806440000000  0.5593270000000 1.0
C      1  0.4457710000000  0.5939640000000  0.3313410000000 1.0
C      1  0.6686610000000  0.5939580000000  0.4457690000000 1.0
C      1  0.5542340000000  0.5939620000000  0.6686590000000 1.0
C      1  0.3313440000000  0.5939670000000  0.5542310000000 1.0
C      1  0.4440380000000  0.5967580000000  0.6951740000000 1.0
C      1  0.6951760000000  0.5967520000000  0.5559640000000 1.0
C      1  0.5559670000000  0.5967550000000  0.3048260000000 1.0
C      1  0.3048290000000  0.5967620000000  0.4440360000000 1.0
C      1  0.5046420000000  0.4556090000000  0.2400480000000 1.0
C      1  0.4953560000000  0.4556100000000  0.7599520000000 1.0
C      1  0.2400460000000  0.4556160000000  0.4953560000000 1.0
C      1  0.7599510000000  0.4556030000000  0.5046440000000 1.0
END
