TITL C-986974-580-595 -1.24451113285653e-05 3375 -339.309246105101 0 0 60 (C5) n - 1
REM
REM in /home/bkarasulu/work/CARBON/AIRSS/Generating-Clusters/REBO/Higher-Symm/Only-C60
REM
REM
REM
REM
REM
REM ./C.cell (a2850807a9bf4ad07a5b6933b78d9264)
REM AIRSS Version 0.9.1 bugfix July 2018 build 013d7b7c2542+ Fri, 06 Jul 2018 19:26:36 +0100
REM compiler GCC version 9.2.1 20190827 (Red Hat 9.2.1-1)
REM options -cpp -mtune=generic -march=x86-64 -g -O0 -fpre-include=/usr/include/finclude/math-vector-fortran.h
REM seed 479967220 1253612671 1987156173 1845584592 1777860337 1891401842 906537453 -1016837475 1298259150 -1014920336 -817366560 1149905599 506868250 -822309549 -440148595 880446554 -890156545 296331924 -839949173 837477026 258233475 -1007698850 -741802607 -29391861 707159362 -875032301 1630032345 458293339 -487304304 1206979052 -716799781 -1206038639 -274794888
REM
CELL 1.54180   15.00000   15.00000   15.00000   90.00000   90.00000   90.00000
LATT -1
SFAC C  
C      1  0.4525190000000  0.2724540000000  0.3976180000000 1.0
C      1  0.4525180000000  0.5270530000000  0.2519490000000 1.0
C      1  0.4525170000000  0.7442670000000  0.4490810000000 1.0
C      1  0.4525180000000  0.6239030000000  0.7165880000000 1.0
C      1  0.4525200000000  0.3323020000000  0.6847670000000 1.0
C      1  0.5474810000000  0.2724540000000  0.3976180000000 1.0
C      1  0.5474820000000  0.5270530000000  0.2519490000000 1.0
C      1  0.5474830000000  0.7442670000000  0.4490810000000 1.0
C      1  0.5474820000000  0.6239030000000  0.7165880000000 1.0
C      1  0.5474800000000  0.3323020000000  0.6847670000000 1.0
C      1  0.4519520000000  0.4392650000000  0.3512170000000 1.0
C      1  0.4519530000000  0.6227310000000  0.3962630000000 1.0
C      1  0.4519520000000  0.6365850000000  0.5846780000000 1.0
C      1  0.4519490000000  0.4616760000000  0.6560700000000 1.0
C      1  0.4519500000000  0.3397350000000  0.5117860000000 1.0
C      1  0.5480480000000  0.4392650000000  0.3512170000000 1.0
C      1  0.5480470000000  0.6227310000000  0.3962630000000 1.0
C      1  0.5480480000000  0.6365850000000  0.5846780000000 1.0
C      1  0.5480510000000  0.4616760000000  0.6560700000000 1.0
C      1  0.5480500000000  0.3397350000000  0.5117860000000 1.0
C      1  0.6976830000000  0.6453560000000  0.3853060000000 1.0
C      1  0.6976410000000  0.6539990000000  0.6027780000000 1.0
C      1  0.6976090000000  0.4498550000000  0.6782170000000 1.0
C      1  0.6976380000000  0.3150040000000  0.5073700000000 1.0
C      1  0.6976600000000  0.4358300000000  0.3263190000000 1.0
C      1  0.3023170000000  0.6453560000000  0.3853060000000 1.0
C      1  0.3023590000000  0.6539990000000  0.6027780000000 1.0
C      1  0.3023910000000  0.4498550000000  0.6782170000000 1.0
C      1  0.3023620000000  0.3150040000000  0.5073700000000 1.0
C      1  0.3023400000000  0.4358300000000  0.3263190000000 1.0
C      1  0.3162400000000  0.5362460000000  0.4134510000000 1.0
C      1  0.3162500000000  0.5935040000000  0.5077070000000 1.0
C      1  0.3162550000000  0.5215650000000  0.5912900000000 1.0
C      1  0.3162490000000  0.4198350000000  0.5487060000000 1.0
C      1  0.3162440000000  0.4289020000000  0.4387900000000 1.0
C      1  0.6837600000000  0.5362460000000  0.4134510000000 1.0
C      1  0.6837500000000  0.5935040000000  0.5077070000000 1.0
C      1  0.6837450000000  0.5215650000000  0.5912900000000 1.0
C      1  0.6837510000000  0.4198350000000  0.5487060000000 1.0
C      1  0.6837560000000  0.4289020000000  0.4387900000000 1.0
C      1  0.4081570000000  0.5429870000000  0.3560480000000 1.0
C      1  0.4081630000000  0.6501860000000  0.4964100000000 1.0
C      1  0.4081580000000  0.5498270000000  0.6417330000000 1.0
C      1  0.4081520000000  0.3806100000000  0.5911930000000 1.0
C      1  0.4081550000000  0.3763800000000  0.4146340000000 1.0
C      1  0.5918430000000  0.5429870000000  0.3560480000000 1.0
C      1  0.5918370000000  0.6501860000000  0.4964100000000 1.0
C      1  0.5918420000000  0.5498270000000  0.6417330000000 1.0
C      1  0.5918480000000  0.3806100000000  0.5911930000000 1.0
C      1  0.5918450000000  0.3763800000000  0.4146340000000 1.0
C      1  0.6228660000000  0.6772260000000  0.6588190000000 1.0
C      1  0.6228530000000  0.4037090000000  0.7176460000000 1.0
C      1  0.6228620000000  0.2632670000000  0.4756950000000 1.0
C      1  0.6228680000000  0.4499570000000  0.2673480000000 1.0
C      1  0.6228800000000  0.7057850000000  0.3805230000000 1.0
C      1  0.3771340000000  0.6772260000000  0.6588190000000 1.0
C      1  0.3771470000000  0.4037090000000  0.7176460000000 1.0
C      1  0.3771380000000  0.2632670000000  0.4756950000000 1.0
C      1  0.3771320000000  0.4499570000000  0.2673480000000 1.0
C      1  0.3771200000000  0.7057850000000  0.3805230000000 1.0
END
