TITL C-986978-6805-168 -4.36909526673603e-06 3375 -342.925857687268 0 0 60 (C1) n - 1
REM
REM in /home/bkarasulu/work/CARBON/AIRSS/Generating-Clusters/REBO/Higher-Symm/Only-C60
REM
REM
REM
REM
REM
REM ./C.cell (a2850807a9bf4ad07a5b6933b78d9264)
REM AIRSS Version 0.9.1 bugfix July 2018 build 013d7b7c2542+ Fri, 06 Jul 2018 19:26:36 +0100
REM compiler GCC version 9.2.1 20190827 (Red Hat 9.2.1-1)
REM options -cpp -mtune=generic -march=x86-64 -g -O0 -fpre-include=/usr/include/finclude/math-vector-fortran.h
REM seed 1596424309 -983094928 -508686233 403225359 1630303565 -1583916488 6027778 641641075 -1381616588 1432355322 1897590830 1432033255 1886269968 1440151336 -634115475 -1639452117 1876361932 -1096426866 1279162937 604418973 -1567247131 2100264740 -952803620 363681547 461334116 -691858220 -403476726 270376556 -1246576260 998549295 -536989903 80048082 2117731560
REM
CELL 1.54180   15.00000   15.00000   15.00000   90.00000   90.00000   90.00000
LATT -1
SFAC C  
C      1  0.4338220000000  0.6165430000000  0.4635330000000 1.0
C      1  0.3267170000000  0.5496730000000  0.3239180000000 1.0
C      1  0.6053850000000  0.7031260000000  0.5662580000000 1.0
C      1  0.4743430000000  0.3153310000000  0.3387440000000 1.0
C      1  0.4859850000000  0.4123570000000  0.2850690000000 1.0
C      1  0.5123920000000  0.5736670000000  0.6343070000000 1.0
C      1  0.4490690000000  0.5151970000000  0.4917740000000 1.0
C      1  0.3122710000000  0.3710770000000  0.5433940000000 1.0
C      1  0.7020290000000  0.5498880000000  0.4044220000000 1.0
C      1  0.3128860000000  0.4434440000000  0.4838070000000 1.0
C      1  0.3561110000000  0.4021450000000  0.6265730000000 1.0
C      1  0.3367130000000  0.7058800000000  0.3489250000000 1.0
C      1  0.2670740000000  0.5609310000000  0.3983560000000 1.0
C      1  0.7099180000000  0.3960070000000  0.4507060000000 1.0
C      1  0.4241000000000  0.4853290000000  0.5878590000000 1.0
C      1  0.5538500000000  0.5024640000000  0.4895930000000 1.0
C      1  0.3507790000000  0.2977870000000  0.5015110000000 1.0
C      1  0.6196710000000  0.3871380000000  0.4036320000000 1.0
C      1  0.4271070000000  0.3318650000000  0.6665030000000 1.0
C      1  0.4056040000000  0.4528840000000  0.7150700000000 1.0
C      1  0.4901780000000  0.3814720000000  0.7319970000000 1.0
C      1  0.4297600000000  0.6139630000000  0.6425780000000 1.0
C      1  0.4015110000000  0.4391070000000  0.4252710000000 1.0
C      1  0.2797550000000  0.5315870000000  0.4887230000000 1.0
C      1  0.7420440000000  0.4859760000000  0.4645970000000 1.0
C      1  0.7487460000000  0.5337610000000  0.5491590000000 1.0
C      1  0.5431660000000  0.3677800000000  0.5733630000000 1.0
C      1  0.4747230000000  0.2935710000000  0.5948230000000 1.0
C      1  0.3101770000000  0.5827520000000  0.5646720000000 1.0
C      1  0.5458540000000  0.4017580000000  0.4651100000000 1.0
C      1  0.6571190000000  0.4712140000000  0.6383320000000 1.0
C      1  0.3592890000000  0.6988800000000  0.4353080000000 1.0
C      1  0.3659600000000  0.6325710000000  0.2957380000000 1.0
C      1  0.5695170000000  0.2692840000000  0.3692690000000 1.0
C      1  0.6444860000000  0.3399800000000  0.5254490000000 1.0
C      1  0.5879170000000  0.6786160000000  0.3767190000000 1.0
C      1  0.4335360000000  0.7050660000000  0.6066620000000 1.0
C      1  0.5753620000000  0.2719010000000  0.4664090000000 1.0
C      1  0.4947370000000  0.5090980000000  0.8161660000000 1.0
C      1  0.3662100000000  0.6650390000000  0.5372910000000 1.0
C      1  0.6697850000000  0.5671410000000  0.6507280000000 1.0
C      1  0.5904170000000  0.5921790000000  0.6965300000000 1.0
C      1  0.3545370000000  0.5376080000000  0.6580530000000 1.0
C      1  0.6573300000000  0.6426340000000  0.4534820000000 1.0
C      1  0.6165830000000  0.6555480000000  0.2876380000000 1.0
C      1  0.4919030000000  0.5207770000000  0.2715300000000 1.0
C      1  0.6385790000000  0.4520890000000  0.5465440000000 1.0
C      1  0.5446450000000  0.5019060000000  0.7397520000000 1.0
C      1  0.4977450000000  0.6496210000000  0.3852200000000 1.0
C      1  0.6844720000000  0.6265980000000  0.5605500000000 1.0
C      1  0.5988850000000  0.4092130000000  0.7134980000000 1.0
C      1  0.5185390000000  0.4626690000000  0.6306190000000 1.0
C      1  0.4026900000000  0.4770550000000  0.3281550000000 1.0
C      1  0.4841550000000  0.2748520000000  0.4988920000000 1.0
C      1  0.5968250000000  0.5541440000000  0.4181400000000 1.0
C      1  0.5840560000000  0.3638930000000  0.3093870000000 1.0
C      1  0.4607230000000  0.6200240000000  0.3009490000000 1.0
C      1  0.5218410000000  0.7323940000000  0.5851150000000 1.0
C      1  0.4236020000000  0.3302140000000  0.4268190000000 1.0
C      1  0.5768140000000  0.5833300000000  0.2468070000000 1.0
END
