TITL C-986978-6805-910 2.02203812070586e-06 3375 -364.844024349605 0 0 60 (C6) n - 1
REM
REM in /home/bkarasulu/work/CARBON/AIRSS/Generating-Clusters/REBO/Higher-Symm/Only-C60
REM
REM
REM
REM
REM
REM ./C.cell (a2850807a9bf4ad07a5b6933b78d9264)
REM AIRSS Version 0.9.1 bugfix July 2018 build 013d7b7c2542+ Fri, 06 Jul 2018 19:26:36 +0100
REM compiler GCC version 9.2.1 20190827 (Red Hat 9.2.1-1)
REM options -cpp -mtune=generic -march=x86-64 -g -O0 -fpre-include=/usr/include/finclude/math-vector-fortran.h
REM seed 497186344 1422082029 -1802859725 1373091298 -1984548345 -1402198424 1987206758 -1618929620 1207231586 610428241 -928754526 -2066446099 -10480526 -474838676 158306698 465944495 -1621153714 -214059592 -585154465 932705043 -42357703 -821623469 1694668685 62512058 -1986841469 1591011637 1805984539 179393187 1593254268 -1707499813 705230492 -1968556002 -1345538444
REM
CELL 1.54180   15.00000   15.00000   15.00000   90.00000   90.00000   90.00000
LATT -1
SFAC C  
C      1  0.4933390000000  0.3315430000000  0.4135090000000 1.0
C      1  0.6425580000000  0.4100030000000  0.4135090000000 1.0
C      1  0.6492190000000  0.5784600000000  0.4135090000000 1.0
C      1  0.5066610000000  0.6684570000000  0.4135090000000 1.0
C      1  0.3574420000000  0.5899970000000  0.4135090000000 1.0
C      1  0.3507810000000  0.4215400000000  0.4135090000000 1.0
C      1  0.4522170000000  0.4243100000000  0.5623050000000 1.0
C      1  0.5416580000000  0.4207740000000  0.5623050000000 1.0
C      1  0.5894410000000  0.4964630000000  0.5623050000000 1.0
C      1  0.5477830000000  0.5756890000000  0.5623050000000 1.0
C      1  0.4583420000000  0.5792260000000  0.5623050000000 1.0
C      1  0.4105590000000  0.5035370000000  0.5623050000000 1.0
C      1  0.7326750000000  0.4908010000000  0.6518770000000 1.0
C      1  0.6243040000000  0.6969020000000  0.6518780000000 1.0
C      1  0.3916300000000  0.7061020000000  0.6518780000000 1.0
C      1  0.2673260000000  0.5091990000000  0.6518780000000 1.0
C      1  0.3756960000000  0.3030970000000  0.6518780000000 1.0
C      1  0.6083710000000  0.2938980000000  0.6518770000000 1.0
C      1  0.3057140000000  0.5076820000000  0.5572430000000 1.0
C      1  0.3962040000000  0.3355850000000  0.5572420000000 1.0
C      1  0.5904900000000  0.3279030000000  0.5572420000000 1.0
C      1  0.6942860000000  0.4923180000000  0.5572420000000 1.0
C      1  0.6037960000000  0.6644150000000  0.5572420000000 1.0
C      1  0.4095100000000  0.6720970000000  0.5572430000000 1.0
C      1  0.5973060000000  0.5511640000000  0.7669290000000 1.0
C      1  0.5043430000000  0.6098510000000  0.7669290000000 1.0
C      1  0.4070380000000  0.5586860000000  0.7669290000000 1.0
C      1  0.4026950000000  0.4488350000000  0.7669290000000 1.0
C      1  0.4956570000000  0.3901490000000  0.7669290000000 1.0
C      1  0.5929630000000  0.4413130000000  0.7669290000000 1.0
C      1  0.4149670000000  0.6617170000000  0.7272840000000 1.0
C      1  0.3174320000000  0.5072170000000  0.7272840000000 1.0
C      1  0.4024650000000  0.3455000000000  0.7272840000000 1.0
C      1  0.5850340000000  0.3382820000000  0.7272830000000 1.0
C      1  0.6825680000000  0.4927820000000  0.7272830000000 1.0
C      1  0.5975350000000  0.6545000000000  0.7272840000000 1.0
C      1  0.3325430000000  0.4119500000000  0.5054430000000 1.0
C      1  0.4925250000000  0.3109530000000  0.5054420000000 1.0
C      1  0.6599820000000  0.3990030000000  0.5054420000000 1.0
C      1  0.6674570000000  0.5880500000000  0.5054420000000 1.0
C      1  0.5074750000000  0.6890470000000  0.5054430000000 1.0
C      1  0.3400180000000  0.6009970000000  0.5054430000000 1.0
C      1  0.3895180000000  0.5044770000000  0.2773250000000 1.0
C      1  0.4408820000000  0.4065580000000  0.2773250000000 1.0
C      1  0.5513640000000  0.4020820000000  0.2773250000000 1.0
C      1  0.6104820000000  0.4955230000000  0.2773250000000 1.0
C      1  0.5591180000000  0.5934420000000  0.2773250000000 1.0
C      1  0.4486360000000  0.5979190000000  0.2773250000000 1.0
C      1  0.5843300000000  0.6335810000000  0.3689060000000 1.0
C      1  0.4264800000000  0.6398220000000  0.3689060000000 1.0
C      1  0.3421500000000  0.5062410000000  0.3689060000000 1.0
C      1  0.4156700000000  0.3664190000000  0.3689060000000 1.0
C      1  0.5735190000000  0.3601780000000  0.3689060000000 1.0
C      1  0.6578490000000  0.4937590000000  0.3689060000000 1.0
C      1  0.5258760000000  0.5978430000000  0.1691810000000 1.0
C      1  0.4282040000000  0.5713320000000  0.1691810000000 1.0
C      1  0.4023270000000  0.4734890000000  0.1691810000000 1.0
C      1  0.4741230000000  0.4021580000000  0.1691800000000 1.0
C      1  0.5717950000000  0.4286690000000  0.1691800000000 1.0
C      1  0.5976720000000  0.5265120000000  0.1691800000000 1.0
END
