TITL C-986979-5873-194 5.61601494397998e-06 3375 -360.836748984739 0 0 60 (T23) n - 1
REM
REM in /home/bkarasulu/work/CARBON/AIRSS/Generating-Clusters/REBO/Higher-Symm/Only-C60
REM
REM
REM
REM
REM
REM ./C.cell (a2850807a9bf4ad07a5b6933b78d9264)
REM AIRSS Version 0.9.1 bugfix July 2018 build 013d7b7c2542+ Fri, 06 Jul 2018 19:26:36 +0100
REM compiler GCC version 9.2.1 20190827 (Red Hat 9.2.1-1)
REM options -cpp -mtune=generic -march=x86-64 -g -O0 -fpre-include=/usr/include/finclude/math-vector-fortran.h
REM seed -930631426 -1110049566 1280363432 -427663201 754196883 -2040545003 -2113020347 -1835367146 1484648649 1541382285 587976953 -97634969 158201570 -1976501802 1230096499 1140494843 -1037782783 -289792503 -310596030 -1016594577 -1161612744 999603519 -1002819811 332583728 629190712 809008936 79917005 -1172645404 -1208331429 812176275 -612200844 -1616869494 311195201
REM
CELL 1.54180   15.00000   15.00000   15.00000   90.00000   90.00000   90.00000
LATT -1
SFAC C  
C      1  0.4398310000000  0.6676400000000  0.3164440000000 1.0
C      1  0.6676400000000  0.3164440000000  0.4398310000000 1.0
C      1  0.3164440000000  0.4398310000000  0.6676400000000 1.0
C      1  0.4398310000000  0.3323600000000  0.6835560000000 1.0
C      1  0.5601690000000  0.6676400000000  0.6835560000000 1.0
C      1  0.5601680000000  0.3323600000000  0.3164440000000 1.0
C      1  0.6676410000000  0.6835560000000  0.5601690000000 1.0
C      1  0.3323590000000  0.3164440000000  0.5601690000000 1.0
C      1  0.3323600000000  0.6835560000000  0.4398310000000 1.0
C      1  0.3164440000000  0.5601690000000  0.3323600000000 1.0
C      1  0.6835560000000  0.4398310000000  0.3323600000000 1.0
C      1  0.6835560000000  0.5601680000000  0.6676400000000 1.0
C      1  0.6043960000000  0.2757090000000  0.3805300000000 1.0
C      1  0.2757090000000  0.3805300000000  0.6043970000000 1.0
C      1  0.3805300000000  0.6043970000000  0.2757090000000 1.0
C      1  0.6043970000000  0.7242910000000  0.6194700000000 1.0
C      1  0.3956030000000  0.2757090000000  0.6194690000000 1.0
C      1  0.3956040000000  0.7242910000000  0.3805310000000 1.0
C      1  0.2757090000000  0.6194710000000  0.3956030000000 1.0
C      1  0.7242910000000  0.3805300000000  0.3956030000000 1.0
C      1  0.7242920000000  0.6194700000000  0.6043970000000 1.0
C      1  0.3805300000000  0.3956030000000  0.7242910000000 1.0
C      1  0.6194700000000  0.6043960000000  0.7242910000000 1.0
C      1  0.6194690000000  0.3956030000000  0.2757090000000 1.0
C      1  0.5581190000000  0.6786490000000  0.4300470000000 1.0
C      1  0.6786490000000  0.4300470000000  0.5581190000000 1.0
C      1  0.4300470000000  0.5581190000000  0.6786490000000 1.0
C      1  0.5581190000000  0.3213510000000  0.5699530000000 1.0
C      1  0.4418810000000  0.6786490000000  0.5699530000000 1.0
C      1  0.4418800000000  0.3213510000000  0.4300470000000 1.0
C      1  0.6786490000000  0.5699530000000  0.4418810000000 1.0
C      1  0.3213510000000  0.4300480000000  0.4418810000000 1.0
C      1  0.3213510000000  0.5699530000000  0.5581190000000 1.0
C      1  0.4300470000000  0.4418810000000  0.3213510000000 1.0
C      1  0.5699530000000  0.5581190000000  0.3213510000000 1.0
C      1  0.5699530000000  0.4418810000000  0.6786490000000 1.0
C      1  0.4686490000000  0.3846310000000  0.5443530000000 1.0
C      1  0.3846310000000  0.5443530000000  0.4686490000000 1.0
C      1  0.5443530000000  0.4686490000000  0.3846310000000 1.0
C      1  0.4686490000000  0.6153690000000  0.4556470000000 1.0
C      1  0.5313500000000  0.3846310000000  0.4556470000000 1.0
C      1  0.5313510000000  0.6153680000000  0.5443530000000 1.0
C      1  0.3846310000000  0.4556470000000  0.5313510000000 1.0
C      1  0.6153690000000  0.5443530000000  0.5313510000000 1.0
C      1  0.6153680000000  0.4556470000000  0.4686490000000 1.0
C      1  0.5443530000000  0.5313500000000  0.6153690000000 1.0
C      1  0.4556470000000  0.4686490000000  0.6153690000000 1.0
C      1  0.4556470000000  0.5313510000000  0.3846320000000 1.0
C      1  0.6601490000000  0.5288410000000  0.3584500000000 1.0
C      1  0.5288410000000  0.3584490000000  0.6601490000000 1.0
C      1  0.3584500000000  0.6601500000000  0.5288410000000 1.0
C      1  0.6601500000000  0.4711590000000  0.6415500000000 1.0
C      1  0.3398510000000  0.5288410000000  0.6415500000000 1.0
C      1  0.3398500000000  0.4711600000000  0.3584500000000 1.0
C      1  0.5288410000000  0.6415500000000  0.3398510000000 1.0
C      1  0.4711580000000  0.3584500000000  0.3398510000000 1.0
C      1  0.4711590000000  0.6415500000000  0.6601490000000 1.0
C      1  0.3584490000000  0.3398510000000  0.4711590000000 1.0
C      1  0.6415510000000  0.6601490000000  0.4711590000000 1.0
C      1  0.6415500000000  0.3398500000000  0.5288410000000 1.0
END
