TITL C-986973-6940-1092 0.0194585840836546 3375 -343.025651406883 0 0 60 (C1) n - 1
REM
REM in /home/bkarasulu/work/CARBON/AIRSS/Generating-Clusters/REBO/Higher-Symm/Only-C60
REM
REM
REM
REM
REM
REM ./C.cell (a2850807a9bf4ad07a5b6933b78d9264)
REM AIRSS Version 0.9.1 bugfix July 2018 build 013d7b7c2542+ Fri, 06 Jul 2018 19:26:36 +0100
REM compiler GCC version 9.2.1 20190827 (Red Hat 9.2.1-1)
REM options -cpp -mtune=generic -march=x86-64 -g -O0 -fpre-include=/usr/include/finclude/math-vector-fortran.h
REM seed -1544540657 93008368 -145615735 -307329513 -484048054 -1210488676 -1658245364 2017293151 -573153131 -61683596 -2088049364 -951785096 1140629968 -888765988 -752784921 1203293292 600754969 -1886115955 2017877485 812585095 -1709386946 -1956399546 817592080 -1609725261 -840061128 478259216 -274070148 1703576298 -544607003 38423380 702318314 1024305777 -794799737
REM
CELL 1.54180   15.00000   15.00000   15.00000   90.00000   90.00000   90.00000
LATT -1
SFAC C  
C      1  0.5372820000000  0.6702340000000  0.2904320000000 1.0
C      1  0.5387150000000  0.7696440000000  0.5036730000000 1.0
C      1  0.5394870000000  0.6635730000000  0.7160000000000 1.0
C      1  0.5381660000000  0.4290420000000  0.7623310000000 1.0
C      1  0.5363460000000  0.2480710000000  0.6078440000000 1.0
C      1  0.5336360000000  0.2565500000000  0.3726150000000 1.0
C      1  0.5350330000000  0.4447070000000  0.2318890000000 1.0
C      1  0.5977150000000  0.3037450000000  0.5606960000000 1.0
C      1  0.5963500000000  0.3277440000000  0.3843540000000 1.0
C      1  0.5996940000000  0.4822410000000  0.2918700000000 1.0
C      1  0.6019220000000  0.6508290000000  0.3531580000000 1.0
C      1  0.6049130000000  0.7107780000000  0.5253190000000 1.0
C      1  0.6040250000000  0.6110880000000  0.6792590000000 1.0
C      1  0.5997480000000  0.4279900000000  0.6945380000000 1.0
C      1  0.3756340000000  0.2997370000000  0.4292850000000 1.0
C      1  0.3765860000000  0.4212620000000  0.3023820000000 1.0
C      1  0.3818820000000  0.5956050000000  0.3185130000000 1.0
C      1  0.3890000000000  0.6912660000000  0.4646310000000 1.0
C      1  0.3930100000000  0.6368710000000  0.6307710000000 1.0
C      1  0.3896640000000  0.4735970000000  0.6921290000000 1.0
C      1  0.3825690000000  0.3236160000000  0.6039200000000 1.0
C      1  0.3154430000000  0.3973520000000  0.5559700000000 1.0
C      1  0.3071830000000  0.3844760000000  0.4555270000000 1.0
C      1  0.3077070000000  0.4558610000000  0.3833400000000 1.0
C      1  0.3146840000000  0.5556380000000  0.3951340000000 1.0
C      1  0.3234730000000  0.6077750000000  0.4797330000000 1.0
C      1  0.3275240000000  0.5761390000000  0.5734560000000 1.0
C      1  0.3240730000000  0.4829090000000  0.6070930000000 1.0
C      1  0.4456720000000  0.6560470000000  0.2803810000000 1.0
C      1  0.4476990000000  0.7625490000000  0.4865850000000 1.0
C      1  0.4482240000000  0.6689600000000  0.7003710000000 1.0
C      1  0.4457240000000  0.4405930000000  0.7611820000000 1.0
C      1  0.4434920000000  0.2514790000000  0.6188740000000 1.0
C      1  0.4409770000000  0.2475630000000  0.3817660000000 1.0
C      1  0.4429650000000  0.4287700000000  0.2331410000000 1.0
C      1  0.5402210000000  0.3698870000000  0.4967560000000 1.0
C      1  0.5401170000000  0.4198300000000  0.3924160000000 1.0
C      1  0.5441790000000  0.5324390000000  0.3707050000000 1.0
C      1  0.5542760000000  0.6180430000000  0.4445140000000 1.0
C      1  0.5623720000000  0.6151060000000  0.5531320000000 1.0
C      1  0.5597200000000  0.5309380000000  0.6211690000000 1.0
C      1  0.5495810000000  0.4211440000000  0.5988340000000 1.0
C      1  0.6746130000000  0.4608070000000  0.6173070000000 1.0
C      1  0.6661790000000  0.3846260000000  0.5351920000000 1.0
C      1  0.6640160000000  0.4009550000000  0.4350670000000 1.0
C      1  0.6677480000000  0.4847670000000  0.3771630000000 1.0
C      1  0.6790370000000  0.5908930000000  0.4106180000000 1.0
C      1  0.6873480000000  0.6345910000000  0.5152530000000 1.0
C      1  0.6845510000000  0.5740350000000  0.6117500000000 1.0
C      1  0.4478530000000  0.6048170000000  0.4333080000000 1.0
C      1  0.4536320000000  0.6076790000000  0.5453320000000 1.0
C      1  0.4517670000000  0.5184940000000  0.6155410000000 1.0
C      1  0.4434420000000  0.4117750000000  0.5874510000000 1.0
C      1  0.4338050000000  0.3681360000000  0.4899840000000 1.0
C      1  0.4328450000000  0.4145340000000  0.3953440000000 1.0
C      1  0.4389330000000  0.5174110000000  0.3692110000000 1.0
C      1  0.4875200000000  0.4915970000000  0.4904890000000 1.0
C      1  0.3997560000000  0.4968100000000  0.4947630000000 1.0
C      1  0.5769110000000  0.4968580000000  0.4937720000000 1.0
C      1  0.6650920000000  0.5145900000000  0.5067120000000 1.0
END
