TITL C-986976-6631-634 -5.50139834872221e-06 3375 -331.001871007831 0 0 60 (C10) n - 1
REM
REM in /home/bkarasulu/work/CARBON/AIRSS/Generating-Clusters/REBO/Higher-Symm/Only-C60
REM
REM
REM
REM
REM
REM ./C.cell (a2850807a9bf4ad07a5b6933b78d9264)
REM AIRSS Version 0.9.1 bugfix July 2018 build 013d7b7c2542+ Fri, 06 Jul 2018 19:26:36 +0100
REM compiler GCC version 9.2.1 20190827 (Red Hat 9.2.1-1)
REM options -cpp -mtune=generic -march=x86-64 -g -O0 -fpre-include=/usr/include/finclude/math-vector-fortran.h
REM seed 1557466602 98670716 -1095570999 -978328144 -944757042 1962852165 2064191285 -1166552335 -1347924564 -760218413 607137528 1644738080 -348741025 1708133884 1528229432 -630261462 -2047610560 -1791332346 -1184256776 -1445253336 2014703954 -2027545977 -863016626 -760666804 -1756326355 -1316306972 -1744291243 375276981 2102023251 -369737404 -843591525 657722712 -506960999
REM
CELL 1.54180   15.00000   15.00000   15.00000   90.00000   90.00000   90.00000
LATT -1
SFAC C  
C      1  0.1886700000000  0.4369950000000  0.5971700000000 1.0
C      1  0.2851930000000  0.2659990000000  0.5971770000000 1.0
C      1  0.4637120000000  0.1844400000000  0.5971700000000 1.0
C      1  0.6561560000000  0.2233890000000  0.5971740000000 1.0
C      1  0.7889180000000  0.3680020000000  0.5971750000000 1.0
C      1  0.8113300000000  0.5630050000000  0.5971700000000 1.0
C      1  0.7148070000000  0.7340010000000  0.5971770000000 1.0
C      1  0.5362880000000  0.8155600000000  0.5971700000000 1.0
C      1  0.3438440000000  0.7766110000000  0.5971740000000 1.0
C      1  0.2110820000000  0.6319980000000  0.5971750000000 1.0
C      1  0.4196310000000  0.6351990000000  0.6578150000000 1.0
C      1  0.3555150000000  0.5621380000000  0.6578160000000 1.0
C      1  0.3465850000000  0.4653430000000  0.6578150000000 1.0
C      1  0.3962550000000  0.3817880000000  0.6578160000000 1.0
C      1  0.4855540000000  0.3433850000000  0.6578150000000 1.0
C      1  0.5803690000000  0.3648010000000  0.6578150000000 1.0
C      1  0.6444850000000  0.4378620000000  0.6578160000000 1.0
C      1  0.6534150000000  0.5346570000000  0.6578150000000 1.0
C      1  0.6037450000000  0.6182120000000  0.6578160000000 1.0
C      1  0.5144460000000  0.6566150000000  0.6578150000000 1.0
C      1  0.6490570000000  0.6711720000000  0.5858340000000 1.0
C      1  0.5199910000000  0.7260890000000  0.5858310000000 1.0
C      1  0.3832710000000  0.6946590000000  0.5858330000000 1.0
C      1  0.2911490000000  0.5888710000000  0.5858330000000 1.0
C      1  0.2787980000000  0.4491460000000  0.5858320000000 1.0
C      1  0.3509430000000  0.3288280000000  0.5858340000000 1.0
C      1  0.4800090000000  0.2739110000000  0.5858310000000 1.0
C      1  0.6167290000000  0.3053410000000  0.5858330000000 1.0
C      1  0.7088510000000  0.4111290000000  0.5858330000000 1.0
C      1  0.7212020000000  0.5508540000000  0.5858320000000 1.0
C      1  0.4279820000000  0.6665520000000  0.3867380000000 1.0
C      1  0.3438420000000  0.5924120000000  0.3867390000000 1.0
C      1  0.3193480000000  0.4829750000000  0.3867390000000 1.0
C      1  0.3638540000000  0.3800400000000  0.3867380000000 1.0
C      1  0.4603670000000  0.3229300000000  0.3867390000000 1.0
C      1  0.5720180000000  0.3334480000000  0.3867380000000 1.0
C      1  0.6561580000000  0.4075880000000  0.3867390000000 1.0
C      1  0.6806520000000  0.5170250000000  0.3867390000000 1.0
C      1  0.6361460000000  0.6199600000000  0.3867380000000 1.0
C      1  0.5396330000000  0.6770700000000  0.3867390000000 1.0
C      1  0.6111210000000  0.6415050000000  0.4928920000000 1.0
C      1  0.5067230000000  0.6797910000000  0.4928900000000 1.0
C      1  0.3997590000000  0.6494100000000  0.4928910000000 1.0
C      1  0.3310840000000  0.5619540000000  0.4928920000000 1.0
C      1  0.3269300000000  0.4508350000000  0.4928910000000 1.0
C      1  0.3888790000000  0.3584950000000  0.4928920000000 1.0
C      1  0.4932770000000  0.3202090000000  0.4928900000000 1.0
C      1  0.6002410000000  0.3505900000000  0.4928910000000 1.0
C      1  0.6689160000000  0.4380460000000  0.4928920000000 1.0
C      1  0.6730700000000  0.5491650000000  0.4928910000000 1.0
C      1  0.3493180000000  0.5552960000000  0.2795490000000 1.0
C      1  0.3455940000000  0.4561670000000  0.2795490000000 1.0
C      1  0.4008470000000  0.3737800000000  0.2795480000000 1.0
C      1  0.4939740000000  0.3396060000000  0.2795490000000 1.0
C      1  0.5894030000000  0.3666950000000  0.2795480000000 1.0
C      1  0.6506820000000  0.4447040000000  0.2795490000000 1.0
C      1  0.6544060000000  0.5438330000000  0.2795490000000 1.0
C      1  0.5991530000000  0.6262200000000  0.2795480000000 1.0
C      1  0.5060260000000  0.6603940000000  0.2795490000000 1.0
C      1  0.4105970000000  0.6333050000000  0.2795480000000 1.0
END
