TITL C-986974-580-446 -0.0577749852379629 3375 -338.17404302051 0 0 60 (C1) n - 1
REM
REM in /home/bkarasulu/work/CARBON/AIRSS/Generating-Clusters/REBO/Higher-Symm/Only-C60
REM
REM
REM
REM
REM
REM ./C.cell (a2850807a9bf4ad07a5b6933b78d9264)
REM AIRSS Version 0.9.1 bugfix July 2018 build 013d7b7c2542+ Fri, 06 Jul 2018 19:26:36 +0100
REM compiler GCC version 9.2.1 20190827 (Red Hat 9.2.1-1)
REM options -cpp -mtune=generic -march=x86-64 -g -O0 -fpre-include=/usr/include/finclude/math-vector-fortran.h
REM seed 1378250994 1616816049 337805366 -1229108085 985232463 -1889704066 -1320002761 867485045 -1292974406 1674656335 1801777371 1023486766 821929912 -1047609128 -49523164 890847314 -773362646 -739800113 -1927361657 856566071 -1230295510 -827682586 -1727563393 538033717 -2018348451 -182645998 -189447790 1893962331 -988390598 -1577808463 1089291273 1544871701 -722782819
REM
CELL 1.54180   15.00000   15.00000   15.00000   90.00000   90.00000   90.00000
LATT -1
SFAC C  
C      1  0.6509140000000  0.5155750000000  0.6719930000000 1.0
C      1  0.3821760000000  0.5176000000000  0.6969240000000 1.0
C      1  0.2737090000000  0.5123230000000  0.4439060000000 1.0
C      1  0.4849480000000  0.4940580000000  0.2645780000000 1.0
C      1  0.7194600000000  0.4853850000000  0.4111410000000 1.0
C      1  0.6501330000000  0.5155720000000  0.3281440000000 1.0
C      1  0.3812230000000  0.5224030000000  0.3006170000000 1.0
C      1  0.2773160000000  0.4940420000000  0.5522090000000 1.0
C      1  0.4857370000000  0.4918530000000  0.7352090000000 1.0
C      1  0.7202930000000  0.4861040000000  0.5887370000000 1.0
C      1  0.4631280000000  0.6734460000000  0.2736030000000 1.0
C      1  0.6882720000000  0.6627010000000  0.4118830000000 1.0
C      1  0.6303360000000  0.6928720000000  0.6527380000000 1.0
C      1  0.3791750000000  0.6978630000000  0.6895320000000 1.0
C      1  0.2579650000000  0.6918400000000  0.4463810000000 1.0
C      1  0.4591770000000  0.6704000000000  0.7234590000000 1.0
C      1  0.6875690000000  0.6628650000000  0.5885390000000 1.0
C      1  0.6312890000000  0.6933090000000  0.3477460000000 1.0
C      1  0.3827430000000  0.7028570000000  0.3048290000000 1.0
C      1  0.2678610000000  0.6758430000000  0.5353680000000 1.0
C      1  0.6411530000000  0.5095900000000  0.7756180000000 1.0
C      1  0.2809120000000  0.5026380000000  0.7155880000000 1.0
C      1  0.2289980000000  0.4988890000000  0.3502370000000 1.0
C      1  0.5621590000000  0.4985120000000  0.1942470000000 1.0
C      1  0.8124240000000  0.4942180000000  0.4571360000000 1.0
C      1  0.6408280000000  0.5096510000000  0.2246610000000 1.0
C      1  0.2798880000000  0.5047280000000  0.2822700000000 1.0
C      1  0.2308280000000  0.4929860000000  0.6474890000000 1.0
C      1  0.5624860000000  0.4978810000000  0.8057850000000 1.0
C      1  0.8127840000000  0.4946500000000  0.5421450000000 1.0
C      1  0.3460910000000  0.4323660000000  0.4469820000000 1.0
C      1  0.5109400000000  0.4077730000000  0.3290290000000 1.0
C      1  0.6782790000000  0.3909610000000  0.4462760000000 1.0
C      1  0.6136980000000  0.4233180000000  0.6370960000000 1.0
C      1  0.4127490000000  0.4344680000000  0.6403590000000 1.0
C      1  0.3489670000000  0.4132610000000  0.5572310000000 1.0
C      1  0.5141840000000  0.4051170000000  0.6728230000000 1.0
C      1  0.6795620000000  0.3920280000000  0.5540070000000 1.0
C      1  0.6118800000000  0.4238460000000  0.3633970000000 1.0
C      1  0.4102720000000  0.4421660000000  0.3612220000000 1.0
C      1  0.4170340000000  0.3250900000000  0.6295840000000 1.0
C      1  0.3529750000000  0.3201130000000  0.4622530000000 1.0
C      1  0.4987180000000  0.2962280000000  0.3510260000000 1.0
C      1  0.6535980000000  0.2799820000000  0.4487590000000 1.0
C      1  0.5971150000000  0.3141530000000  0.6229670000000 1.0
C      1  0.4137680000000  0.3359850000000  0.3849770000000 1.0
C      1  0.3526220000000  0.2985330000000  0.5578570000000 1.0
C      1  0.5060510000000  0.2919430000000  0.6571920000000 1.0
C      1  0.6550670000000  0.2818290000000  0.5483960000000 1.0
C      1  0.5930060000000  0.3154700000000  0.3779520000000 1.0
C      1  0.3834770000000  0.6101640000000  0.3594380000000 1.0
C      1  0.5873200000000  0.5949530000000  0.3578110000000 1.0
C      1  0.6630140000000  0.5694670000000  0.5506390000000 1.0
C      1  0.4959930000000  0.5844100000000  0.6797790000000 1.0
C      1  0.3256580000000  0.5933990000000  0.5567830000000 1.0
C      1  0.3840080000000  0.6037280000000  0.6360950000000 1.0
C      1  0.5871840000000  0.5941820000000  0.6425910000000 1.0
C      1  0.6628520000000  0.5695150000000  0.4496180000000 1.0
C      1  0.4961610000000  0.5868470000000  0.3195240000000 1.0
C      1  0.3218730000000  0.6060500000000  0.4356250000000 1.0
END
