TITL C-986973-6940-591 -3.69648166021277e-06 3375 -350.829265909873 0 0 60 (C4) n - 1
REM
REM in /home/bkarasulu/work/CARBON/AIRSS/Generating-Clusters/REBO/Higher-Symm/Only-C60
REM
REM
REM
REM
REM
REM ./C.cell (a2850807a9bf4ad07a5b6933b78d9264)
REM AIRSS Version 0.9.1 bugfix July 2018 build 013d7b7c2542+ Fri, 06 Jul 2018 19:26:36 +0100
REM compiler GCC version 9.2.1 20190827 (Red Hat 9.2.1-1)
REM options -cpp -mtune=generic -march=x86-64 -g -O0 -fpre-include=/usr/include/finclude/math-vector-fortran.h
REM seed 778042424 1187981978 102636116 -659020861 -919351575 -657385249 983309410 -610299631 -722776371 -914213449 1334176609 1764403633 90648928 -236408126 -1425595216 -1567198604 -1889641342 -1053244587 -587438002 138815665 339036949 -277471576 -17444256 -1031471763 292191375 739274847 -1153685574 1340835997 3041867 624900202 1696244384 -98117694 -1155721022
REM
CELL 1.54180   15.00000   15.00000   15.00000   90.00000   90.00000   90.00000
LATT -1
SFAC C  
C      1  0.4654130000000  0.6272510000000  0.2140130000000 1.0
C      1  0.6272530000000  0.5345870000000  0.2140140000000 1.0
C      1  0.5345890000000  0.3727470000000  0.2140150000000 1.0
C      1  0.3727490000000  0.4654110000000  0.2140140000000 1.0
C      1  0.5653690000000  0.6114350000000  0.2167730000000 1.0
C      1  0.3885640000000  0.5653680000000  0.2167720000000 1.0
C      1  0.4346320000000  0.3885630000000  0.2167730000000 1.0
C      1  0.6114370000000  0.4346300000000  0.2167730000000 1.0
C      1  0.4438790000000  0.3751830000000  0.7052240000000 1.0
C      1  0.3751810000000  0.5561210000000  0.7052240000000 1.0
C      1  0.5561200000000  0.6248190000000  0.7052240000000 1.0
C      1  0.6248180000000  0.4438800000000  0.7052250000000 1.0
C      1  0.5579430000000  0.3769160000000  0.7053400000000 1.0
C      1  0.6230830000000  0.5579430000000  0.7053390000000 1.0
C      1  0.4420560000000  0.6230850000000  0.7053390000000 1.0
C      1  0.3769160000000  0.4420580000000  0.7053390000000 1.0
C      1  0.2670060000000  0.5546980000000  0.6685420000000 1.0
C      1  0.5546970000000  0.7329940000000  0.6685430000000 1.0
C      1  0.7329930000000  0.4453030000000  0.6685440000000 1.0
C      1  0.4453030000000  0.2670070000000  0.6685440000000 1.0
C      1  0.7320160000000  0.5527160000000  0.6719450000000 1.0
C      1  0.4472830000000  0.7320170000000  0.6719430000000 1.0
C      1  0.2679830000000  0.4472850000000  0.6719440000000 1.0
C      1  0.5527160000000  0.2679840000000  0.6719450000000 1.0
C      1  0.3329690000000  0.4038500000000  0.4206940000000 1.0
C      1  0.4038500000000  0.6670310000000  0.4206930000000 1.0
C      1  0.6670310000000  0.5961490000000  0.4206940000000 1.0
C      1  0.5961500000000  0.3329680000000  0.4206940000000 1.0
C      1  0.6534500000000  0.4131930000000  0.4151300000000 1.0
C      1  0.5868060000000  0.6534490000000  0.4151290000000 1.0
C      1  0.3465510000000  0.5868060000000  0.4151280000000 1.0
C      1  0.4131940000000  0.3465500000000  0.4151300000000 1.0
C      1  0.3997690000000  0.3295220000000  0.5853360000000 1.0
C      1  0.3295210000000  0.6002320000000  0.5853340000000 1.0
C      1  0.6002310000000  0.6704780000000  0.5853350000000 1.0
C      1  0.6704790000000  0.3997680000000  0.5853360000000 1.0
C      1  0.6003790000000  0.3284790000000  0.5883450000000 1.0
C      1  0.6715210000000  0.6003790000000  0.5883450000000 1.0
C      1  0.3996210000000  0.6715220000000  0.5883440000000 1.0
C      1  0.3284790000000  0.3996220000000  0.5883450000000 1.0
C      1  0.3181530000000  0.5454380000000  0.4931410000000 1.0
C      1  0.5454380000000  0.6818470000000  0.4931410000000 1.0
C      1  0.6818470000000  0.4545620000000  0.4931420000000 1.0
C      1  0.4545620000000  0.3181530000000  0.4931420000000 1.0
C      1  0.6876890000000  0.5483010000000  0.4967030000000 1.0
C      1  0.4516990000000  0.6876890000000  0.4967020000000 1.0
C      1  0.3123110000000  0.4516990000000  0.4967020000000 1.0
C      1  0.5483010000000  0.3123110000000  0.4967030000000 1.0
C      1  0.6360050000000  0.4599050000000  0.3228860000000 1.0
C      1  0.4599070000000  0.3639950000000  0.3228860000000 1.0
C      1  0.3639960000000  0.5400930000000  0.3228850000000 1.0
C      1  0.5400940000000  0.6360040000000  0.3228850000000 1.0
C      1  0.3690240000000  0.4329440000000  0.3239020000000 1.0
C      1  0.5670560000000  0.3690220000000  0.3239030000000 1.0
C      1  0.6309770000000  0.5670550000000  0.3239020000000 1.0
C      1  0.4329450000000  0.6309760000000  0.3239020000000 1.0
C      1  0.3706150000000  0.4996600000000  0.6065620000000 1.0
C      1  0.4996580000000  0.6293850000000  0.6065610000000 1.0
C      1  0.6293840000000  0.5003410000000  0.6065620000000 1.0
C      1  0.5003410000000  0.3706160000000  0.6065620000000 1.0
END
