TITL C-986975-4297-652 0.12007777716568 3375 -335.145918775844 0 0 60 (Ci) n - 1
REM
REM in /home/bkarasulu/work/CARBON/AIRSS/Generating-Clusters/REBO/Higher-Symm/Only-C60
REM
REM
REM
REM
REM
REM ./C.cell (a2850807a9bf4ad07a5b6933b78d9264)
REM AIRSS Version 0.9.1 bugfix July 2018 build 013d7b7c2542+ Fri, 06 Jul 2018 19:26:36 +0100
REM compiler GCC version 9.2.1 20190827 (Red Hat 9.2.1-1)
REM options -cpp -mtune=generic -march=x86-64 -g -O0 -fpre-include=/usr/include/finclude/math-vector-fortran.h
REM seed 882587853 1130780006 15048947 1240428725 115934051 2069730646 -358175593 1247138297 418507448 679204632 584345311 2102534379 -1429604985 1307035226 1798846814 -948640978 -835935549 -1517183544 1063313679 -249831419 -1592970828 1437398710 -39092228 -1092497666 -1879215190 1629580626 -966195852 -1067483711 -1906280503 600275064 891135264 1575199679 2002218193
REM
CELL 1.54180   15.00000   15.00000   15.00000   90.00000   90.00000   90.00000
LATT -1
SFAC C  
C      1  0.3410770000000  0.3886820000000  0.3711170000000 1.0
C      1  0.6588450000000  0.6112770000000  0.6288760000000 1.0
C      1  0.5994600000000  0.5574490000000  0.6850880000000 1.0
C      1  0.4004150000000  0.4425210000000  0.3148740000000 1.0
C      1  0.6376050000000  0.4608740000000  0.6967790000000 1.0
C      1  0.3623570000000  0.5391220000000  0.3032260000000 1.0
C      1  0.2703470000000  0.4157650000000  0.5387910000000 1.0
C      1  0.7296650000000  0.5842110000000  0.4612540000000 1.0
C      1  0.3635720000000  0.2617140000000  0.5552560000000 1.0
C      1  0.6363840000000  0.7382390000000  0.4447870000000 1.0
C      1  0.5287030000000  0.4242110000000  0.5418530000000 1.0
C      1  0.4714030000000  0.5757390000000  0.4581600000000 1.0
C      1  0.4355210000000  0.7114020000000  0.3786760000000 1.0
C      1  0.5644540000000  0.2885340000000  0.6213700000000 1.0
C      1  0.5562230000000  0.4823060000000  0.2808880000000 1.0
C      1  0.4439400000000  0.5177560000000  0.7189880000000 1.0
C      1  0.2899430000000  0.6364750000000  0.4517420000000 1.0
C      1  0.7099940000000  0.3635630000000  0.5481570000000 1.0
C      1  0.5099520000000  0.4052510000000  0.4116150000000 1.0
C      1  0.4900580000000  0.5947530000000  0.5884200000000 1.0
C      1  0.4879520000000  0.6445100000000  0.3343660000000 1.0
C      1  0.5120100000000  0.3554240000000  0.6656480000000 1.0
C      1  0.3408490000000  0.6960890000000  0.3695070000000 1.0
C      1  0.6591660000000  0.3039590000000  0.6304360000000 1.0
C      1  0.3451330000000  0.6283940000000  0.6523370000000 1.0
C      1  0.6549110000000  0.3716530000000  0.3476970000000 1.0
C      1  0.3971250000000  0.6428450000000  0.4858600000000 1.0
C      1  0.6029470000000  0.3570880000000  0.5141380000000 1.0
C      1  0.3251300000000  0.4728100000000  0.6131470000000 1.0
C      1  0.6748970000000  0.5272200000000  0.3868720000000 1.0
C      1  0.3870380000000  0.5111650000000  0.4698960000000 1.0
C      1  0.6129060000000  0.4888990000000  0.5301760000000 1.0
C      1  0.3183670000000  0.6327950000000  0.5616690000000 1.0
C      1  0.6817130000000  0.3672280000000  0.4384590000000 1.0
C      1  0.3549330000000  0.5356820000000  0.6857300000000 1.0
C      1  0.6451490000000  0.4643650000000  0.3142790000000 1.0
C      1  0.5307100000000  0.2932830000000  0.4226640000000 1.0
C      1  0.4692270000000  0.7066700000000  0.5771990000000 1.0
C      1  0.5719220000000  0.3210390000000  0.3310020000000 1.0
C      1  0.4280750000000  0.6790570000000  0.6689420000000 1.0
C      1  0.7083340000000  0.4971260000000  0.5284990000000 1.0
C      1  0.2916750000000  0.5028490000000  0.4715590000000 1.0
C      1  0.4328940000000  0.4182660000000  0.4801250000000 1.0
C      1  0.5671080000000  0.5817970000000  0.5199030000000 1.0
C      1  0.3076510000000  0.5981460000000  0.3461480000000 1.0
C      1  0.6923490000000  0.4018460000000  0.6537310000000 1.0
C      1  0.5763100000000  0.4820910000000  0.4266180000000 1.0
C      1  0.4237530000000  0.5178780000000  0.5733990000000 1.0
C      1  0.5577270000000  0.5859940000000  0.3881890000000 1.0
C      1  0.4422440000000  0.4139490000000  0.6118200000000 1.0
C      1  0.4695820000000  0.5431890000000  0.2977920000000 1.0
C      1  0.5304190000000  0.4566980000000  0.7022010000000 1.0
C      1  0.4547340000000  0.7355770000000  0.4809180000000 1.0
C      1  0.5452410000000  0.2643640000000  0.5190390000000 1.0
C      1  0.4945260000000  0.3966250000000  0.2994650000000 1.0
C      1  0.5054270000000  0.6036170000000  0.7005880000000 1.0
C      1  0.3674490000000  0.3618450000000  0.5499160000000 1.0
C      1  0.6325320000000  0.6381140000000  0.4501020000000 1.0
C      1  0.2954490000000  0.3740190000000  0.4385100000000 1.0
C      1  0.7045200000000  0.6259930000000  0.5615350000000 1.0
END
