TITL C-986976-6631-977 -0.0004642388498158 3375 -301.834522113895 0 0 60 (C1) n - 1
REM
REM in /home/bkarasulu/work/CARBON/AIRSS/Generating-Clusters/REBO/Higher-Symm/Only-C60
REM
REM
REM
REM
REM
REM ./C.cell (a2850807a9bf4ad07a5b6933b78d9264)
REM AIRSS Version 0.9.1 bugfix July 2018 build 013d7b7c2542+ Fri, 06 Jul 2018 19:26:36 +0100
REM compiler GCC version 9.2.1 20190827 (Red Hat 9.2.1-1)
REM options -cpp -mtune=generic -march=x86-64 -g -O0 -fpre-include=/usr/include/finclude/math-vector-fortran.h
REM seed -474439620 940968726 1198254539 328268006 -915612881 344366794 236558376 -713752748 1705177408 -761897657 -1980145339 -551188013 -419878468 -1663709191 -1415179284 -1068494297 -1481214795 -1674853844 479751587 85210654 -1113250474 1361205842 1079848282 -1385506995 2111361114 -1217965020 -591418951 -684100100 2114063845 1867139714 1369079690 -1257840827 -819337608
REM
CELL 1.54180   15.00000   15.00000   15.00000   90.00000   90.00000   90.00000
LATT -1
SFAC C  
C      1  0.3703560000000  0.5853490000000  0.6275360000000 1.0
C      1  0.5116350000000  0.3345220000000  0.6377860000000 1.0
C      1  0.6506160000000  0.5824700000000  0.6480000000000 1.0
C      1  0.6355500000000  0.5808900000000  0.3731180000000 1.0
C      1  0.5094100000000  0.3313240000000  0.3758000000000 1.0
C      1  0.3577030000000  0.5859700000000  0.3662290000000 1.0
C      1  0.6422460000000  0.4335920000000  0.2806940000000 1.0
C      1  0.4835000000000  0.6560200000000  0.2725140000000 1.0
C      1  0.3743040000000  0.3694790000000  0.2777700000000 1.0
C      1  0.3709660000000  0.4358140000000  0.7173620000000 1.0
C      1  0.5429000000000  0.7027190000000  0.7117070000000 1.0
C      1  0.6594990000000  0.3030830000000  0.7098350000000 1.0
C      1  0.4596110000000  0.5058320000000  0.4368500000000 1.0
C      1  0.5480740000000  0.4394460000000  0.4419930000000 1.0
C      1  0.5226540000000  0.5946800000000  0.4423180000000 1.0
C      1  0.5263130000000  0.5097400000000  0.5521650000000 1.0
C      1  0.4476060000000  0.4360890000000  0.5494650000000 1.0
C      1  0.4884530000000  0.6088850000000  0.5719990000000 1.0
C      1  0.6902030000000  0.6386990000000  0.4538500000000 1.0
C      1  0.2904260000000  0.5968610000000  0.4568390000000 1.0
C      1  0.5265380000000  0.2591820000000  0.4621100000000 1.0
C      1  0.3058600000000  0.6393340000000  0.5517710000000 1.0
C      1  0.7047960000000  0.5899220000000  0.5487090000000 1.0
C      1  0.4794700000000  0.2621620000000  0.5610570000000 1.0
C      1  0.4308090000000  0.5151580000000  0.3257410000000 1.0
C      1  0.5121180000000  0.4373660000000  0.3353360000000 1.0
C      1  0.5367450000000  0.5485060000000  0.3375550000000 1.0
C      1  0.5746920000000  0.5087860000000  0.6569590000000 1.0
C      1  0.4895610000000  0.4356520000000  0.6560060000000 1.0
C      1  0.4677560000000  0.5464930000000  0.6659510000000 1.0
C      1  0.3703680000000  0.5170890000000  0.4792150000000 1.0
C      1  0.5510260000000  0.3636940000000  0.5066470000000 1.0
C      1  0.5909150000000  0.6546040000000  0.5010510000000 1.0
C      1  0.6240840000000  0.5125880000000  0.5228040000000 1.0
C      1  0.4262010000000  0.3372080000000  0.4977030000000 1.0
C      1  0.4107380000000  0.6392890000000  0.5036540000000 1.0
C      1  0.6377740000000  0.2913520000000  0.5207110000000 1.0
C      1  0.5600010000000  0.7277350000000  0.5522360000000 1.0
C      1  0.2751040000000  0.4858270000000  0.5278560000000 1.0
C      1  0.3459970000000  0.2883590000000  0.4497140000000 1.0
C      1  0.3892840000000  0.7337330000000  0.4444510000000 1.0
C      1  0.7222210000000  0.4823470000000  0.4750250000000 1.0
C      1  0.4026090000000  0.3671300000000  0.3626250000000 1.0
C      1  0.6355880000000  0.4697710000000  0.3760160000000 1.0
C      1  0.4506990000000  0.6443520000000  0.3692100000000 1.0
C      1  0.6146150000000  0.3358570000000  0.6410960000000 1.0
C      1  0.3670300000000  0.4726600000000  0.6216170000000 1.0
C      1  0.5603970000000  0.6406820000000  0.6521840000000 1.0
C      1  0.3917930000000  0.6953750000000  0.6021300000000 1.0
C      1  0.3991160000000  0.3288160000000  0.6090350000000 1.0
C      1  0.7003870000000  0.4889770000000  0.6047120000000 1.0
C      1  0.6036990000000  0.6886140000000  0.3954620000000 1.0
C      1  0.6158280000000  0.3042800000000  0.4083000000000 1.0
C      1  0.2898670000000  0.4986820000000  0.3979640000000 1.0
C      1  0.3216630000000  0.3930660000000  0.5543460000000 1.0
C      1  0.6685610000000  0.3933290000000  0.5620710000000 1.0
C      1  0.4653140000000  0.7536560000000  0.5379070000000 1.0
C      1  0.6722730000000  0.3923570000000  0.4475740000000 1.0
C      1  0.3246280000000  0.3994740000000  0.4394410000000 1.0
C      1  0.5018490000000  0.7250750000000  0.4322170000000 1.0
END
