TITL C-986978-6805-340 -2.27343331202533e-06 3375 -360.105134192139 0 0 60 (C1) n - 1
REM
REM in /home/bkarasulu/work/CARBON/AIRSS/Generating-Clusters/REBO/Higher-Symm/Only-C60
REM
REM
REM
REM
REM
REM ./C.cell (a2850807a9bf4ad07a5b6933b78d9264)
REM AIRSS Version 0.9.1 bugfix July 2018 build 013d7b7c2542+ Fri, 06 Jul 2018 19:26:36 +0100
REM compiler GCC version 9.2.1 20190827 (Red Hat 9.2.1-1)
REM options -cpp -mtune=generic -march=x86-64 -g -O0 -fpre-include=/usr/include/finclude/math-vector-fortran.h
REM seed -543632667 366767268 -1594439964 883939656 -1721968324 255431902 1797184470 -1796178561 -1373423947 -1949408935 -2105717214 541613621 1637572796 -1822816270 -835871500 1416391488 -1417565867 1605993273 -891239413 -1372675129 1927442034 924059224 452027359 1570850210 1515830541 1836013804 722961156 -1171093487 1738455680 1055883232 -1339681251 -350936414 936297705
REM
CELL 1.54180   15.00000   15.00000   15.00000   90.00000   90.00000   90.00000
LATT -1
SFAC C  
C      1  0.3704490000000  0.6700800000000  0.4586760000000 1.0
C      1  0.5290810000000  0.6702680000000  0.6305700000000 1.0
C      1  0.5996210000000  0.6685080000000  0.4074090000000 1.0
C      1  0.4227860000000  0.3859720000000  0.6631830000000 1.0
C      1  0.6824930000000  0.3845440000000  0.4867420000000 1.0
C      1  0.3970970000000  0.3865680000000  0.3490680000000 1.0
C      1  0.4611920000000  0.6980160000000  0.5516720000000 1.0
C      1  0.5653090000000  0.6974220000000  0.5054700000000 1.0
C      1  0.4732860000000  0.6962860000000  0.4381710000000 1.0
C      1  0.5659580000000  0.3256830000000  0.3956760000000 1.0
C      1  0.3784790000000  0.3258630000000  0.4955130000000 1.0
C      1  0.5586030000000  0.3244220000000  0.6074570000000 1.0
C      1  0.2873520000000  0.4614120000000  0.6327740000000 1.0
C      1  0.7207600000000  0.4613760000000  0.6195380000000 1.0
C      1  0.4889910000000  0.4767780000000  0.2487540000000 1.0
C      1  0.3603530000000  0.4524160000000  0.6865740000000 1.0
C      1  0.7322970000000  0.4518740000000  0.5296470000000 1.0
C      1  0.4036310000000  0.4534950000000  0.2827050000000 1.0
C      1  0.3430030000000  0.5393600000000  0.2992110000000 1.0
C      1  0.4011030000000  0.5392780000000  0.7338940000000 1.0
C      1  0.7522620000000  0.5384250000000  0.4703470000000 1.0
C      1  0.6423410000000  0.3842310000000  0.3964980000000 1.0
C      1  0.3400570000000  0.3855300000000  0.4305070000000 1.0
C      1  0.5212690000000  0.3847610000000  0.6727050000000 1.0
C      1  0.5908350000000  0.5108900000000  0.5142770000000 1.0
C      1  0.4652960000000  0.5110010000000  0.4147650000000 1.0
C      1  0.4417920000000  0.5117550000000  0.5727350000000 1.0
C      1  0.2827260000000  0.5895990000000  0.6006670000000 1.0
C      1  0.6947370000000  0.5897080000000  0.6379160000000 1.0
C      1  0.5216040000000  0.5847360000000  0.2611810000000 1.0
C      1  0.2720770000000  0.4514770000000  0.4421860000000 1.0
C      1  0.5629020000000  0.4519320000000  0.7261760000000 1.0
C      1  0.6687490000000  0.4507320000000  0.3339560000000 1.0
C      1  0.6295220000000  0.6608590000000  0.5816300000000 1.0
C      1  0.5074910000000  0.6579780000000  0.3439410000000 1.0
C      1  0.3634260000000  0.6610700000000  0.5704720000000 1.0
C      1  0.6715080000000  0.5702040000000  0.5314620000000 1.0
C      1  0.4394750000000  0.5696950000000  0.3363380000000 1.0
C      1  0.3868050000000  0.5715860000000  0.6336840000000 1.0
C      1  0.5324730000000  0.5100780000000  0.5853280000000 1.0
C      1  0.5560830000000  0.5096520000000  0.4296240000000 1.0
C      1  0.4090630000000  0.5102270000000  0.4868570000000 1.0
C      1  0.6062660000000  0.5646870000000  0.3618420000000 1.0
C      1  0.3262490000000  0.5672520000000  0.4780710000000 1.0
C      1  0.5665920000000  0.5674540000000  0.6609140000000 1.0
C      1  0.5968550000000  0.5004840000000  0.2729120000000 1.0
C      1  0.2554500000000  0.5027730000000  0.5366580000000 1.0
C      1  0.6528760000000  0.5037160000000  0.6942820000000 1.0
C      1  0.6983360000000  0.6129220000000  0.4031010000000 1.0
C      1  0.3126580000000  0.6151150000000  0.3783400000000 1.0
C      1  0.4848250000000  0.6151540000000  0.7193360000000 1.0
C      1  0.4589160000000  0.2672080000000  0.4486140000000 1.0
C      1  0.4777640000000  0.2658110000000  0.5605680000000 1.0
C      1  0.5651730000000  0.2655930000000  0.4882750000000 1.0
C      1  0.6367570000000  0.3232560000000  0.5436830000000 1.0
C      1  0.4711950000000  0.3271780000000  0.3599620000000 1.0
C      1  0.3952100000000  0.3250320000000  0.5950760000000 1.0
C      1  0.7346020000000  0.5127520000000  0.3642240000000 1.0
C      1  0.2624100000000  0.5136640000000  0.3702810000000 1.0
C      1  0.5035310000000  0.5142030000000  0.7679030000000 1.0
END
