TITL C-986975-4297-831 -5.01515357264429e-06 3375 -348.499262737676 0 0 60 (C5) n - 1
REM
REM in /home/bkarasulu/work/CARBON/AIRSS/Generating-Clusters/REBO/Higher-Symm/Only-C60
REM
REM
REM
REM
REM
REM ./C.cell (a2850807a9bf4ad07a5b6933b78d9264)
REM AIRSS Version 0.9.1 bugfix July 2018 build 013d7b7c2542+ Fri, 06 Jul 2018 19:26:36 +0100
REM compiler GCC version 9.2.1 20190827 (Red Hat 9.2.1-1)
REM options -cpp -mtune=generic -march=x86-64 -g -O0 -fpre-include=/usr/include/finclude/math-vector-fortran.h
REM seed -528743714 -1453465360 -185681386 738294388 1924454024 -809943399 -1653900334 1081327217 -2105805174 1449086858 849229281 -1593173180 617262271 1396061925 -1105328190 1635255892 -811075244 870971626 1978012866 535958990 -1337628625 70161367 568913539 948127116 397135130 -914532475 234176624 455100583 1502355116 -1317841253 -618009757 -469171709 -2090545723
REM
CELL 1.54180   15.00000   15.00000   15.00000   90.00000   90.00000   90.00000
LATT -1
SFAC C  
C      1  0.6673300000000  0.4720380000000  0.3064390000000 1.0
C      1  0.7357910000000  0.4719350000000  0.5993120000000 1.0
C      1  0.4784020000000  0.4718270000000  0.7549270000000 1.0
C      1  0.2508700000000  0.4718630000000  0.5582220000000 1.0
C      1  0.3676360000000  0.4719930000000  0.2810420000000 1.0
C      1  0.4333100000000  0.4521710000000  0.4360990000000 1.0
C      1  0.5401540000000  0.4521980000000  0.4168070000000 1.0
C      1  0.5915180000000  0.4521700000000  0.5124600000000 1.0
C      1  0.5164190000000  0.4521260000000  0.5908680000000 1.0
C      1  0.4186410000000  0.4521260000000  0.5436750000000 1.0
C      1  0.6485990000000  0.6314900000000  0.3359230000000 1.0
C      1  0.7019980000000  0.6314000000000  0.5906830000000 1.0
C      1  0.4762080000000  0.6313080000000  0.7201930000000 1.0
C      1  0.2832630000000  0.6313400000000  0.5454750000000 1.0
C      1  0.3898070000000  0.6314530000000  0.3079830000000 1.0
C      1  0.4080630000000  0.6523390000000  0.6572770000000 1.0
C      1  0.3220480000000  0.6524000000000  0.4612330000000 1.0
C      1  0.4819170000000  0.6524850000000  0.3188470000000 1.0
C      1  0.6667360000000  0.6524780000000  0.4268910000000 1.0
C      1  0.6210920000000  0.6523870000000  0.6360520000000 1.0
C      1  0.3960760000000  0.4031130000000  0.2314050000000 1.0
C      1  0.7233100000000  0.4031390000000  0.3181170000000 1.0
C      1  0.7419670000000  0.4030080000000  0.6561290000000 1.0
C      1  0.4262570000000  0.4029030000000  0.7783270000000 1.0
C      1  0.2124840000000  0.4029670000000  0.5158280000000 1.0
C      1  0.5528890000000  0.6972520000000  0.5726050000000 1.0
C      1  0.4473400000000  0.6972330000000  0.5728250000000 1.0
C      1  0.4145140000000  0.6972660000000  0.4725110000000 1.0
C      1  0.4997750000000  0.6973060000000  0.4102920000000 1.0
C      1  0.5852950000000  0.6972980000000  0.4721540000000 1.0
C      1  0.4205880000000  0.5850780000000  0.5428440000000 1.0
C      1  0.4347340000000  0.5851210000000  0.4377530000000 1.0
C      1  0.5390530000000  0.5851480000000  0.4187310000000 1.0
C      1  0.5893800000000  0.5851210000000  0.5120670000000 1.0
C      1  0.5161640000000  0.5850780000000  0.5887730000000 1.0
C      1  0.2412380000000  0.3325120000000  0.4666110000000 1.0
C      1  0.4517530000000  0.3326390000000  0.2435100000000 1.0
C      1  0.7289860000000  0.3326380000000  0.3747780000000 1.0
C      1  0.6898150000000  0.3325100000000  0.6790050000000 1.0
C      1  0.3883680000000  0.3324340000000  0.7357650000000 1.0
C      1  0.6738430000000  0.5153340000000  0.5314380000000 1.0
C      1  0.5238240000000  0.5152500000000  0.6750560000000 1.0
C      1  0.3408770000000  0.5152540000000  0.5767600000000 1.0
C      1  0.3778290000000  0.5153410000000  0.3723930000000 1.0
C      1  0.5836120000000  0.5153910000000  0.3443830000000 1.0
C      1  0.6090660000000  0.3057510000000  0.6490850000000 1.0
C      1  0.3918670000000  0.3057100000000  0.6497110000000 1.0
C      1  0.3241550000000  0.3057780000000  0.4433360000000 1.0
C      1  0.4995050000000  0.3058610000000  0.3151650000000 1.0
C      1  0.6755890000000  0.3058440000000  0.4423250000000 1.0
C      1  0.4149990000000  0.3444460000000  0.4656040000000 1.0
C      1  0.5064090000000  0.3444850000000  0.4084610000000 1.0
C      1  0.5890010000000  0.3444730000000  0.4777390000000 1.0
C      1  0.5486370000000  0.3444270000000  0.5776970000000 1.0
C      1  0.4410980000000  0.3444100000000  0.5701970000000 1.0
C      1  0.5747830000000  0.6085250000000  0.7054370000000 1.0
C      1  0.3277530000000  0.6085070000000  0.6346550000000 1.0
C      1  0.3187340000000  0.6086050000000  0.3778430000000 1.0
C      1  0.5601900000000  0.6086850000000  0.2899070000000 1.0
C      1  0.7184370000000  0.6086350000000  0.4923710000000 1.0
END
