TITL C-986976-6631-895 3.54844233559861e-06 3375 -344.137306564627 0 0 60 (C5) n - 1
REM
REM in /home/bkarasulu/work/CARBON/AIRSS/Generating-Clusters/REBO/Higher-Symm/Only-C60
REM
REM
REM
REM
REM
REM ./C.cell (a2850807a9bf4ad07a5b6933b78d9264)
REM AIRSS Version 0.9.1 bugfix July 2018 build 013d7b7c2542+ Fri, 06 Jul 2018 19:26:36 +0100
REM compiler GCC version 9.2.1 20190827 (Red Hat 9.2.1-1)
REM options -cpp -mtune=generic -march=x86-64 -g -O0 -fpre-include=/usr/include/finclude/math-vector-fortran.h
REM seed 1390336772 1144117957 1652777531 -491773866 -362878578 -1755069506 224687622 -1942378213 -1772604477 1608474467 -531177363 13422243 268241906 1125267088 47545496 766856758 2083638212 -2120330615 -777939228 703842282 -2013036485 -159862984 440975796 -1084151689 1238442877 -1295061095 -1107431182 -388682341 149073246 225535067 -827786348 939192196 -553744345
REM
CELL 1.54180   15.00000   15.00000   15.00000   90.00000   90.00000   90.00000
LATT -1
SFAC C  
C      1  0.5005180000000  0.3388880000000  0.6241060000000 1.0
C      1  0.3469340000000  0.4497210000000  0.6241060000000 1.0
C      1  0.4048820000000  0.6300380000000  0.6241060000000 1.0
C      1  0.5942800000000  0.6306470000000  0.6241060000000 1.0
C      1  0.6533870000000  0.4507060000000  0.6241060000000 1.0
C      1  0.3064000000000  0.6195700000000  0.6107790000000 1.0
C      1  0.5538920000000  0.7210740000000  0.6107800000000 1.0
C      1  0.7269070000000  0.5170610000000  0.6107800000000 1.0
C      1  0.5863440000000  0.2894710000000  0.6107790000000 1.0
C      1  0.3264560000000  0.3528240000000  0.6107790000000 1.0
C      1  0.3468110000000  0.6167770000000  0.4841120000000 1.0
C      1  0.5637230000000  0.6817780000000  0.4841120000000 1.0
C      1  0.6925720000000  0.4955680000000  0.4841120000000 1.0
C      1  0.5552930000000  0.3154830000000  0.4841120000000 1.0
C      1  0.3416000000000  0.3903950000000  0.4841110000000 1.0
C      1  0.4091840000000  0.2805870000000  0.6203460000000 1.0
C      1  0.2632620000000  0.5185690000000  0.6203460000000 1.0
C      1  0.4445040000000  0.7308900000000  0.6203460000000 1.0
C      1  0.7024400000000  0.6241290000000  0.6203460000000 1.0
C      1  0.6806110000000  0.3458260000000  0.6203460000000 1.0
C      1  0.3824010000000  0.6065550000000  0.3792030000000 1.0
C      1  0.5650000000000  0.6447710000000  0.3792030000000 1.0
C      1  0.6577720000000  0.4829180000000  0.3792030000000 1.0
C      1  0.5325080000000  0.3446720000000  0.3792030000000 1.0
C      1  0.3623200000000  0.4210840000000  0.3792030000000 1.0
C      1  0.7489310000000  0.5866400000000  0.5228700000000 1.0
C      1  0.6593230000000  0.2900260000000  0.5228700000000 1.0
C      1  0.3495360000000  0.2835890000000  0.5228690000000 1.0
C      1  0.2476850000000  0.5762250000000  0.5228690000000 1.0
C      1  0.4945250000000  0.7635200000000  0.5228700000000 1.0
C      1  0.6190570000000  0.5701060000000  0.5314770000000 1.0
C      1  0.6034650000000  0.4084340000000  0.5314770000000 1.0
C      1  0.4448880000000  0.3733030000000  0.5314770000000 1.0
C      1  0.3624740000000  0.5132630000000  0.5314770000000 1.0
C      1  0.4701160000000  0.6348940000000  0.5314770000000 1.0
C      1  0.4383480000000  0.3701380000000  0.3262000000000 1.0
C      1  0.3574430000000  0.5185060000000  0.3262000000000 1.0
C      1  0.4735470000000  0.6412990000000  0.3262010000000 1.0
C      1  0.6262090000000  0.5688220000000  0.3262010000000 1.0
C      1  0.6044540000000  0.4012360000000  0.3262010000000 1.0
C      1  0.5728600000000  0.4527130000000  0.4449870000000 1.0
C      1  0.4775420000000  0.4160940000000  0.4449870000000 1.0
C      1  0.4132610000000  0.4954300000000  0.4449870000000 1.0
C      1  0.4688500000000  0.5810820000000  0.4449870000000 1.0
C      1  0.5674880000000  0.5546810000000  0.4449880000000 1.0
C      1  0.2622530000000  0.4615530000000  0.5218840000000 1.0
C      1  0.3899670000000  0.7142300000000  0.5218840000000 1.0
C      1  0.6697430000000  0.6708480000000  0.5218840000000 1.0
C      1  0.7149400000000  0.3913600000000  0.5218840000000 1.0
C      1  0.4630980000000  0.2620080000000  0.5218840000000 1.0
C      1  0.4508010000000  0.5648650000000  0.6857670000000 1.0
C      1  0.5464870000000  0.5668360000000  0.6857670000000 1.0
C      1  0.5779300000000  0.4764410000000  0.6857670000000 1.0
C      1  0.5016760000000  0.4186040000000  0.6857670000000 1.0
C      1  0.4231060000000  0.4732530000000  0.6857670000000 1.0
C      1  0.5612660000000  0.4419270000000  0.2482680000000 1.0
C      1  0.4637020000000  0.4237870000000  0.2482680000000 1.0
C      1  0.4163010000000  0.5109710000000  0.2482680000000 1.0
C      1  0.4845690000000  0.5829930000000  0.2482680000000 1.0
C      1  0.5741630000000  0.5403220000000  0.2482680000000 1.0
END
