TITL C-986973-6940-674 9.8978203450265e-07 3375 -347.292080219942 0 0 60 (C1) n - 1
REM
REM in /home/bkarasulu/work/CARBON/AIRSS/Generating-Clusters/REBO/Higher-Symm/Only-C60
REM
REM
REM
REM
REM
REM ./C.cell (a2850807a9bf4ad07a5b6933b78d9264)
REM AIRSS Version 0.9.1 bugfix July 2018 build 013d7b7c2542+ Fri, 06 Jul 2018 19:26:36 +0100
REM compiler GCC version 9.2.1 20190827 (Red Hat 9.2.1-1)
REM options -cpp -mtune=generic -march=x86-64 -g -O0 -fpre-include=/usr/include/finclude/math-vector-fortran.h
REM seed 819282944 -1967500286 2110057082 808962513 -1535215103 -1674891174 1600363337 76321695 -1514150543 -1743420733 176062701 233283657 932619993 -2110333888 -1139516055 1407813678 1622738513 -715586220 1326592912 125020614 -1256816522 12996296 1625334476 1187845717 -1846524465 -1462737215 102117786 2135901833 -1377687993 2110493782 608927227 -1391621531 2013412967
REM
CELL 1.54180   15.00000   15.00000   15.00000   90.00000   90.00000   90.00000
LATT -1
SFAC C  
C      1  0.4081680000000  0.5552450000000  0.3510030000000 1.0
C      1  0.4054620000000  0.4432560000000  0.3527520000000 1.0
C      1  0.5942610000000  0.6578100000000  0.6708690000000 1.0
C      1  0.5879760000000  0.3563760000000  0.6704230000000 1.0
C      1  0.4762300000000  0.2668340000000  0.3873060000000 1.0
C      1  0.4901090000000  0.7526940000000  0.3841320000000 1.0
C      1  0.6383470000000  0.6930750000000  0.4417450000000 1.0
C      1  0.6289680000000  0.3064490000000  0.4492240000000 1.0
C      1  0.3738460000000  0.5792240000000  0.6854870000000 1.0
C      1  0.3627280000000  0.4148600000000  0.6947930000000 1.0
C      1  0.4528170000000  0.6047820000000  0.4151430000000 1.0
C      1  0.4502360000000  0.3929680000000  0.4156890000000 1.0
C      1  0.5759930000000  0.4566610000000  0.7238320000000 1.0
C      1  0.5782140000000  0.5704490000000  0.7366570000000 1.0
C      1  0.5887020000000  0.4593070000000  0.2484280000000 1.0
C      1  0.5871600000000  0.5725730000000  0.2564860000000 1.0
C      1  0.2929310000000  0.5140870000000  0.4032910000000 1.0
C      1  0.2792360000000  0.4243680000000  0.3935350000000 1.0
C      1  0.5785180000000  0.7125350000000  0.3462710000000 1.0
C      1  0.5636620000000  0.3130660000000  0.3552400000000 1.0
C      1  0.5124590000000  0.3250950000000  0.6243770000000 1.0
C      1  0.5171760000000  0.6758900000000  0.6198840000000 1.0
C      1  0.4368520000000  0.4416460000000  0.5383680000000 1.0
C      1  0.4585150000000  0.5466440000000  0.5348310000000 1.0
C      1  0.6798170000000  0.3604850000000  0.6243350000000 1.0
C      1  0.6805290000000  0.6383080000000  0.6195980000000 1.0
C      1  0.5255640000000  0.4482330000000  0.4663350000000 1.0
C      1  0.5348890000000  0.5569740000000  0.4594620000000 1.0
C      1  0.4603300000000  0.5950420000000  0.6213530000000 1.0
C      1  0.4455800000000  0.3971100000000  0.6269870000000 1.0
C      1  0.6997980000000  0.5445360000000  0.4904360000000 1.0
C      1  0.6962690000000  0.4538220000000  0.4946830000000 1.0
C      1  0.2601390000000  0.3820450000000  0.5825870000000 1.0
C      1  0.2795150000000  0.6060790000000  0.5638140000000 1.0
C      1  0.4171060000000  0.3049890000000  0.4769590000000 1.0
C      1  0.4297730000000  0.6993520000000  0.4646180000000 1.0
C      1  0.6713770000000  0.5505510000000  0.6774000000000 1.0
C      1  0.6785390000000  0.4520430000000  0.6729430000000 1.0
C      1  0.4998230000000  0.7280690000000  0.5477170000000 1.0
C      1  0.4935130000000  0.2703870000000  0.5533130000000 1.0
C      1  0.6242810000000  0.5858730000000  0.4263640000000 1.0
C      1  0.6174230000000  0.4129320000000  0.4336480000000 1.0
C      1  0.5793740000000  0.6668350000000  0.2632630000000 1.0
C      1  0.5628380000000  0.3643100000000  0.2760960000000 1.0
C      1  0.3469400000000  0.6429600000000  0.5019250000000 1.0
C      1  0.3195100000000  0.3265730000000  0.5255070000000 1.0
C      1  0.6894710000000  0.3583730000000  0.5301790000000 1.0
C      1  0.6928870000000  0.6395320000000  0.5260100000000 1.0
C      1  0.4759720000000  0.5456000000000  0.7197790000000 1.0
C      1  0.4657920000000  0.4436810000000  0.7236960000000 1.0
C      1  0.6389750000000  0.5436990000000  0.3373120000000 1.0
C      1  0.6428530000000  0.4464330000000  0.3428750000000 1.0
C      1  0.2973300000000  0.5473070000000  0.6379600000000 1.0
C      1  0.2886690000000  0.4495500000000  0.6456090000000 1.0
C      1  0.3432010000000  0.4245170000000  0.4875710000000 1.0
C      1  0.3612500000000  0.5371230000000  0.4844450000000 1.0
C      1  0.5521090000000  0.7517170000000  0.4692480000000 1.0
C      1  0.5395910000000  0.2521480000000  0.4698260000000 1.0
C      1  0.3363630000000  0.4681380000000  0.2813330000000 1.0
C      1  0.3340410000000  0.5687740000000  0.2750460000000 1.0
END
