TITL C-986978-6805-975 -5.77671859686429e-06 3375 -346.182878459659 0 0 60 (C1) n - 1
REM
REM in /home/bkarasulu/work/CARBON/AIRSS/Generating-Clusters/REBO/Higher-Symm/Only-C60
REM
REM
REM
REM
REM
REM ./C.cell (a2850807a9bf4ad07a5b6933b78d9264)
REM AIRSS Version 0.9.1 bugfix July 2018 build 013d7b7c2542+ Fri, 06 Jul 2018 19:26:36 +0100
REM compiler GCC version 9.2.1 20190827 (Red Hat 9.2.1-1)
REM options -cpp -mtune=generic -march=x86-64 -g -O0 -fpre-include=/usr/include/finclude/math-vector-fortran.h
REM seed 529264996 2063364132 -1427676483 1949849484 30277338 1289808541 1717488215 115040415 760296288 1270263845 1844770336 -871462363 138415945 591909741 -761188120 1430881819 -630058306 647407221 -1923810845 -1872969995 1580456300 -985353762 6425104 -1377164349 -45169702 -2099117161 -1225287249 -1409097028 1546531517 706066644 -415955347 1331210876 581239400
REM
CELL 1.54180   15.00000   15.00000   15.00000   90.00000   90.00000   90.00000
LATT -1
SFAC C  
C      1  0.5097700000000  0.5534430000000  0.2640650000000 1.0
C      1  0.5121460000000  0.5525060000000  0.7370750000000 1.0
C      1  0.4504330000000  0.3964230000000  0.2613730000000 1.0
C      1  0.4455300000000  0.3993000000000  0.7392980000000 1.0
C      1  0.6840110000000  0.4288690000000  0.5435520000000 1.0
C      1  0.6846550000000  0.4303130000000  0.4547730000000 1.0
C      1  0.4568800000000  0.4662320000000  0.5895700000000 1.0
C      1  0.4548290000000  0.4639940000000  0.4146840000000 1.0
C      1  0.5798680000000  0.6089770000000  0.2973220000000 1.0
C      1  0.5836290000000  0.6066140000000  0.7046560000000 1.0
C      1  0.6092440000000  0.4955880000000  0.5903720000000 1.0
C      1  0.6083010000000  0.4961610000000  0.4094510000000 1.0
C      1  0.5800100000000  0.3203050000000  0.5997180000000 1.0
C      1  0.5862180000000  0.3235700000000  0.3946160000000 1.0
C      1  0.4060930000000  0.6701340000000  0.3449780000000 1.0
C      1  0.4139680000000  0.6757050000000  0.6626090000000 1.0
C      1  0.3943150000000  0.5783760000000  0.4464830000000 1.0
C      1  0.3970550000000  0.5830670000000  0.5531760000000 1.0
C      1  0.5752300000000  0.6282780000000  0.5956210000000 1.0
C      1  0.5717760000000  0.6285340000000  0.4067910000000 1.0
C      1  0.4724220000000  0.6608250000000  0.4317380000000 1.0
C      1  0.4763870000000  0.6628750000000  0.5726410000000 1.0
C      1  0.5490740000000  0.4102100000000  0.4486240000000 1.0
C      1  0.5494700000000  0.4113820000000  0.5516710000000 1.0
C      1  0.3851210000000  0.5144270000000  0.3530170000000 1.0
C      1  0.3864400000000  0.5202530000000  0.6476350000000 1.0
C      1  0.7340810000000  0.5362250000000  0.3928380000000 1.0
C      1  0.7359660000000  0.5319110000000  0.6078010000000 1.0
C      1  0.3753850000000  0.7137380000000  0.5618220000000 1.0
C      1  0.3706790000000  0.7087590000000  0.4476350000000 1.0
C      1  0.7070570000000  0.4342130000000  0.3477060000000 1.0
C      1  0.7058040000000  0.4296660000000  0.6510650000000 1.0
C      1  0.5229790000000  0.5411760000000  0.5491020000000 1.0
C      1  0.5215240000000  0.5398250000000  0.4527400000000 1.0
C      1  0.2832950000000  0.4633110000000  0.4514040000000 1.0
C      1  0.2794420000000  0.4690100000000  0.5498650000000 1.0
C      1  0.2759840000000  0.6509390000000  0.4400430000000 1.0
C      1  0.2877310000000  0.6575170000000  0.5382770000000 1.0
C      1  0.6564720000000  0.2781140000000  0.5406010000000 1.0
C      1  0.6600220000000  0.2804470000000  0.4562860000000 1.0
C      1  0.6526830000000  0.5496740000000  0.6695260000000 1.0
C      1  0.6503970000000  0.5528510000000  0.3311490000000 1.0
C      1  0.3647370000000  0.4281830000000  0.6967770000000 1.0
C      1  0.3710370000000  0.4187120000000  0.3087950000000 1.0
C      1  0.3301110000000  0.4077250000000  0.6040370000000 1.0
C      1  0.3383360000000  0.4002840000000  0.4027470000000 1.0
C      1  0.4252680000000  0.5895970000000  0.7109340000000 1.0
C      1  0.4219580000000  0.5869640000000  0.2918430000000 1.0
C      1  0.6722820000000  0.6039670000000  0.4530670000000 1.0
C      1  0.6737770000000  0.6035040000000  0.5482010000000 1.0
C      1  0.5287870000000  0.4490290000000  0.7250810000000 1.0
C      1  0.5310290000000  0.4504700000000  0.2730330000000 1.0
C      1  0.4879220000000  0.2941140000000  0.5457370000000 1.0
C      1  0.4946570000000  0.2894240000000  0.4373730000000 1.0
C      1  0.4141310000000  0.3697770000000  0.5578860000000 1.0
C      1  0.4212160000000  0.3643920000000  0.4548080000000 1.0
C      1  0.6053090000000  0.3973560000000  0.6794760000000 1.0
C      1  0.6097000000000  0.4019710000000  0.3158800000000 1.0
C      1  0.2858280000000  0.5642020000000  0.5769300000000 1.0
C      1  0.2815400000000  0.5565920000000  0.4140260000000 1.0
END
