TITL C-986975-4297-1099 -2.75169495548748e-05 3375 -346.437508089892 0 0 60 (C1) n - 1
REM
REM in /home/bkarasulu/work/CARBON/AIRSS/Generating-Clusters/REBO/Higher-Symm/Only-C60
REM
REM
REM
REM
REM
REM ./C.cell (a2850807a9bf4ad07a5b6933b78d9264)
REM AIRSS Version 0.9.1 bugfix July 2018 build 013d7b7c2542+ Fri, 06 Jul 2018 19:26:36 +0100
REM compiler GCC version 9.2.1 20190827 (Red Hat 9.2.1-1)
REM options -cpp -mtune=generic -march=x86-64 -g -O0 -fpre-include=/usr/include/finclude/math-vector-fortran.h
REM seed -1675077034 -2361484 737777516 -777138674 1403156295 -82109597 2033690433 -841522816 -1737540392 -1594231528 786724632 1386449072 -124378943 1544218745 1487037185 -1842812104 -1454848767 -2056297746 716070644 1105626909 228071752 -1251153265 575430005 664853534 485769543 436716375 188083802 -479571125 -2009549238 599960295 -1811772796 1779769019 1738364509
REM
CELL 1.54180   15.00000   15.00000   15.00000   90.00000   90.00000   90.00000
LATT -1
SFAC C  
C      1  0.6418870000000  0.6697590000000  0.5467600000000 1.0
C      1  0.6457610000000  0.5033190000000  0.6781950000000 1.0
C      1  0.6570220000000  0.3263400000000  0.5606940000000 1.0
C      1  0.6567060000000  0.3839360000000  0.3552460000000 1.0
C      1  0.6499310000000  0.5960930000000  0.3474270000000 1.0
C      1  0.3414560000000  0.6772050000000  0.5546890000000 1.0
C      1  0.3454150000000  0.5073290000000  0.6834680000000 1.0
C      1  0.3557820000000  0.3331960000000  0.5618950000000 1.0
C      1  0.3559060000000  0.3948730000000  0.3590430000000 1.0
C      1  0.3509510000000  0.6078070000000  0.3538740000000 1.0
C      1  0.6939850000000  0.4915490000000  0.3536080000000 1.0
C      1  0.6857860000000  0.6354090000000  0.4478780000000 1.0
C      1  0.6844500000000  0.5894090000000  0.6149910000000 1.0
C      1  0.6914290000000  0.4155620000000  0.6220520000000 1.0
C      1  0.6965930000000  0.3575090000000  0.4585400000000 1.0
C      1  0.3139500000000  0.5003030000000  0.3523980000000 1.0
C      1  0.3058120000000  0.6418400000000  0.4526860000000 1.0
C      1  0.3035950000000  0.5900730000000  0.6175440000000 1.0
C      1  0.3102540000000  0.4188520000000  0.6211060000000 1.0
C      1  0.3152430000000  0.3604810000000  0.4592180000000 1.0
C      1  0.4493650000000  0.3772630000000  0.3136640000000 1.0
C      1  0.4462350000000  0.6426560000000  0.3248350000000 1.0
C      1  0.4347150000000  0.7149770000000  0.5784720000000 1.0
C      1  0.4387110000000  0.4981540000000  0.7294160000000 1.0
C      1  0.4511170000000  0.2855380000000  0.5615150000000 1.0
C      1  0.5625210000000  0.3679840000000  0.3125930000000 1.0
C      1  0.5585350000000  0.6317330000000  0.3132550000000 1.0
C      1  0.5479980000000  0.7087730000000  0.5763320000000 1.0
C      1  0.5518400000000  0.4902800000000  0.7244760000000 1.0
C      1  0.5644480000000  0.2807710000000  0.5640970000000 1.0
C      1  0.7728320000000  0.4551740000000  0.5699790000000 1.0
C      1  0.7755700000000  0.4218080000000  0.4786380000000 1.0
C      1  0.7739530000000  0.4978930000000  0.4187250000000 1.0
C      1  0.7695490000000  0.5786720000000  0.4724120000000 1.0
C      1  0.7689920000000  0.5524780000000  0.5661320000000 1.0
C      1  0.2283740000000  0.4521620000000  0.5664210000000 1.0
C      1  0.2312100000000  0.4201730000000  0.4747520000000 1.0
C      1  0.2301680000000  0.4978730000000  0.4156710000000 1.0
C      1  0.2258440000000  0.5775730000000  0.4714080000000 1.0
C      1  0.2248570000000  0.5490280000000  0.5643240000000 1.0
C      1  0.6005170000000  0.4904520000000  0.4115030000000 1.0
C      1  0.5955750000000  0.5739950000000  0.4667400000000 1.0
C      1  0.5974990000000  0.5452100000000  0.5615160000000 1.0
C      1  0.6018960000000  0.4472700000000  0.5658440000000 1.0
C      1  0.6020150000000  0.4103710000000  0.4734650000000 1.0
C      1  0.4011090000000  0.5041550000000  0.4202820000000 1.0
C      1  0.3970150000000  0.5851730000000  0.4764800000000 1.0
C      1  0.3980530000000  0.5581470000000  0.5725050000000 1.0
C      1  0.4023770000000  0.4571780000000  0.5742730000000 1.0
C      1  0.4025520000000  0.4265620000000  0.4795290000000 1.0
C      1  0.5536340000000  0.4122620000000  0.6480460000000 1.0
C      1  0.5419750000000  0.3296570000000  0.4753680000000 1.0
C      1  0.5434800000000  0.4684960000000  0.3319780000000 1.0
C      1  0.5430380000000  0.6441780000000  0.4155420000000 1.0
C      1  0.5536400000000  0.6113360000000  0.6261980000000 1.0
C      1  0.4578330000000  0.4294030000000  0.6536700000000 1.0
C      1  0.4458150000000  0.3353480000000  0.4647560000000 1.0
C      1  0.4475950000000  0.4861040000000  0.3308280000000 1.0
C      1  0.4482160000000  0.6599520000000  0.4319150000000 1.0
C      1  0.4574210000000  0.6229410000000  0.6211300000000 1.0
END
