TITL C-986978-6805-213 -0.0177052700425893 3375 -319.552016846479 0 0 60 (C6) n - 1
REM
REM in /home/bkarasulu/work/CARBON/AIRSS/Generating-Clusters/REBO/Higher-Symm/Only-C60
REM
REM
REM
REM
REM
REM ./C.cell (a2850807a9bf4ad07a5b6933b78d9264)
REM AIRSS Version 0.9.1 bugfix July 2018 build 013d7b7c2542+ Fri, 06 Jul 2018 19:26:36 +0100
REM compiler GCC version 9.2.1 20190827 (Red Hat 9.2.1-1)
REM options -cpp -mtune=generic -march=x86-64 -g -O0 -fpre-include=/usr/include/finclude/math-vector-fortran.h
REM seed 1425377538 -1204535840 1133490302 -1861317827 1935966123 666398994 -1437898859 72831720 1272466038 -890964088 1089414719 -1775762918 -59052300 -1566043142 386459588 -1287596247 742026307 1575963996 -736312332 1366999725 -563831104 -718655647 -1689854790 -87817749 -1531861080 -1853034752 -1193996059 -1469090033 -1037334735 -1398853138 -744799466 1104237376 1018566553
REM
CELL 1.54180   15.00000   15.00000   15.00000   90.00000   90.00000   90.00000
LATT -1
SFAC C  
C      1  0.2880120000000  0.6009130000000  0.4431760000000 1.0
C      1  0.3447950000000  0.6009130000000  0.6551740000000 1.0
C      1  0.5567820000000  0.6009140000000  0.7119980000000 1.0
C      1  0.7119880000000  0.6009130000000  0.5568240000000 1.0
C      1  0.6552050000000  0.6009130000000  0.3448260000000 1.0
C      1  0.4432180000000  0.6009140000000  0.2880020000000 1.0
C      1  0.7119880000000  0.6009130000000  0.4431760000000 1.0
C      1  0.6552050000000  0.6009130000000  0.6551740000000 1.0
C      1  0.4432180000000  0.6009140000000  0.7119980000000 1.0
C      1  0.2880120000000  0.6009130000000  0.5568240000000 1.0
C      1  0.3447950000000  0.6009130000000  0.3448260000000 1.0
C      1  0.5567820000000  0.6009140000000  0.2880020000000 1.0
C      1  0.6824890000000  0.7086390000000  0.5489120000000 1.0
C      1  0.6336030000000  0.7086390000000  0.3664160000000 1.0
C      1  0.4511140000000  0.7086390000000  0.3175040000000 1.0
C      1  0.3175110000000  0.7086390000000  0.4510880000000 1.0
C      1  0.3663970000000  0.7086390000000  0.6335840000000 1.0
C      1  0.5488860000000  0.7086390000000  0.6824960000000 1.0
C      1  0.3175110000000  0.7086390000000  0.5489120000000 1.0
C      1  0.3663970000000  0.7086390000000  0.3664160000000 1.0
C      1  0.5488860000000  0.7086390000000  0.3175040000000 1.0
C      1  0.6824890000000  0.7086390000000  0.4510880000000 1.0
C      1  0.6336030000000  0.7086390000000  0.6335840000000 1.0
C      1  0.4511140000000  0.7086390000000  0.6824960000000 1.0
C      1  0.7125270000000  0.3821920000000  0.5522520000000 1.0
C      1  0.6515160000000  0.3821910000000  0.3420730000000 1.0
C      1  0.4389890000000  0.3821920000000  0.2898200000000 1.0
C      1  0.2874730000000  0.3821920000000  0.4477480000000 1.0
C      1  0.3484840000000  0.3821910000000  0.6579270000000 1.0
C      1  0.5610110000000  0.3821920000000  0.7101800000000 1.0
C      1  0.2874730000000  0.3821920000000  0.5522520000000 1.0
C      1  0.3484840000000  0.3821910000000  0.3420730000000 1.0
C      1  0.5610110000000  0.3821920000000  0.2898200000000 1.0
C      1  0.7125270000000  0.3821920000000  0.4477480000000 1.0
C      1  0.6515160000000  0.3821910000000  0.6579270000000 1.0
C      1  0.4389890000000  0.3821920000000  0.7101800000000 1.0
C      1  0.7032370000000  0.4910050000000  0.5556740000000 1.0
C      1  0.6498340000000  0.4910050000000  0.3518280000000 1.0
C      1  0.4465970000000  0.4910050000000  0.2961540000000 1.0
C      1  0.2967630000000  0.4910050000000  0.4443260000000 1.0
C      1  0.3501660000000  0.4910050000000  0.6481720000000 1.0
C      1  0.5534030000000  0.4910050000000  0.7038460000000 1.0
C      1  0.2967630000000  0.4910050000000  0.5556740000000 1.0
C      1  0.3501660000000  0.4910050000000  0.3518280000000 1.0
C      1  0.5534030000000  0.4910050000000  0.2961540000000 1.0
C      1  0.7032370000000  0.4910050000000  0.4443260000000 1.0
C      1  0.6498340000000  0.4910050000000  0.6481720000000 1.0
C      1  0.4465970000000  0.4910050000000  0.7038460000000 1.0
C      1  0.7728760000000  0.3172510000000  0.6057850000000 1.0
C      1  0.7280510000000  0.3172500000000  0.3165730000000 1.0
C      1  0.4551740000000  0.3172510000000  0.2107900000000 1.0
C      1  0.2271240000000  0.3172510000000  0.3942150000000 1.0
C      1  0.2719490000000  0.3172500000000  0.6834270000000 1.0
C      1  0.5448260000000  0.3172510000000  0.7892100000000 1.0
C      1  0.2271240000000  0.3172510000000  0.6057850000000 1.0
C      1  0.2719490000000  0.3172500000000  0.3165730000000 1.0
C      1  0.5448260000000  0.3172510000000  0.2107900000000 1.0
C      1  0.7728760000000  0.3172510000000  0.3942150000000 1.0
C      1  0.7280510000000  0.3172500000000  0.6834270000000 1.0
C      1  0.4551740000000  0.3172510000000  0.7892100000000 1.0
END
