TITL C-986975-4297-992 -1.22860238688784e-06 3375 -335.833115051978 0 0 60 (C4) n - 1
REM
REM in /home/bkarasulu/work/CARBON/AIRSS/Generating-Clusters/REBO/Higher-Symm/Only-C60
REM
REM
REM
REM
REM
REM ./C.cell (a2850807a9bf4ad07a5b6933b78d9264)
REM AIRSS Version 0.9.1 bugfix July 2018 build 013d7b7c2542+ Fri, 06 Jul 2018 19:26:36 +0100
REM compiler GCC version 9.2.1 20190827 (Red Hat 9.2.1-1)
REM options -cpp -mtune=generic -march=x86-64 -g -O0 -fpre-include=/usr/include/finclude/math-vector-fortran.h
REM seed -1723093117 2109698113 1185486032 1011805592 -1035054144 1800271292 1798972579 -1525947895 1099087563 282125093 1799692187 -277445733 1458156248 -1718384071 1293223669 365749996 284190692 -1556397793 1970560532 -662074324 -55646781 241725238 263755865 580311636 -115178417 -24577820 -616551281 1229017038 220300770 1257622628 241799046 -528018486 -1743607147
REM
CELL 1.54180   15.00000   15.00000   15.00000   90.00000   90.00000   90.00000
LATT -1
SFAC C  
C      1  0.6564700000000  0.5475750000000  0.2988340000000 1.0
C      1  0.2988340000000  0.5475750000000  0.3435300000000 1.0
C      1  0.3435300000000  0.5475750000000  0.7011660000000 1.0
C      1  0.7011660000000  0.5475750000000  0.6564700000000 1.0
C      1  0.6564700000000  0.4534350000000  0.7011660000000 1.0
C      1  0.2988340000000  0.4534350000000  0.6564700000000 1.0
C      1  0.3435300000000  0.4534350000000  0.2988340000000 1.0
C      1  0.7011660000000  0.4534350000000  0.3435300000000 1.0
C      1  0.5446320000000  0.6589980000000  0.3558340000000 1.0
C      1  0.3558340000000  0.6589980000000  0.4553680000000 1.0
C      1  0.4553680000000  0.6589980000000  0.6441660000000 1.0
C      1  0.6441660000000  0.6589980000000  0.5446320000000 1.0
C      1  0.5446320000000  0.3420110000000  0.6441660000000 1.0
C      1  0.3558340000000  0.3420110000000  0.5446320000000 1.0
C      1  0.4553680000000  0.3420110000000  0.3558340000000 1.0
C      1  0.6441660000000  0.3420110000000  0.4553680000000 1.0
C      1  0.5057120000000  0.5875030000000  0.7053750000000 1.0
C      1  0.7053750000000  0.5875030000000  0.4942880000000 1.0
C      1  0.4942880000000  0.5875030000000  0.2946250000000 1.0
C      1  0.2946250000000  0.5875030000000  0.5057120000000 1.0
C      1  0.5057120000000  0.4135070000000  0.2946250000000 1.0
C      1  0.7053750000000  0.4135070000000  0.5057120000000 1.0
C      1  0.4942880000000  0.4135070000000  0.7053750000000 1.0
C      1  0.2946250000000  0.4135070000000  0.4942880000000 1.0
C      1  0.6331590000000  0.6449720000000  0.3132130000000 1.0
C      1  0.3132130000000  0.6449720000000  0.3668410000000 1.0
C      1  0.3668410000000  0.6449720000000  0.6867870000000 1.0
C      1  0.6867870000000  0.6449720000000  0.6331590000000 1.0
C      1  0.6331590000000  0.3560370000000  0.6867870000000 1.0
C      1  0.3132130000000  0.3560370000000  0.6331590000000 1.0
C      1  0.3668410000000  0.3560370000000  0.3132130000000 1.0
C      1  0.6867870000000  0.3560370000000  0.3668410000000 1.0
C      1  0.5900700000000  0.5540820000000  0.6450590000000 1.0
C      1  0.6450590000000  0.5540820000000  0.4099300000000 1.0
C      1  0.4099300000000  0.5540820000000  0.3549410000000 1.0
C      1  0.3549410000000  0.5540820000000  0.5900700000000 1.0
C      1  0.5900700000000  0.4469270000000  0.3549410000000 1.0
C      1  0.6450590000000  0.4469270000000  0.5900700000000 1.0
C      1  0.4099300000000  0.4469270000000  0.6450590000000 1.0
C      1  0.3549410000000  0.4469270000000  0.4099300000000 1.0
C      1  0.7373540000000  0.4943800000000  0.4348570000000 1.0
C      1  0.4348570000000  0.4943800000000  0.2626460000000 1.0
C      1  0.2626460000000  0.4943800000000  0.5651430000000 1.0
C      1  0.5651430000000  0.4943800000000  0.7373540000000 1.0
C      1  0.7373540000000  0.5066290000000  0.5651430000000 1.0
C      1  0.4348570000000  0.5066290000000  0.7373540000000 1.0
C      1  0.2626460000000  0.5066290000000  0.4348570000000 1.0
C      1  0.5651430000000  0.5066290000000  0.2626460000000 1.0
C      1  0.4302200000000  0.6854250000000  0.5368090000000 1.0
C      1  0.5368090000000  0.6854250000000  0.5697800000000 1.0
C      1  0.5697800000000  0.6854250000000  0.4631910000000 1.0
C      1  0.4631910000000  0.6854250000000  0.4302200000000 1.0
C      1  0.4302200000000  0.3155840000000  0.4631910000000 1.0
C      1  0.5368090000000  0.3155840000000  0.4302200000000 1.0
C      1  0.5697800000000  0.3155840000000  0.5368090000000 1.0
C      1  0.4631910000000  0.3155840000000  0.5697800000000 1.0
C      1  0.4448660000000  0.5005050000000  0.5551340000000 1.0
C      1  0.4448660000000  0.5005050000000  0.4448660000000 1.0
C      1  0.5551340000000  0.5005050000000  0.5551340000000 1.0
C      1  0.5551340000000  0.5005050000000  0.4448660000000 1.0
END
