TITL C-986973-6940-687 1.04834933136511e-05 3375 -332.140998477065 0 0 60 (C1) n - 1
REM
REM in /home/bkarasulu/work/CARBON/AIRSS/Generating-Clusters/REBO/Higher-Symm/Only-C60
REM
REM
REM
REM
REM
REM ./C.cell (a2850807a9bf4ad07a5b6933b78d9264)
REM AIRSS Version 0.9.1 bugfix July 2018 build 013d7b7c2542+ Fri, 06 Jul 2018 19:26:36 +0100
REM compiler GCC version 9.2.1 20190827 (Red Hat 9.2.1-1)
REM options -cpp -mtune=generic -march=x86-64 -g -O0 -fpre-include=/usr/include/finclude/math-vector-fortran.h
REM seed 156220232 -1772709488 -1528175571 -1385799440 -1686392298 217164445 -1385572677 966865293 -37623225 -1915175276 714537231 1791991339 1628217136 -1418504638 1152113150 -190497249 1899247452 -1151115962 -2020562440 -331767829 -124717289 -35600954 -673329929 1319423282 -173226161 1690061091 -839340889 1612306197 1477949129 806884174 -854288839 1371124569 -1378275233
REM
CELL 1.54180   15.00000   15.00000   15.00000   90.00000   90.00000   90.00000
LATT -1
SFAC C  
C      1  0.6948080000000  0.3896200000000  0.3495890000000 1.0
C      1  0.3563380000000  0.6971670000000  0.3728440000000 1.0
C      1  0.4041130000000  0.3586810000000  0.7026440000000 1.0
C      1  0.3192860000000  0.4060520000000  0.6439010000000 1.0
C      1  0.6926410000000  0.5950290000000  0.6437800000000 1.0
C      1  0.3025860000000  0.6035270000000  0.3420000000000 1.0
C      1  0.6297030000000  0.6833510000000  0.6122260000000 1.0
C      1  0.3610070000000  0.3045420000000  0.6150150000000 1.0
C      1  0.6412190000000  0.2945180000000  0.3779270000000 1.0
C      1  0.5990920000000  0.3611100000000  0.2959460000000 1.0
C      1  0.4018890000000  0.6296400000000  0.2937380000000 1.0
C      1  0.6099760000000  0.6339640000000  0.7115460000000 1.0
C      1  0.6938150000000  0.5911320000000  0.3908160000000 1.0
C      1  0.3465620000000  0.3209910000000  0.4110870000000 1.0
C      1  0.3999940000000  0.6449640000000  0.6762520000000 1.0
C      1  0.2981190000000  0.6139050000000  0.6373350000000 1.0
C      1  0.7075090000000  0.3924870000000  0.6407070000000 1.0
C      1  0.2955830000000  0.4096040000000  0.3639070000000 1.0
C      1  0.6507750000000  0.3090390000000  0.5895640000000 1.0
C      1  0.3535370000000  0.7000800000000  0.5885870000000 1.0
C      1  0.6546310000000  0.6972470000000  0.4075380000000 1.0
C      1  0.6141050000000  0.6366870000000  0.3229880000000 1.0
C      1  0.3886300000000  0.3680120000000  0.3167370000000 1.0
C      1  0.6156860000000  0.3481600000000  0.6902050000000 1.0
C      1  0.4394410000000  0.5497260000000  0.3663660000000 1.0
C      1  0.3558940000000  0.4445010000000  0.5434180000000 1.0
C      1  0.5497180000000  0.3503470000000  0.4188040000000 1.0
C      1  0.5700040000000  0.5445550000000  0.6518240000000 1.0
C      1  0.4454100000000  0.4480370000000  0.6444000000000 1.0
C      1  0.5683590000000  0.4481340000000  0.3645840000000 1.0
C      1  0.6714230000000  0.4325830000000  0.4513840000000 1.0
C      1  0.3078010000000  0.5664830000000  0.4485350000000 1.0
C      1  0.6267230000000  0.5629550000000  0.5552280000000 1.0
C      1  0.4579220000000  0.3566050000000  0.5785410000000 1.0
C      1  0.5306730000000  0.6616040000000  0.5626130000000 1.0
C      1  0.4528000000000  0.6518530000000  0.4144850000000 1.0
C      1  0.4332420000000  0.4557170000000  0.3766580000000 1.0
C      1  0.3434610000000  0.5776320000000  0.5377330000000 1.0
C      1  0.5440160000000  0.6730510000000  0.4307810000000 1.0
C      1  0.5784520000000  0.4446930000000  0.6405100000000 1.0
C      1  0.4370480000000  0.5396210000000  0.6595820000000 1.0
C      1  0.5722620000000  0.5413210000000  0.3699430000000 1.0
C      1  0.6090190000000  0.5876450000000  0.4666420000000 1.0
C      1  0.3980540000000  0.4265920000000  0.4740150000000 1.0
C      1  0.6294490000000  0.4306090000000  0.5398640000000 1.0
C      1  0.4398160000000  0.6374080000000  0.5463900000000 1.0
C      1  0.5503840000000  0.3493160000000  0.5521130000000 1.0
C      1  0.4572950000000  0.3382270000000  0.4347590000000 1.0
C      1  0.2785720000000  0.4986010000000  0.3721300000000 1.0
C      1  0.6217660000000  0.2920510000000  0.4848100000000 1.0
C      1  0.3741410000000  0.7021150000000  0.4797650000000 1.0
C      1  0.5120950000000  0.3750890000000  0.7010350000000 1.0
C      1  0.5019000000000  0.6165290000000  0.7076830000000 1.0
C      1  0.5112650000000  0.6100170000000  0.3022580000000 1.0
C      1  0.6985430000000  0.4910660000000  0.6079560000000 1.0
C      1  0.2955020000000  0.5081300000000  0.6141540000000 1.0
C      1  0.7126300000000  0.4952160000000  0.3784020000000 1.0
C      1  0.4923990000000  0.3890020000000  0.3049230000000 1.0
C      1  0.3846640000000  0.2995690000000  0.5119170000000 1.0
C      1  0.6162510000000  0.7138900000000  0.5089190000000 1.0
END
