TITL C-986973-6940-914 6.28595163205025e-07 3375 -359.392996681126 0 0 60 (Ci) n - 1
REM
REM in /home/bkarasulu/work/CARBON/AIRSS/Generating-Clusters/REBO/Higher-Symm/Only-C60
REM
REM
REM
REM
REM
REM ./C.cell (a2850807a9bf4ad07a5b6933b78d9264)
REM AIRSS Version 0.9.1 bugfix July 2018 build 013d7b7c2542+ Fri, 06 Jul 2018 19:26:36 +0100
REM compiler GCC version 9.2.1 20190827 (Red Hat 9.2.1-1)
REM options -cpp -mtune=generic -march=x86-64 -g -O0 -fpre-include=/usr/include/finclude/math-vector-fortran.h
REM seed -1037033594 1906011148 -1029012905 -986244495 1929473245 -489175663 -1344438427 -1149325935 1602181945 -2075284804 -356313499 -1343957184 1681967115 223774177 -377278076 1815538097 -791531526 813376471 1952827799 834051501 -260117158 -48848189 172017880 1604574417 -946039543 -1365234998 84616079 -805549027 -1533659130 1406778545 -2060843702 1915231995 1039728555
REM
CELL 1.54180   15.00000   15.00000   15.00000   90.00000   90.00000   90.00000
LATT -1
SFAC C  
C      1  0.4800690000000  0.6694020000000  0.3503520000000 1.0
C      1  0.3946680000000  0.6278470000000  0.6453950000000 1.0
C      1  0.3303560000000  0.5429880000000  0.3391270000000 1.0
C      1  0.3486730000000  0.4378210000000  0.6471010000000 1.0
C      1  0.4026880000000  0.3620460000000  0.3525460000000 1.0
C      1  0.5199310000000  0.3305980000000  0.6496480000000 1.0
C      1  0.6053320000000  0.3721530000000  0.3546050000000 1.0
C      1  0.6696440000000  0.4570120000000  0.6608730000000 1.0
C      1  0.6513270000000  0.5621790000000  0.3528990000000 1.0
C      1  0.5973120000000  0.6379540000000  0.6474540000000 1.0
C      1  0.7190150000000  0.5995600000000  0.5115840000000 1.0
C      1  0.5917670000000  0.7154750000000  0.4858180000000 1.0
C      1  0.4636610000000  0.7387760000000  0.5127640000000 1.0
C      1  0.3182940000000  0.6494540000000  0.4834730000000 1.0
C      1  0.2600040000000  0.5311840000000  0.5003930000000 1.0
C      1  0.2809850000000  0.4004400000000  0.4884160000000 1.0
C      1  0.4082330000000  0.2845250000000  0.5141820000000 1.0
C      1  0.5363390000000  0.2612240000000  0.4872360000000 1.0
C      1  0.6817060000000  0.3505460000000  0.5165270000000 1.0
C      1  0.7399960000000  0.4688160000000  0.4996070000000 1.0
C      1  0.4709610000000  0.3172890000000  0.4259990000000 1.0
C      1  0.5851070000000  0.3333050000000  0.5566700000000 1.0
C      1  0.6683440000000  0.4240260000000  0.4317930000000 1.0
C      1  0.6832880000000  0.5251840000000  0.5779690000000 1.0
C      1  0.6354280000000  0.6283960000000  0.4438220000000 1.0
C      1  0.5290390000000  0.6827110000000  0.5740010000000 1.0
C      1  0.4148930000000  0.6666950000000  0.4433300000000 1.0
C      1  0.3316560000000  0.5759740000000  0.5682070000000 1.0
C      1  0.3167120000000  0.4748160000000  0.4220310000000 1.0
C      1  0.3645720000000  0.3716040000000  0.5561780000000 1.0
C      1  0.4918410000000  0.4222020000000  0.4307630000000 1.0
C      1  0.5383350000000  0.4280330000000  0.5609350000000 1.0
C      1  0.5731280000000  0.4694150000000  0.4390710000000 1.0
C      1  0.5786240000000  0.5135700000000  0.5710110000000 1.0
C      1  0.5544980000000  0.5605050000000  0.4440850000000 1.0
C      1  0.5081590000000  0.5777980000000  0.5692370000000 1.0
C      1  0.4616650000000  0.5719670000000  0.4390650000000 1.0
C      1  0.4268720000000  0.5305850000000  0.5609300000000 1.0
C      1  0.4213760000000  0.4864300000000  0.4289890000000 1.0
C      1  0.4455020000000  0.4394950000000  0.5559150000000 1.0
C      1  0.4535090000000  0.5661620000000  0.6903090000000 1.0
C      1  0.4140070000000  0.5256560000000  0.2981610000000 1.0
C      1  0.4266220000000  0.4697860000000  0.6896590000000 1.0
C      1  0.4466380000000  0.4318490000000  0.3040570000000 1.0
C      1  0.5084240000000  0.4137670000000  0.6939510000000 1.0
C      1  0.5464910000000  0.4338380000000  0.3096910000000 1.0
C      1  0.5859930000000  0.4743440000000  0.7018390000000 1.0
C      1  0.5733780000000  0.5302140000000  0.3103410000000 1.0
C      1  0.5533620000000  0.5681510000000  0.6959430000000 1.0
C      1  0.4915760000000  0.5862330000000  0.3060490000000 1.0
C      1  0.6595350000000  0.6722570000000  0.5666010000000 1.0
C      1  0.5172460000000  0.7446820000000  0.4129660000000 1.0
C      1  0.3781440000000  0.6988320000000  0.5667010000000 1.0
C      1  0.2669370000000  0.5955920000000  0.4067280000000 1.0
C      1  0.2678880000000  0.4570810000000  0.5857610000000 1.0
C      1  0.3404650000000  0.3277430000000  0.4333990000000 1.0
C      1  0.4827540000000  0.2553180000000  0.5870340000000 1.0
C      1  0.6218560000000  0.3011680000000  0.4332990000000 1.0
C      1  0.7330630000000  0.4044080000000  0.5932720000000 1.0
C      1  0.7321120000000  0.5429200000000  0.4142390000000 1.0
END
