TITL C-986972-3822-145 -0.0181431412687234 3375 -355.358188494175 0 0 60 (C1) n - 1
REM
REM in /home/bkarasulu/work/CARBON/AIRSS/Generating-Clusters/REBO/Higher-Symm/Only-C60
REM
REM
REM
REM
REM
REM ./C.cell (a2850807a9bf4ad07a5b6933b78d9264)
REM AIRSS Version 0.9.1 bugfix July 2018 build 013d7b7c2542+ Fri, 06 Jul 2018 19:26:36 +0100
REM compiler GCC version 9.2.1 20190827 (Red Hat 9.2.1-1)
REM options -cpp -mtune=generic -march=x86-64 -g -O0 -fpre-include=/usr/include/finclude/math-vector-fortran.h
REM seed -1932181980 -1744035946 -569217143 -1980260604 1543908758 1358749125 -862326756 -1951240024 -743784778 1858615141 -393474921 -728525801 96836050 1121719205 -1645847020 -541700018 -435771540 -2037527486 1224153551 -1778447534 680699088 1558661346 -450527249 2078883043 -540144811 -2084595671 -443971486 369929497 -750724754 -1690003439 1103722468 -1581340310 -1688539947
REM
CELL 1.54180   15.00000   15.00000   15.00000   90.00000   90.00000   90.00000
LATT -1
SFAC C  
C      1  0.4867850000000  0.7481840000000  0.5438660000000 1.0
C      1  0.4251720000000  0.4080470000000  0.3075090000000 1.0
C      1  0.5721730000000  0.4868310000000  0.2854520000000 1.0
C      1  0.4734490000000  0.3196660000000  0.5196290000000 1.0
C      1  0.4265240000000  0.5754600000000  0.4677470000000 1.0
C      1  0.5103750000000  0.7716500000000  0.4533880000000 1.0
C      1  0.5652060000000  0.7099250000000  0.5991420000000 1.0
C      1  0.4624540000000  0.3597940000000  0.3934500000000 1.0
C      1  0.3371170000000  0.4696450000000  0.3252090000000 1.0
C      1  0.6396060000000  0.3067580000000  0.4725680000000 1.0
C      1  0.4883420000000  0.4367920000000  0.2461210000000 1.0
C      1  0.3837770000000  0.6446570000000  0.6309410000000 1.0
C      1  0.5314040000000  0.4314440000000  0.4479720000000 1.0
C      1  0.4855910000000  0.6169910000000  0.6517330000000 1.0
C      1  0.3910210000000  0.5685530000000  0.3380040000000 1.0
C      1  0.5775710000000  0.6519550000000  0.6824300000000 1.0
C      1  0.6665730000000  0.6078860000000  0.4668940000000 1.0
C      1  0.3142390000000  0.5315470000000  0.4146260000000 1.0
C      1  0.3982210000000  0.7118960000000  0.5541060000000 1.0
C      1  0.3632490000000  0.3291840000000  0.4148200000000 1.0
C      1  0.6549730000000  0.2969950000000  0.5832390000000 1.0
C      1  0.5695430000000  0.3975250000000  0.6795230000000 1.0
C      1  0.5996280000000  0.5262850000000  0.5111740000000 1.0
C      1  0.6645260000000  0.5373090000000  0.3170590000000 1.0
C      1  0.4053180000000  0.6643830000000  0.3921180000000 1.0
C      1  0.7005250000000  0.5099000000000  0.6309820000000 1.0
C      1  0.6411990000000  0.5804780000000  0.6916230000000 1.0
C      1  0.7267610000000  0.5201450000000  0.4719480000000 1.0
C      1  0.4951010000000  0.5602960000000  0.3183310000000 1.0
C      1  0.5535970000000  0.6497040000000  0.3447670000000 1.0
C      1  0.4141000000000  0.3312290000000  0.6380650000000 1.0
C      1  0.5267800000000  0.5513840000000  0.5939990000000 1.0
C      1  0.4932960000000  0.7125720000000  0.3812270000000 1.0
C      1  0.5411810000000  0.5361290000000  0.4130230000000 1.0
C      1  0.5151110000000  0.6221690000000  0.4765070000000 1.0
C      1  0.7145080000000  0.4696430000000  0.3853350000000 1.0
C      1  0.4161770000000  0.4894240000000  0.6971070000000 1.0
C      1  0.3903670000000  0.4843070000000  0.4845340000000 1.0
C      1  0.7243290000000  0.4680720000000  0.5495540000000 1.0
C      1  0.3745640000000  0.5598710000000  0.6979710000000 1.0
C      1  0.3328530000000  0.3341720000000  0.5893220000000 1.0
C      1  0.5340690000000  0.4461460000000  0.5604890000000 1.0
C      1  0.3064580000000  0.3707840000000  0.3551940000000 1.0
C      1  0.5827220000000  0.3081750000000  0.6432590000000 1.0
C      1  0.4961400000000  0.2767500000000  0.6097820000000 1.0
C      1  0.3491170000000  0.6829310000000  0.4769160000000 1.0
C      1  0.2757790000000  0.4968110000000  0.6137070000000 1.0
C      1  0.2766180000000  0.4068880000000  0.6101650000000 1.0
C      1  0.3334380000000  0.2996890000000  0.4997640000000 1.0
C      1  0.7020230000000  0.3786700000000  0.5378310000000 1.0
C      1  0.6234110000000  0.4711750000000  0.6926070000000 1.0
C      1  0.4190890000000  0.4006980000000  0.5124260000000 1.0
C      1  0.5898090000000  0.6606520000000  0.5172820000000 1.0
C      1  0.3065980000000  0.5791590000000  0.5848160000000 1.0
C      1  0.4697130000000  0.4185090000000  0.6503350000000 1.0
C      1  0.6426460000000  0.6202670000000  0.3642070000000 1.0
C      1  0.6083770000000  0.4300350000000  0.3696040000000 1.0
C      1  0.6903860000000  0.3611060000000  0.3975810000000 1.0
C      1  0.2987480000000  0.6032470000000  0.4931970000000 1.0
C      1  0.5415710000000  0.2994560000000  0.4478250000000 1.0
END
