TITL C-986973-6940-1062 -1.24475007978599e-05 3375 -328.890935661964 0 0 60 (C2h) n - 1
REM
REM in /home/bkarasulu/work/CARBON/AIRSS/Generating-Clusters/REBO/Higher-Symm/Only-C60
REM
REM
REM
REM
REM
REM ./C.cell (a2850807a9bf4ad07a5b6933b78d9264)
REM AIRSS Version 0.9.1 bugfix July 2018 build 013d7b7c2542+ Fri, 06 Jul 2018 19:26:36 +0100
REM compiler GCC version 9.2.1 20190827 (Red Hat 9.2.1-1)
REM options -cpp -mtune=generic -march=x86-64 -g -O0 -fpre-include=/usr/include/finclude/math-vector-fortran.h
REM seed -540361336 542474227 -2058009171 -616115230 -1260215984 -983700256 1560091763 -1268542935 -1442470195 1936312301 1089903612 1485848919 -1302676818 -1241810187 1582400117 311808863 -1987224354 1181589251 1620110076 -603683580 -1515211362 -605144345 765222261 1186777356 146266747 -517919152 -1034820161 -890888270 -1726850442 191684488 1589120873 -491855360 1694388923
REM
CELL 1.54180   15.00000   15.00000   15.00000   90.00000   90.00000   90.00000
LATT -1
SFAC C  
C      1  0.5000010000000  0.5520580000000  0.2924650000000 1.0
C      1  0.5000000000000  0.3962760000000  0.3773020000000 1.0
C      1  0.4999990000000  0.3256790000000  0.5572410000000 1.0
C      1  0.5000000000000  0.4479420000000  0.7075350000000 1.0
C      1  0.5000000000000  0.6037230000000  0.6226980000000 1.0
C      1  0.4999990000000  0.6743210000000  0.4427590000000 1.0
C      1  0.5000010000000  0.4605350000000  0.2963700000000 1.0
C      1  0.5000000000000  0.6229610000000  0.3673290000000 1.0
C      1  0.5000000000000  0.6452860000000  0.5421460000000 1.0
C      1  0.5000000000000  0.5394650000000  0.7036300000000 1.0
C      1  0.5000000000000  0.3770390000000  0.6326720000000 1.0
C      1  0.4999990000000  0.3547140000000  0.4578550000000 1.0
C      1  0.6322280000000  0.6169630000000  0.6313150000000 1.0
C      1  0.6320240000000  0.6861930000000  0.4417900000000 1.0
C      1  0.6320690000000  0.5560480000000  0.2832700000000 1.0
C      1  0.6322280000000  0.3830370000000  0.3686850000000 1.0
C      1  0.6320240000000  0.3138070000000  0.5582100000000 1.0
C      1  0.6320680000000  0.4439520000000  0.7167310000000 1.0
C      1  0.6322950000000  0.3644360000000  0.6405280000000 1.0
C      1  0.6322140000000  0.3399040000000  0.4518240000000 1.0
C      1  0.6320870000000  0.4563040000000  0.2871740000000 1.0
C      1  0.6322950000000  0.6355640000000  0.3594720000000 1.0
C      1  0.6322140000000  0.6600950000000  0.5481760000000 1.0
C      1  0.6320870000000  0.5436960000000  0.7128260000000 1.0
C      1  0.4423530000000  0.4090220000000  0.7967360000000 1.0
C      1  0.4425520000000  0.6589570000000  0.7055310000000 1.0
C      1  0.4425540000000  0.7724090000000  0.4314960000000 1.0
C      1  0.4423540000000  0.5909780000000  0.2032640000000 1.0
C      1  0.4425520000000  0.3410430000000  0.2944690000000 1.0
C      1  0.4425540000000  0.2275910000000  0.5685040000000 1.0
C      1  0.4423620000000  0.5852450000000  0.7895650000000 1.0
C      1  0.4423210000000  0.3290530000000  0.7187170000000 1.0
C      1  0.4425780000000  0.2552610000000  0.4606210000000 1.0
C      1  0.4423630000000  0.4147550000000  0.2104350000000 1.0
C      1  0.4423220000000  0.6709470000000  0.2812830000000 1.0
C      1  0.4425790000000  0.7447390000000  0.5393790000000 1.0
C      1  0.3677040000000  0.6355620000000  0.3594710000000 1.0
C      1  0.3679150000000  0.4563030000000  0.2871720000000 1.0
C      1  0.3677850000000  0.3399060000000  0.4518230000000 1.0
C      1  0.3677040000000  0.3644370000000  0.6405290000000 1.0
C      1  0.3679150000000  0.5436970000000  0.7128270000000 1.0
C      1  0.3677850000000  0.6600950000000  0.5481770000000 1.0
C      1  0.3677720000000  0.3830380000000  0.3686840000000 1.0
C      1  0.3679330000000  0.5560480000000  0.2832670000000 1.0
C      1  0.3679740000000  0.6861910000000  0.4417900000000 1.0
C      1  0.3677720000000  0.6169620000000  0.6313160000000 1.0
C      1  0.3679320000000  0.4439520000000  0.7167320000000 1.0
C      1  0.3679740000000  0.3138080000000  0.5582100000000 1.0
C      1  0.5576400000000  0.5852450000000  0.7895640000000 1.0
C      1  0.5574200000000  0.7447400000000  0.5393790000000 1.0
C      1  0.5576780000000  0.6709480000000  0.2812830000000 1.0
C      1  0.5576410000000  0.4147550000000  0.2104360000000 1.0
C      1  0.5574200000000  0.2552600000000  0.4606210000000 1.0
C      1  0.5576780000000  0.3290520000000  0.7187170000000 1.0
C      1  0.5576480000000  0.4090210000000  0.7967350000000 1.0
C      1  0.5574430000000  0.2275900000000  0.5685040000000 1.0
C      1  0.5574480000000  0.3410420000000  0.2944700000000 1.0
C      1  0.5576490000000  0.5909790000000  0.2032650000000 1.0
C      1  0.5574430000000  0.7724100000000  0.4314960000000 1.0
C      1  0.5574480000000  0.6589570000000  0.7055300000000 1.0
END
