TITL C-986978-6805-776 -2.83199566926853e-06 3375 -348.090485602495 0 0 60 (C1) n - 1
REM
REM in /home/bkarasulu/work/CARBON/AIRSS/Generating-Clusters/REBO/Higher-Symm/Only-C60
REM
REM
REM
REM
REM
REM ./C.cell (a2850807a9bf4ad07a5b6933b78d9264)
REM AIRSS Version 0.9.1 bugfix July 2018 build 013d7b7c2542+ Fri, 06 Jul 2018 19:26:36 +0100
REM compiler GCC version 9.2.1 20190827 (Red Hat 9.2.1-1)
REM options -cpp -mtune=generic -march=x86-64 -g -O0 -fpre-include=/usr/include/finclude/math-vector-fortran.h
REM seed -419410230 -802991372 -754676651 -1417043931 1597683948 -310607780 -1287493944 77184070 -764746404 854936228 -168082799 893922329 -553780801 1695308385 1586005455 2033305474 1927202684 -1419622309 466676076 1746636503 -1241715890 1602203488 -1498653267 1339439633 643367398 -249062112 -1529431436 1991267654 1436238849 1944338179 -89191823 947928793 2039830028
REM
CELL 1.54180   15.00000   15.00000   15.00000   90.00000   90.00000   90.00000
LATT -1
SFAC C  
C      1  0.5445760000000  0.7647900000000  0.5005790000000 1.0
C      1  0.5330520000000  0.3567220000000  0.6554780000000 1.0
C      1  0.5850370000000  0.6051190000000  0.6378170000000 1.0
C      1  0.4189840000000  0.5922710000000  0.5067470000000 1.0
C      1  0.3498020000000  0.4684960000000  0.6213880000000 1.0
C      1  0.5138610000000  0.5230720000000  0.6239720000000 1.0
C      1  0.4383630000000  0.7309410000000  0.4793490000000 1.0
C      1  0.5733150000000  0.4482810000000  0.4680880000000 1.0
C      1  0.2882950000000  0.5799450000000  0.5166200000000 1.0
C      1  0.4757010000000  0.3922590000000  0.7417430000000 1.0
C      1  0.5094810000000  0.4858220000000  0.3899470000000 1.0
C      1  0.3046010000000  0.3120210000000  0.6335120000000 1.0
C      1  0.5885100000000  0.4406460000000  0.6360480000000 1.0
C      1  0.3139160000000  0.4039380000000  0.4846910000000 1.0
C      1  0.6918720000000  0.5792710000000  0.6555860000000 1.0
C      1  0.5339440000000  0.6403670000000  0.4605820000000 1.0
C      1  0.5878600000000  0.2486590000000  0.4886100000000 1.0
C      1  0.4759920000000  0.2641280000000  0.4782890000000 1.0
C      1  0.3331830000000  0.5732610000000  0.6111100000000 1.0
C      1  0.6744620000000  0.4558380000000  0.4222060000000 1.0
C      1  0.3614700000000  0.4546170000000  0.3216110000000 1.0
C      1  0.6833170000000  0.5512980000000  0.3844540000000 1.0
C      1  0.5305630000000  0.2741010000000  0.5777690000000 1.0
C      1  0.4001820000000  0.3535170000000  0.6654310000000 1.0
C      1  0.5435320000000  0.3613580000000  0.3334580000000 1.0
C      1  0.3373680000000  0.6158790000000  0.3638850000000 1.0
C      1  0.5450910000000  0.5223150000000  0.2936130000000 1.0
C      1  0.4166610000000  0.4237230000000  0.4020580000000 1.0
C      1  0.5203170000000  0.6527250000000  0.5679990000000 1.0
C      1  0.6120860000000  0.5218360000000  0.7123360000000 1.0
C      1  0.7451330000000  0.4372580000000  0.5007770000000 1.0
C      1  0.6932740000000  0.6265980000000  0.4459340000000 1.0
C      1  0.6284100000000  0.3652590000000  0.3799230000000 1.0
C      1  0.3104890000000  0.5235110000000  0.3669600000000 1.0
C      1  0.4682210000000  0.4274150000000  0.5018930000000 1.0
C      1  0.4373600000000  0.5049450000000  0.5644900000000 1.0
C      1  0.4214040000000  0.6377040000000  0.3223450000000 1.0
C      1  0.6890800000000  0.6794320000000  0.6012320000000 1.0
C      1  0.3458460000000  0.6641330000000  0.4656610000000 1.0
C      1  0.6438720000000  0.4467050000000  0.5514640000000 1.0
C      1  0.5118810000000  0.4259680000000  0.2711040000000 1.0
C      1  0.4697780000000  0.6790530000000  0.3924050000000 1.0
C      1  0.6397410000000  0.5599720000000  0.3043610000000 1.0
C      1  0.6452600000000  0.2872920000000  0.4318070000000 1.0
C      1  0.6085820000000  0.7221590000000  0.5790020000000 1.0
C      1  0.4180250000000  0.4289020000000  0.2484180000000 1.0
C      1  0.4779210000000  0.3087740000000  0.3764200000000 1.0
C      1  0.5021340000000  0.5003030000000  0.7328090000000 1.0
C      1  0.6206550000000  0.6918010000000  0.4498690000000 1.0
C      1  0.2902750000000  0.4973460000000  0.4584560000000 1.0
C      1  0.4094900000000  0.5577810000000  0.6984990000000 1.0
C      1  0.7306660000000  0.5168740000000  0.5745390000000 1.0
C      1  0.4566550000000  0.3552690000000  0.5731930000000 1.0
C      1  0.3802970000000  0.4502940000000  0.7223770000000 1.0
C      1  0.4430810000000  0.5520080000000  0.4221270000000 1.0
C      1  0.4749900000000  0.5917500000000  0.2596840000000 1.0
C      1  0.3885470000000  0.3284510000000  0.4447730000000 1.0
C      1  0.4296130000000  0.6286040000000  0.6134900000000 1.0
C      1  0.3052010000000  0.3924740000000  0.5777970000000 1.0
C      1  0.7287250000000  0.6147500000000  0.5332120000000 1.0
END
