TITL C-986978-6805-1179 6.6732637432265e-06 3375 -349.137635575335 0 0 60 (C4) n - 1
REM
REM in /home/bkarasulu/work/CARBON/AIRSS/Generating-Clusters/REBO/Higher-Symm/Only-C60
REM
REM
REM
REM
REM
REM ./C.cell (a2850807a9bf4ad07a5b6933b78d9264)
REM AIRSS Version 0.9.1 bugfix July 2018 build 013d7b7c2542+ Fri, 06 Jul 2018 19:26:36 +0100
REM compiler GCC version 9.2.1 20190827 (Red Hat 9.2.1-1)
REM options -cpp -mtune=generic -march=x86-64 -g -O0 -fpre-include=/usr/include/finclude/math-vector-fortran.h
REM seed -1619705573 656118023 2076090986 -101212947 2007913161 -1515336920 1123591189 1243306861 1124469481 -1372568618 -651762788 -1900686376 -1370643638 -1123166666 1347823770 1887911739 -2051971255 822626974 -57197111 -302999906 -1634578695 1712414993 1457882759 -526313404 -1367136026 -864765066 -1149629351 1391521072 412851294 -2020344006 225466698 641134411 260225887
REM
CELL 1.54180   15.00000   15.00000   15.00000   90.00000   90.00000   90.00000
LATT -1
SFAC C  
C      1  0.7109590000000  0.5207350000000  0.3633140000000 1.0
C      1  0.3633110000000  0.5207580000000  0.2890450000000 1.0
C      1  0.2890440000000  0.5207190000000  0.6366930000000 1.0
C      1  0.6366910000000  0.5206950000000  0.7109610000000 1.0
C      1  0.2896520000000  0.5193490000000  0.3512070000000 1.0
C      1  0.6487970000000  0.5193420000000  0.2896540000000 1.0
C      1  0.7103500000000  0.5192950000000  0.6487990000000 1.0
C      1  0.3512050000000  0.5193030000000  0.7103520000000 1.0
C      1  0.6226250000000  0.6735560000000  0.4418200000000 1.0
C      1  0.4418050000000  0.6735720000000  0.3774040000000 1.0
C      1  0.3773910000000  0.6735520000000  0.5582230000000 1.0
C      1  0.5582100000000  0.6735370000000  0.6226390000000 1.0
C      1  0.3618630000000  0.6694160000000  0.4551440000000 1.0
C      1  0.5448840000000  0.6694200000000  0.3618770000000 1.0
C      1  0.6381520000000  0.6693940000000  0.5448990000000 1.0
C      1  0.4551300000000  0.6693900000000  0.6381650000000 1.0
C      1  0.3039890000000  0.5833780000000  0.4365810000000 1.0
C      1  0.4365750000000  0.5833410000000  0.6960250000000 1.0
C      1  0.6960180000000  0.5833470000000  0.5634400000000 1.0
C      1  0.5634330000000  0.5833840000000  0.3039970000000 1.0
C      1  0.6763160000000  0.5810640000000  0.4529430000000 1.0
C      1  0.5470710000000  0.5810420000000  0.6763230000000 1.0
C      1  0.3236920000000  0.5810670000000  0.5470780000000 1.0
C      1  0.4529360000000  0.5810890000000  0.3236980000000 1.0
C      1  0.3042650000000  0.3377750000000  0.4169070000000 1.0
C      1  0.4169200000000  0.3377370000000  0.6957090000000 1.0
C      1  0.6957210000000  0.3377390000000  0.5830550000000 1.0
C      1  0.5830670000000  0.3377770000000  0.3042530000000 1.0
C      1  0.6976090000000  0.3354170000000  0.4207250000000 1.0
C      1  0.5792490000000  0.3353890000000  0.6975960000000 1.0
C      1  0.3023780000000  0.3354140000000  0.5792370000000 1.0
C      1  0.4207370000000  0.3354430000000  0.3023650000000 1.0
C      1  0.6285560000000  0.4928430000000  0.5478210000000 1.0
C      1  0.5478210000000  0.4928680000000  0.3714440000000 1.0
C      1  0.3714440000000  0.4928650000000  0.4521790000000 1.0
C      1  0.4521790000000  0.4928400000000  0.6285560000000 1.0
C      1  0.3860730000000  0.4858770000000  0.5538490000000 1.0
C      1  0.4461490000000  0.4858950000000  0.3860720000000 1.0
C      1  0.6139260000000  0.4858810000000  0.4461490000000 1.0
C      1  0.5538500000000  0.4858630000000  0.6139260000000 1.0
C      1  0.4075370000000  0.4296800000000  0.7099610000000 1.0
C      1  0.7099660000000  0.4296820000000  0.5924530000000 1.0
C      1  0.5924580000000  0.4297240000000  0.2900240000000 1.0
C      1  0.2900290000000  0.4297220000000  0.4075320000000 1.0
C      1  0.5891380000000  0.4277040000000  0.7046630000000 1.0
C      1  0.2953270000000  0.4277300000000  0.5891320000000 1.0
C      1  0.4108570000000  0.4277610000000  0.2953210000000 1.0
C      1  0.7046680000000  0.4277350000000  0.4108520000000 1.0
C      1  0.6152400000000  0.2949560000000  0.5490860000000 1.0
C      1  0.5491010000000  0.2949790000000  0.3847280000000 1.0
C      1  0.3847430000000  0.2949780000000  0.4508660000000 1.0
C      1  0.4508820000000  0.2949550000000  0.6152240000000 1.0
C      1  0.3838500000000  0.2941330000000  0.5466520000000 1.0
C      1  0.4533150000000  0.2941500000000  0.3838340000000 1.0
C      1  0.6161330000000  0.2941350000000  0.4533000000000 1.0
C      1  0.5466680000000  0.2941180000000  0.6161180000000 1.0
C      1  0.6282830000000  0.7540450000000  0.6110790000000 1.0
C      1  0.6110570000000  0.7540750000000  0.3717610000000 1.0
C      1  0.3717390000000  0.7540820000000  0.3889850000000 1.0
C      1  0.3889650000000  0.7540530000000  0.6283030000000 1.0
END
