TITL C-986974-580-423 -1.04834474126929e-05 3375 -348.303566570008 0 0 60 (C6) n - 1
REM
REM in /home/bkarasulu/work/CARBON/AIRSS/Generating-Clusters/REBO/Higher-Symm/Only-C60
REM
REM
REM
REM
REM
REM ./C.cell (a2850807a9bf4ad07a5b6933b78d9264)
REM AIRSS Version 0.9.1 bugfix July 2018 build 013d7b7c2542+ Fri, 06 Jul 2018 19:26:36 +0100
REM compiler GCC version 9.2.1 20190827 (Red Hat 9.2.1-1)
REM options -cpp -mtune=generic -march=x86-64 -g -O0 -fpre-include=/usr/include/finclude/math-vector-fortran.h
REM seed -1784650972 -153606232 -277252784 433098994 1488102522 334780310 -1658900944 -284081392 171656882 896311742 847325338 1330351643 918352695 1935261931 1525794630 945556672 474470751 -1943530984 1574079601 774363857 -657391513 -1585210232 2003835692 1415813549 -1754373444 333660102 -967302538 359860862 357134327 -897405074 -1508974854 1707536501 572356203
REM
CELL 1.54180   15.00000   15.00000   15.00000   90.00000   90.00000   90.00000
LATT -1
SFAC C  
C      1  0.6022250000000  0.4655500000000  0.4966510000000 1.0
C      1  0.5540130000000  0.4655500000000  0.5868550000000 1.0
C      1  0.4517880000000  0.4655500000000  0.5902040000000 1.0
C      1  0.3977750000000  0.4655500000000  0.5033490000000 1.0
C      1  0.4459870000000  0.4655500000000  0.4131450000000 1.0
C      1  0.5482120000000  0.4655500000000  0.4097960000000 1.0
C      1  0.7260890000000  0.6290100000000  0.6252880000000 1.0
C      1  0.5045420000000  0.6290100000000  0.7584430000000 1.0
C      1  0.2784530000000  0.6290100000000  0.6331550000000 1.0
C      1  0.2739110000000  0.6290100000000  0.3747120000000 1.0
C      1  0.4954580000000  0.6290100000000  0.2415570000000 1.0
C      1  0.7215470000000  0.6290100000000  0.3668450000000 1.0
C      1  0.2790470000000  0.4445100000000  0.5583010000000 1.0
C      1  0.3390330000000  0.4445100000000  0.3377990000000 1.0
C      1  0.5599870000000  0.4445100000000  0.2794980000000 1.0
C      1  0.7209530000000  0.4445100000000  0.4416990000000 1.0
C      1  0.6609670000000  0.4445100000000  0.6622010000000 1.0
C      1  0.4400130000000  0.4445100000000  0.7205020000000 1.0
C      1  0.4829250000000  0.2924030000000  0.3906020000000 1.0
C      1  0.5862040000000  0.2924030000000  0.4305140000000 1.0
C      1  0.6032790000000  0.2924030000000  0.5399120000000 1.0
C      1  0.5170750000000  0.2924030000000  0.6093980000000 1.0
C      1  0.4137960000000  0.2924030000000  0.5694860000000 1.0
C      1  0.3967210000000  0.2924030000000  0.4600880000000 1.0
C      1  0.3070250000000  0.5309270000000  0.5008490000000 1.0
C      1  0.4027770000000  0.5309270000000  0.3333030000000 1.0
C      1  0.5957520000000  0.5309270000000  0.3324540000000 1.0
C      1  0.6929750000000  0.5309270000000  0.4991510000000 1.0
C      1  0.5972230000000  0.5309270000000  0.6666970000000 1.0
C      1  0.4042480000000  0.5309270000000  0.6675460000000 1.0
C      1  0.4022220000000  0.3687590000000  0.3781370000000 1.0
C      1  0.5566470000000  0.3687590000000  0.3543910000000 1.0
C      1  0.6544250000000  0.3687590000000  0.4762530000000 1.0
C      1  0.5977780000000  0.3687590000000  0.6218630000000 1.0
C      1  0.4433530000000  0.3687590000000  0.6456090000000 1.0
C      1  0.3455750000000  0.3687590000000  0.5237470000000 1.0
C      1  0.4498490000000  0.6541360000000  0.6887260000000 1.0
C      1  0.3114820000000  0.6541360000000  0.5509310000000 1.0
C      1  0.3616340000000  0.6541360000000  0.3622040000000 1.0
C      1  0.5501510000000  0.6541360000000  0.3112740000000 1.0
C      1  0.6885180000000  0.6541360000000  0.4490690000000 1.0
C      1  0.6383660000000  0.6541360000000  0.6377960000000 1.0
C      1  0.7418640000000  0.4692970000000  0.3562590000000 1.0
C      1  0.7454150000000  0.4692970000000  0.6375900000000 1.0
C      1  0.5035510000000  0.4692970000000  0.7813300000000 1.0
C      1  0.2581360000000  0.4692970000000  0.6437410000000 1.0
C      1  0.2545850000000  0.4692970000000  0.3624100000000 1.0
C      1  0.4964490000000  0.4692970000000  0.2186700000000 1.0
C      1  0.7470190000000  0.5467710000000  0.5822220000000 1.0
C      1  0.5523030000000  0.5467710000000  0.7550360000000 1.0
C      1  0.3052840000000  0.5467710000000  0.6728140000000 1.0
C      1  0.2529810000000  0.5467710000000  0.4177780000000 1.0
C      1  0.4476970000000  0.5467710000000  0.2449640000000 1.0
C      1  0.6947160000000  0.5467710000000  0.3271860000000 1.0
C      1  0.4394340000000  0.5986360000000  0.4166430000000 1.0
C      1  0.5419070000000  0.5986360000000  0.4058700000000 1.0
C      1  0.6024720000000  0.5986360000000  0.4892270000000 1.0
C      1  0.5605660000000  0.5986360000000  0.5833570000000 1.0
C      1  0.4580930000000  0.5986360000000  0.5941300000000 1.0
C      1  0.3975280000000  0.5986360000000  0.5107730000000 1.0
END
