TITL C-986975-4297-982 0.00757663332366231 3375 -348.861713372155 0 0 60 (Cs) n - 1
REM
REM in /home/bkarasulu/work/CARBON/AIRSS/Generating-Clusters/REBO/Higher-Symm/Only-C60
REM
REM
REM
REM
REM
REM ./C.cell (a2850807a9bf4ad07a5b6933b78d9264)
REM AIRSS Version 0.9.1 bugfix July 2018 build 013d7b7c2542+ Fri, 06 Jul 2018 19:26:36 +0100
REM compiler GCC version 9.2.1 20190827 (Red Hat 9.2.1-1)
REM options -cpp -mtune=generic -march=x86-64 -g -O0 -fpre-include=/usr/include/finclude/math-vector-fortran.h
REM seed -1437090291 -330447177 -1595972257 511821898 2109864727 -1791899085 -1165538148 -1663153360 -2011523516 1154386687 557277030 -936261215 1598957470 290068319 1700442410 -2095277682 1915002805 9775458 -776358238 1383726418 -1049460311 622608930 -2038505807 -1105218724 -1507500034 863394907 2095326030 378430514 1628929323 -693975799 -1724823452 -1995818607 679608023
REM
CELL 1.54180   15.00000   15.00000   15.00000   90.00000   90.00000   90.00000
LATT -1
SFAC C  
C      1  0.5551810000000  0.4206090000000  0.4352780000000 1.0
C      1  0.5554960000000  0.5813270000000  0.5656460000000 1.0
C      1  0.5550280000000  0.5819540000000  0.4352490000000 1.0
C      1  0.5556940000000  0.4213020000000  0.5656750000000 1.0
C      1  0.4529210000000  0.6632030000000  0.5439210000000 1.0
C      1  0.4525840000000  0.3369980000000  0.4496350000000 1.0
C      1  0.4530520000000  0.3394800000000  0.5440180000000 1.0
C      1  0.4524870000000  0.6656440000000  0.4495390000000 1.0
C      1  0.6534220000000  0.3895420000000  0.3512380000000 1.0
C      1  0.6544050000000  0.6138640000000  0.6484010000000 1.0
C      1  0.6532890000000  0.6129940000000  0.3512250000000 1.0
C      1  0.6545730000000  0.3887510000000  0.6484640000000 1.0
C      1  0.3068100000000  0.3885690000000  0.3851790000000 1.0
C      1  0.3060970000000  0.6085740000000  0.6157580000000 1.0
C      1  0.3067870000000  0.6139500000000  0.3850490000000 1.0
C      1  0.3061860000000  0.3940140000000  0.6158490000000 1.0
C      1  0.5231480000000  0.7089980000000  0.4024830000000 1.0
C      1  0.5197080000000  0.2966810000000  0.5963610000000 1.0
C      1  0.5232550000000  0.2936460000000  0.4025930000000 1.0
C      1  0.5195620000000  0.7059510000000  0.5963180000000 1.0
C      1  0.5655560000000  0.4350160000000  0.3340670000000 1.0
C      1  0.5675260000000  0.5675590000000  0.6671100000000 1.0
C      1  0.5654730000000  0.5674560000000  0.3340610000000 1.0
C      1  0.5676420000000  0.4349950000000  0.6671660000000 1.0
C      1  0.2954930000000  0.5552180000000  0.6933960000000 1.0
C      1  0.2893420000000  0.4473740000000  0.3108720000000 1.0
C      1  0.2955220000000  0.4474000000000  0.6934530000000 1.0
C      1  0.2893410000000  0.5550580000000  0.3108030000000 1.0
C      1  0.7212180000000  0.5561120000000  0.3980470000000 1.0
C      1  0.7213340000000  0.4461740000000  0.6000230000000 1.0
C      1  0.7212990000000  0.4464940000000  0.3980590000000 1.0
C      1  0.7212350000000  0.5564920000000  0.6000030000000 1.0
C      1  0.3987050000000  0.5967150000000  0.4100680000000 1.0
C      1  0.3986090000000  0.4156380000000  0.5775290000000 1.0
C      1  0.3987220000000  0.4058680000000  0.4101740000000 1.0
C      1  0.3985490000000  0.5870190000000  0.5774730000000 1.0
C      1  0.2523870000000  0.6451960000000  0.4563630000000 1.0
C      1  0.2496350000000  0.3595240000000  0.5483170000000 1.0
C      1  0.2524350000000  0.3573150000000  0.4565040000000 1.0
C      1  0.2495520000000  0.6429950000000  0.5481780000000 1.0
C      1  0.6208710000000  0.6915880000000  0.6013220000000 1.0
C      1  0.6230340000000  0.3117730000000  0.3993600000000 1.0
C      1  0.6210260000000  0.3110170000000  0.6013860000000 1.0
C      1  0.6229030000000  0.6907700000000  0.3993070000000 1.0
C      1  0.7953670000000  0.3990230000000  0.4572310000000 1.0
C      1  0.7951460000000  0.6039040000000  0.5405560000000 1.0
C      1  0.7952020000000  0.6037210000000  0.4572090000000 1.0
C      1  0.7953220000000  0.3988720000000  0.5405790000000 1.0
C      1  0.4291550000000  0.5013680000000  0.6313730000000 1.0
C      1  0.4232600000000  0.5012760000000  0.3776840000000 1.0
C      1  0.4938580000000  0.5011880000000  0.2946040000000 1.0
C      1  0.4994190000000  0.5012260000000  0.7129590000000 1.0
C      1  0.3876070000000  0.5013490000000  0.7344020000000 1.0
C      1  0.3823770000000  0.5011900000000  0.2718220000000 1.0
C      1  0.6006240000000  0.6624730000000  0.5002350000000 1.0
C      1  0.6008270000000  0.3401240000000  0.5002900000000 1.0
C      1  0.7203060000000  0.5013130000000  0.4991580000000 1.0
C      1  0.3771770000000  0.5013040000000  0.5104850000000 1.0
C      1  0.5275460000000  0.5012630000000  0.5000470000000 1.0
C      1  0.3089650000000  0.5013020000000  0.4558270000000 1.0
END
