TITL C-986975-4297-672 4.95778817474539e-06 3375 -339.540848788896 0 0 60 (C1) n - 1
REM
REM in /home/bkarasulu/work/CARBON/AIRSS/Generating-Clusters/REBO/Higher-Symm/Only-C60
REM
REM
REM
REM
REM
REM ./C.cell (a2850807a9bf4ad07a5b6933b78d9264)
REM AIRSS Version 0.9.1 bugfix July 2018 build 013d7b7c2542+ Fri, 06 Jul 2018 19:26:36 +0100
REM compiler GCC version 9.2.1 20190827 (Red Hat 9.2.1-1)
REM options -cpp -mtune=generic -march=x86-64 -g -O0 -fpre-include=/usr/include/finclude/math-vector-fortran.h
REM seed -924101472 -1875702466 1569158973 -2007830618 586532534 1768229794 -1609282985 973330392 883338358 -1157245776 -1883019068 413417656 -638507868 -2008314881 887581660 -721190755 1589026077 555200488 -1571518899 765015022 -676381258 -1390981556 -1493226867 773764737 711403892 1198496442 266233249 -422797248 1284247029 302591044 1542607146 -1771442723 -806888779
REM
CELL 1.54180   15.00000   15.00000   15.00000   90.00000   90.00000   90.00000
LATT -1
SFAC C  
C      1  0.3336160000000  0.3879810000000  0.6660590000000 1.0
C      1  0.4905650000000  0.6990560000000  0.6655450000000 1.0
C      1  0.6778040000000  0.4078680000000  0.6643660000000 1.0
C      1  0.5465690000000  0.5347640000000  0.2781150000000 1.0
C      1  0.5182210000000  0.4257370000000  0.2839710000000 1.0
C      1  0.4373180000000  0.5300380000000  0.2801060000000 1.0
C      1  0.6026620000000  0.5087450000000  0.5065130000000 1.0
C      1  0.4471920000000  0.4026980000000  0.5124470000000 1.0
C      1  0.4447250000000  0.5930030000000  0.5060390000000 1.0
C      1  0.5742880000000  0.6430000000000  0.6621680000000 1.0
C      1  0.5870900000000  0.3650670000000  0.6613650000000 1.0
C      1  0.3404820000000  0.4884920000000  0.6545060000000 1.0
C      1  0.4147580000000  0.6449940000000  0.6868910000000 1.0
C      1  0.6717930000000  0.4997170000000  0.6889750000000 1.0
C      1  0.4162010000000  0.3495770000000  0.6935990000000 1.0
C      1  0.6754300000000  0.5960910000000  0.6361680000000 1.0
C      1  0.4964330000000  0.2993410000000  0.6382400000000 1.0
C      1  0.3266350000000  0.6009980000000  0.6381200000000 1.0
C      1  0.2892420000000  0.3403050000000  0.5964490000000 1.0
C      1  0.4805400000000  0.7574680000000  0.5910730000000 1.0
C      1  0.7313970000000  0.3901120000000  0.5881320000000 1.0
C      1  0.5293150000000  0.6971190000000  0.3736850000000 1.0
C      1  0.6570480000000  0.3774070000000  0.3813960000000 1.0
C      1  0.3151150000000  0.4304840000000  0.3684080000000 1.0
C      1  0.5333900000000  0.3129730000000  0.4656010000000 1.0
C      1  0.3205640000000  0.5581100000000  0.4726390000000 1.0
C      1  0.6486130000000  0.6261750000000  0.4636120000000 1.0
C      1  0.6028950000000  0.7128270000000  0.4138990000000 1.0
C      1  0.6321060000000  0.3066220000000  0.4214280000000 1.0
C      1  0.2665210000000  0.4817020000000  0.4157020000000 1.0
C      1  0.5579520000000  0.5595430000000  0.5854780000000 1.0
C      1  0.5179820000000  0.4202780000000  0.5873750000000 1.0
C      1  0.4161840000000  0.5266440000000  0.5738510000000 1.0
C      1  0.4144540000000  0.4585650000000  0.3607870000000 1.0
C      1  0.5028960000000  0.6015930000000  0.3704710000000 1.0
C      1  0.5839890000000  0.4496830000000  0.3729060000000 1.0
C      1  0.5489380000000  0.6317460000000  0.5049120000000 1.0
C      1  0.5863260000000  0.3992800000000  0.5056000000000 1.0
C      1  0.3525390000000  0.4611300000000  0.5153000000000 1.0
C      1  0.6927390000000  0.4115560000000  0.5050520000000 1.0
C      1  0.3206780000000  0.3621370000000  0.5098520000000 1.0
C      1  0.4868130000000  0.7186700000000  0.5050930000000 1.0
C      1  0.4143290000000  0.5567780000000  0.4081930000000 1.0
C      1  0.5855420000000  0.5496470000000  0.4066600000000 1.0
C      1  0.4911750000000  0.4054000000000  0.4125220000000 1.0
C      1  0.4135450000000  0.3125350000000  0.3571850000000 1.0
C      1  0.3869140000000  0.6753260000000  0.3542410000000 1.0
C      1  0.7057210000000  0.5219610000000  0.3566780000000 1.0
C      1  0.4355610000000  0.5433630000000  0.6828080000000 1.0
C      1  0.5747640000000  0.5340110000000  0.6930860000000 1.0
C      1  0.4934170000000  0.4172370000000  0.6964660000000 1.0
C      1  0.3016450000000  0.6215380000000  0.5516540000000 1.0
C      1  0.7048890000000  0.6104010000000  0.5502550000000 1.0
C      1  0.4927260000000  0.2688620000000  0.5513670000000 1.0
C      1  0.4124760000000  0.6850540000000  0.4437300000000 1.0
C      1  0.7001640000000  0.4945550000000  0.4460460000000 1.0
C      1  0.3915460000000  0.3243390000000  0.4475360000000 1.0
C      1  0.4629030000000  0.3550340000000  0.2923840000000 1.0
C      1  0.3951460000000  0.6117910000000  0.2883450000000 1.0
C      1  0.6475210000000  0.5428750000000  0.2889520000000 1.0
END
