TITL C-986976-6631-195 -2.10580135507898e-06 3375 -333.829820412605 0 0 60 (C1) n - 1
REM
REM in /home/bkarasulu/work/CARBON/AIRSS/Generating-Clusters/REBO/Higher-Symm/Only-C60
REM
REM
REM
REM
REM
REM ./C.cell (a2850807a9bf4ad07a5b6933b78d9264)
REM AIRSS Version 0.9.1 bugfix July 2018 build 013d7b7c2542+ Fri, 06 Jul 2018 19:26:36 +0100
REM compiler GCC version 9.2.1 20190827 (Red Hat 9.2.1-1)
REM options -cpp -mtune=generic -march=x86-64 -g -O0 -fpre-include=/usr/include/finclude/math-vector-fortran.h
REM seed -831425098 2061203323 -1789607211 -2115513822 -860834604 -1194481 -1330152067 1196702602 884887346 -1720806063 -385416631 1274287030 -636969938 -171609958 1835138960 -923656066 -285456565 1918956654 91009836 345539283 295211607 -1860453148 1997827690 -2130986851 29110881 1589371584 -466529151 -1895078581 -320762466 -141524123 -1977587951 -382306589 677447930
REM
CELL 1.54180   15.00000   15.00000   15.00000   90.00000   90.00000   90.00000
LATT -1
SFAC C  
C      1  0.4217850000000  0.3636350000000  0.4615890000000 1.0
C      1  0.5756160000000  0.6375510000000  0.4647980000000 1.0
C      1  0.3614290000000  0.4216970000000  0.5392960000000 1.0
C      1  0.6324560000000  0.5790130000000  0.5447980000000 1.0
C      1  0.6464320000000  0.3379980000000  0.4163500000000 1.0
C      1  0.3514010000000  0.6617240000000  0.4100270000000 1.0
C      1  0.4432630000000  0.4888270000000  0.4964650000000 1.0
C      1  0.5521090000000  0.5126130000000  0.4980810000000 1.0
C      1  0.5611360000000  0.7102710000000  0.3540890000000 1.0
C      1  0.4400020000000  0.2902280000000  0.3518140000000 1.0
C      1  0.3257000000000  0.5857390000000  0.5958820000000 1.0
C      1  0.6652360000000  0.4136840000000  0.6027020000000 1.0
C      1  0.4033290000000  0.5987570000000  0.3678960000000 1.0
C      1  0.5968200000000  0.4012280000000  0.3720010000000 1.0
C      1  0.5136850000000  0.7291260000000  0.4554250000000 1.0
C      1  0.4831910000000  0.2711990000000  0.4549600000000 1.0
C      1  0.6412690000000  0.6480350000000  0.3503020000000 1.0
C      1  0.3601790000000  0.3520550000000  0.3449290000000 1.0
C      1  0.6308720000000  0.3011570000000  0.5428110000000 1.0
C      1  0.3618360000000  0.6984470000000  0.5370140000000 1.0
C      1  0.5193890000000  0.5457480000000  0.2869440000000 1.0
C      1  0.4842240000000  0.4546170000000  0.2860570000000 1.0
C      1  0.4448740000000  0.5561260000000  0.7731720000000 1.0
C      1  0.5880020000000  0.4472320000000  0.7728770000000 1.0
C      1  0.6111420000000  0.5249730000000  0.7495880000000 1.0
C      1  0.4564830000000  0.4658570000000  0.7622730000000 1.0
C      1  0.2872620000000  0.5207620000000  0.4348670000000 1.0
C      1  0.7100880000000  0.4788400000000  0.4437340000000 1.0
C      1  0.5025960000000  0.5784900000000  0.5747960000000 1.0
C      1  0.4903610000000  0.4218020000000  0.5729390000000 1.0
C      1  0.2570250000000  0.4336650000000  0.4573340000000 1.0
C      1  0.7398320000000  0.5659730000000  0.4669560000000 1.0
C      1  0.4970660000000  0.6874980000000  0.5599490000000 1.0
C      1  0.4961070000000  0.3131500000000  0.5598360000000 1.0
C      1  0.6473960000000  0.4815420000000  0.3704790000000 1.0
C      1  0.3529080000000  0.5183320000000  0.3643030000000 1.0
C      1  0.3110740000000  0.3587530000000  0.4337650000000 1.0
C      1  0.6872300000000  0.6412150000000  0.4409950000000 1.0
C      1  0.6185470000000  0.5574290000000  0.3224140000000 1.0
C      1  0.3836930000000  0.4425370000000  0.3174400000000 1.0
C      1  0.7019190000000  0.5149280000000  0.5911580000000 1.0
C      1  0.2903360000000  0.4849110000000  0.5834210000000 1.0
C      1  0.4303730000000  0.4382500000000  0.6621550000000 1.0
C      1  0.5646200000000  0.5648720000000  0.6655290000000 1.0
C      1  0.4123560000000  0.7547390000000  0.4826680000000 1.0
C      1  0.5830410000000  0.2445650000000  0.4863510000000 1.0
C      1  0.2949820000000  0.6167070000000  0.4947460000000 1.0
C      1  0.6996080000000  0.3827350000000  0.5030250000000 1.0
C      1  0.5101960000000  0.5937550000000  0.3910350000000 1.0
C      1  0.4893730000000  0.4068970000000  0.3904270000000 1.0
C      1  0.5093090000000  0.3441790000000  0.2941660000000 1.0
C      1  0.4939230000000  0.6561540000000  0.2939850000000 1.0
C      1  0.5793650000000  0.3432550000000  0.6323370000000 1.0
C      1  0.4097620000000  0.6570530000000  0.6276650000000 1.0
C      1  0.5238520000000  0.3903520000000  0.7075390000000 1.0
C      1  0.4702080000000  0.6086240000000  0.7004660000000 1.0
C      1  0.5770720000000  0.4724980000000  0.6018550000000 1.0
C      1  0.4146560000000  0.5271800000000  0.6002500000000 1.0
C      1  0.3965390000000  0.3293670000000  0.5875240000000 1.0
C      1  0.5954660000000  0.6714510000000  0.5917480000000 1.0
END
