TITL C-986976-6631-784 0.294895447617727 3375 -316.899047883583 0 0 60 (Ci) n - 1
REM
REM in /home/bkarasulu/work/CARBON/AIRSS/Generating-Clusters/REBO/Higher-Symm/Only-C60
REM
REM
REM
REM
REM
REM ./C.cell (a2850807a9bf4ad07a5b6933b78d9264)
REM AIRSS Version 0.9.1 bugfix July 2018 build 013d7b7c2542+ Fri, 06 Jul 2018 19:26:36 +0100
REM compiler GCC version 9.2.1 20190827 (Red Hat 9.2.1-1)
REM options -cpp -mtune=generic -march=x86-64 -g -O0 -fpre-include=/usr/include/finclude/math-vector-fortran.h
REM seed 1315972489 -963195162 -2046833569 502370499 95840768 -2050693442 -1352639980 1485123732 1643082476 -284366457 -1318672935 2096959901 1859573517 178202837 105734044 -192260746 -899690387 2134047512 1361537456 -360593804 1893284558 -1555965766 -602817008 -2049286672 707571397 -1512874908 -1616229340 92306121 -664053824 2025086700 -1560663372 -1542903098 -1237763074
REM
CELL 1.54180   15.00000   15.00000   15.00000   90.00000   90.00000   90.00000
LATT -1
SFAC C  
C      1  0.5498930000000  0.6699280000000  0.4892560000000 1.0
C      1  0.5501720000000  0.3253990000000  0.5111570000000 1.0
C      1  0.4494520000000  0.6727500000000  0.4893040000000 1.0
C      1  0.4497820000000  0.3317270000000  0.5105520000000 1.0
C      1  0.6055850000000  0.6616600000000  0.3976180000000 1.0
C      1  0.6061680000000  0.3378540000000  0.6023380000000 1.0
C      1  0.3930520000000  0.6617470000000  0.3981790000000 1.0
C      1  0.3934530000000  0.3388220000000  0.6019760000000 1.0
C      1  0.2471970000000  0.4299990000000  0.6160020000000 1.0
C      1  0.2469960000000  0.5704610000000  0.3848530000000 1.0
C      1  0.7520350000000  0.4292380000000  0.6161580000000 1.0
C      1  0.7511220000000  0.5701960000000  0.3818250000000 1.0
C      1  0.5415090000000  0.6631940000000  0.6958350000000 1.0
C      1  0.5426160000000  0.3371620000000  0.3030980000000 1.0
C      1  0.4579780000000  0.6629290000000  0.6962840000000 1.0
C      1  0.4591100000000  0.3369180000000  0.3046570000000 1.0
C      1  0.4617030000000  0.4483500000000  0.3779340000000 1.0
C      1  0.4508620000000  0.5503930000000  0.6256300000000 1.0
C      1  0.5545060000000  0.4496890000000  0.3735310000000 1.0
C      1  0.5437110000000  0.5508740000000  0.6240970000000 1.0
C      1  0.4432780000000  0.3999160000000  0.6835880000000 1.0
C      1  0.4430540000000  0.6012990000000  0.3170440000000 1.0
C      1  0.5565290000000  0.3993790000000  0.6834700000000 1.0
C      1  0.5563630000000  0.6000190000000  0.3158190000000 1.0
C      1  0.5591250000000  0.5642450000000  0.5219760000000 1.0
C      1  0.5530590000000  0.4320420000000  0.4786190000000 1.0
C      1  0.4437780000000  0.5661460000000  0.5214160000000 1.0
C      1  0.4384160000000  0.4370300000000  0.4773750000000 1.0
C      1  0.6602380000000  0.6452750000000  0.4963430000000 1.0
C      1  0.6586370000000  0.3553340000000  0.5026860000000 1.0
C      1  0.3402130000000  0.6449040000000  0.4977930000000 1.0
C      1  0.3387640000000  0.3541530000000  0.5030930000000 1.0
C      1  0.3283980000000  0.3884800000000  0.6718240000000 1.0
C      1  0.3281250000000  0.6113810000000  0.3283920000000 1.0
C      1  0.6713000000000  0.3866960000000  0.6725920000000 1.0
C      1  0.6708190000000  0.6155680000000  0.3261340000000 1.0
C      1  0.6644930000000  0.5390790000000  0.5360670000000 1.0
C      1  0.6603880000000  0.4611240000000  0.4623260000000 1.0
C      1  0.3373170000000  0.5388680000000  0.5375300000000 1.0
C      1  0.3340550000000  0.4608780000000  0.4641360000000 1.0
C      1  0.2423660000000  0.3916430000000  0.5312800000000 1.0
C      1  0.2438160000000  0.6072190000000  0.4703240000000 1.0
C      1  0.7552650000000  0.3927430000000  0.5303820000000 1.0
C      1  0.7562580000000  0.6070790000000  0.4675450000000 1.0
C      1  0.6850250000000  0.4804920000000  0.3602970000000 1.0
C      1  0.6866000000000  0.5187400000000  0.6397790000000 1.0
C      1  0.3128830000000  0.4818220000000  0.3596240000000 1.0
C      1  0.3143440000000  0.5180010000000  0.6407930000000 1.0
C      1  0.5527880000000  0.5053670000000  0.2525630000000 1.0
C      1  0.5506810000000  0.4945870000000  0.7452380000000 1.0
C      1  0.4509980000000  0.5061220000000  0.2557400000000 1.0
C      1  0.4489610000000  0.4945560000000  0.7464550000000 1.0
C      1  0.6570360000000  0.4678180000000  0.7383870000000 1.0
C      1  0.6584910000000  0.5331590000000  0.2618220000000 1.0
C      1  0.3428930000000  0.4672920000000  0.7399090000000 1.0
C      1  0.3440630000000  0.5317750000000  0.2610200000000 1.0
C      1  0.6115360000000  0.5802310000000  0.7002510000000 1.0
C      1  0.6147550000000  0.4184410000000  0.2941340000000 1.0
C      1  0.3871140000000  0.5807430000000  0.7033520000000 1.0
C      1  0.3908780000000  0.4210650000000  0.3025970000000 1.0
END
