TITL C-986976-6631-1014 0.115843341529466 3375 -332.971959701879 0 0 60 (Cs) n - 1
REM
REM in /home/bkarasulu/work/CARBON/AIRSS/Generating-Clusters/REBO/Higher-Symm/Only-C60
REM
REM
REM
REM
REM
REM ./C.cell (a2850807a9bf4ad07a5b6933b78d9264)
REM AIRSS Version 0.9.1 bugfix July 2018 build 013d7b7c2542+ Fri, 06 Jul 2018 19:26:36 +0100
REM compiler GCC version 9.2.1 20190827 (Red Hat 9.2.1-1)
REM options -cpp -mtune=generic -march=x86-64 -g -O0 -fpre-include=/usr/include/finclude/math-vector-fortran.h
REM seed 1714517517 17053806 741422193 1327391830 -951889025 568176476 1706388339 -267916197 -1910643586 -1473730772 1893378416 746532499 1447867215 -986016485 695094607 -123797105 59610011 -1083135201 -1064093191 503539059 1688626273 1571519013 1965669971 701778722 -120144581 -1894542495 1264991544 989304431 -1999143857 -905672688 331476914 -1149580754 557626660
REM
CELL 1.54180   15.00000   15.00000   15.00000   90.00000   90.00000   90.00000
LATT -1
SFAC C  
C      1  0.2905900000000  0.4264930000000  0.4171790000000 1.0
C      1  0.7082540000000  0.4281430000000  0.5883400000000 1.0
C      1  0.2929580000000  0.4281170000000  0.5883410000000 1.0
C      1  0.7106580000000  0.4264960000000  0.4171780000000 1.0
C      1  0.4553670000000  0.3181240000000  0.3807400000000 1.0
C      1  0.5464260000000  0.3142980000000  0.6271820000000 1.0
C      1  0.4548070000000  0.3142870000000  0.6271800000000 1.0
C      1  0.5458460000000  0.3181280000000  0.3807440000000 1.0
C      1  0.4545830000000  0.7121960000000  0.6446900000000 1.0
C      1  0.5464940000000  0.7098020000000  0.3598940000000 1.0
C      1  0.4546720000000  0.7098220000000  0.3598990000000 1.0
C      1  0.5466210000000  0.7121930000000  0.6447090000000 1.0
C      1  0.4010950000000  0.6262190000000  0.3646580000000 1.0
C      1  0.5993220000000  0.6278360000000  0.6412650000000 1.0
C      1  0.4018730000000  0.6278430000000  0.6412120000000 1.0
C      1  0.6000890000000  0.6262040000000  0.3646180000000 1.0
C      1  0.6209030000000  0.3280620000000  0.4575470000000 1.0
C      1  0.3798170000000  0.3281360000000  0.5481870000000 1.0
C      1  0.6214300000000  0.3281280000000  0.5481850000000 1.0
C      1  0.3803400000000  0.3280560000000  0.4575550000000 1.0
C      1  0.6408550000000  0.3739230000000  0.3543150000000 1.0
C      1  0.3594470000000  0.3708530000000  0.6523290000000 1.0
C      1  0.6417770000000  0.3708340000000  0.6523120000000 1.0
C      1  0.3603820000000  0.3739440000000  0.3543030000000 1.0
C      1  0.6545450000000  0.5542110000000  0.3406790000000 1.0
C      1  0.3498060000000  0.5538860000000  0.6638650000000 1.0
C      1  0.6514220000000  0.5538920000000  0.6638800000000 1.0
C      1  0.3466740000000  0.5542140000000  0.3406710000000 1.0
C      1  0.2875480000000  0.5280120000000  0.4095940000000 1.0
C      1  0.7117840000000  0.5284010000000  0.5957220000000 1.0
C      1  0.2894230000000  0.5283890000000  0.5957320000000 1.0
C      1  0.7136720000000  0.5280310000000  0.4096090000000 1.0
C      1  0.4594250000000  0.4518660000000  0.3959320000000 1.0
C      1  0.5522490000000  0.4487280000000  0.5940100000000 1.0
C      1  0.4490030000000  0.4487200000000  0.5940410000000 1.0
C      1  0.5418230000000  0.4518530000000  0.3959450000000 1.0
C      1  0.4036580000000  0.4666540000000  0.6907960000000 1.0
C      1  0.6055540000000  0.4670860000000  0.3069240000000 1.0
C      1  0.3957090000000  0.4671120000000  0.3069080000000 1.0
C      1  0.5975980000000  0.4666410000000  0.6907720000000 1.0
C      1  0.3070930000000  0.5849730000000  0.5028410000000 1.0
C      1  0.6941390000000  0.5849890000000  0.5028580000000 1.0
C      1  0.5006070000000  0.5947760000000  0.6016480000000 1.0
C      1  0.5005970000000  0.5925070000000  0.4058200000000 1.0
C      1  0.5924800000000  0.6379690000000  0.5015890000000 1.0
C      1  0.4087510000000  0.6379600000000  0.5015810000000 1.0
C      1  0.6014800000000  0.5232840000000  0.4960880000000 1.0
C      1  0.3997600000000  0.5232760000000  0.4961270000000 1.0
C      1  0.6672160000000  0.4445330000000  0.5022270000000 1.0
C      1  0.3340060000000  0.4445490000000  0.5022320000000 1.0
C      1  0.5006600000000  0.4825030000000  0.7380160000000 1.0
C      1  0.5006670000000  0.4800590000000  0.2705550000000 1.0
C      1  0.5005740000000  0.5776450000000  0.7139450000000 1.0
C      1  0.5005710000000  0.5752910000000  0.2936660000000 1.0
C      1  0.5006130000000  0.7744850000000  0.5025760000000 1.0
C      1  0.5006210000000  0.5436660000000  0.5083930000000 1.0
C      1  0.5005330000000  0.2944730000000  0.5040190000000 1.0
C      1  0.5006130000000  0.3846120000000  0.5238500000000 1.0
C      1  0.5006160000000  0.6829330000000  0.5024550000000 1.0
C      1  0.5005180000000  0.2076550000000  0.4954110000000 1.0
END
