TITL C-986979-5873-1062 -2.36344328928026e-06 3375 -360.692941836545 0 0 60 (C1) n - 1
REM
REM in /home/bkarasulu/work/CARBON/AIRSS/Generating-Clusters/REBO/Higher-Symm/Only-C60
REM
REM
REM
REM
REM
REM ./C.cell (a2850807a9bf4ad07a5b6933b78d9264)
REM AIRSS Version 0.9.1 bugfix July 2018 build 013d7b7c2542+ Fri, 06 Jul 2018 19:26:36 +0100
REM compiler GCC version 9.2.1 20190827 (Red Hat 9.2.1-1)
REM options -cpp -mtune=generic -march=x86-64 -g -O0 -fpre-include=/usr/include/finclude/math-vector-fortran.h
REM seed 1741170097 -1651272067 -378538933 854747279 -46075522 1282360215 -897481447 -344807518 344835915 -537544005 2039437901 394941044 -1267326550 1087548390 -1604260720 -1650367323 -1134746091 -886105286 -1463279716 -1085398501 -584281927 776623676 -2106822234 1721705050 1801613593 382325203 -1106303983 -1317844096 290776113 -1024120733 -52018536 1777768970 -781588024
REM
CELL 1.54180   15.00000   15.00000   15.00000   90.00000   90.00000   90.00000
LATT -1
SFAC C  
C      1  0.3157430000000  0.6805540000000  0.5746030000000 1.0
C      1  0.3152800000000  0.4848360000000  0.6930770000000 1.0
C      1  0.3179950000000  0.3121750000000  0.5413980000000 1.0
C      1  0.3118690000000  0.3974490000000  0.3364320000000 1.0
C      1  0.3141110000000  0.6281570000000  0.3534670000000 1.0
C      1  0.6074670000000  0.5162190000000  0.2954970000000 1.0
C      1  0.6085400000000  0.6989180000000  0.4537800000000 1.0
C      1  0.6082420000000  0.6048100000000  0.6757670000000 1.0
C      1  0.6089890000000  0.3652120000000  0.6559200000000 1.0
C      1  0.6093500000000  0.3103300000000  0.4214100000000 1.0
C      1  0.4688360000000  0.7200550000000  0.6136750000000 1.0
C      1  0.4676660000000  0.4597270000000  0.7442050000000 1.0
C      1  0.4700130000000  0.2553380000000  0.5373220000000 1.0
C      1  0.4613920000000  0.3919980000000  0.2780600000000 1.0
C      1  0.4678070000000  0.6754180000000  0.3253790000000 1.0
C      1  0.3378720000000  0.5976910000000  0.5002090000000 1.0
C      1  0.3382390000000  0.5305370000000  0.5917290000000 1.0
C      1  0.3390750000000  0.4226660000000  0.5564820000000 1.0
C      1  0.3404220000000  0.4232960000000  0.4430630000000 1.0
C      1  0.3370000000000  0.5312520000000  0.4081640000000 1.0
C      1  0.6967310000000  0.3439800000000  0.4317900000000 1.0
C      1  0.6903750000000  0.5174300000000  0.3331080000000 1.0
C      1  0.6923120000000  0.6656470000000  0.4658430000000 1.0
C      1  0.6923960000000  0.5837900000000  0.6484410000000 1.0
C      1  0.6927870000000  0.3856430000000  0.6267360000000 1.0
C      1  0.3801700000000  0.6917950000000  0.3712840000000 1.0
C      1  0.3804720000000  0.6820410000000  0.6418380000000 1.0
C      1  0.3796150000000  0.4211860000000  0.7158100000000 1.0
C      1  0.3840860000000  0.2723540000000  0.4889450000000 1.0
C      1  0.3775470000000  0.4368610000000  0.2769570000000 1.0
C      1  0.7308610000000  0.5409980000000  0.5736710000000 1.0
C      1  0.7313930000000  0.4436150000000  0.5629320000000 1.0
C      1  0.7320680000000  0.4239840000000  0.4669970000000 1.0
C      1  0.7299700000000  0.5089550000000  0.4183710000000 1.0
C      1  0.7303060000000  0.5813530000000  0.4843580000000 1.0
C      1  0.3839810000000  0.5272970000000  0.3046380000000 1.0
C      1  0.3882280000000  0.6934350000000  0.4647800000000 1.0
C      1  0.3875870000000  0.5936440000000  0.6725360000000 1.0
C      1  0.3873000000000  0.3642990000000  0.6413800000000 1.0
C      1  0.3942180000000  0.3273900000000  0.4130920000000 1.0
C      1  0.5516860000000  0.3205400000000  0.5015490000000 1.0
C      1  0.5478410000000  0.4408530000000  0.3261080000000 1.0
C      1  0.5491170000000  0.6442280000000  0.3947450000000 1.0
C      1  0.5490930000000  0.6432600000000  0.6049160000000 1.0
C      1  0.5489280000000  0.4439320000000  0.6698140000000 1.0
C      1  0.5220560000000  0.5634460000000  0.4514510000000 1.0
C      1  0.5217930000000  0.5640740000000  0.5462440000000 1.0
C      1  0.5222060000000  0.4742620000000  0.5759580000000 1.0
C      1  0.5231910000000  0.4183320000000  0.4996750000000 1.0
C      1  0.5225290000000  0.4731150000000  0.4222590000000 1.0
C      1  0.5561170000000  0.7275440000000  0.5335810000000 1.0
C      1  0.5553510000000  0.5379960000000  0.7275940000000 1.0
C      1  0.5565000000000  0.2946730000000  0.6085760000000 1.0
C      1  0.5598430000000  0.3325590000000  0.3444850000000 1.0
C      1  0.5542750000000  0.6006410000000  0.2931910000000 1.0
C      1  0.4571880000000  0.3140890000000  0.3438840000000 1.0
C      1  0.4471270000000  0.5855330000000  0.2672160000000 1.0
C      1  0.4495120000000  0.7477870000000  0.5099360000000 1.0
C      1  0.4485540000000  0.5670380000000  0.7383740000000 1.0
C      1  0.4487800000000  0.2937650000000  0.6372960000000 1.0
END
