TITL C-986979-5873-1191 -1.38148175976035e-06 3375 -331.070326347291 0 0 60 (C6) n - 1
REM
REM in /home/bkarasulu/work/CARBON/AIRSS/Generating-Clusters/REBO/Higher-Symm/Only-C60
REM
REM
REM
REM
REM
REM ./C.cell (a2850807a9bf4ad07a5b6933b78d9264)
REM AIRSS Version 0.9.1 bugfix July 2018 build 013d7b7c2542+ Fri, 06 Jul 2018 19:26:36 +0100
REM compiler GCC version 9.2.1 20190827 (Red Hat 9.2.1-1)
REM options -cpp -mtune=generic -march=x86-64 -g -O0 -fpre-include=/usr/include/finclude/math-vector-fortran.h
REM seed -1534355876 1152275978 -1318400961 176127235 1438931027 -785657241 294706415 -991509209 -1363024400 190926803 -1530094235 1590646685 488807353 924905242 2076886375 1860647524 146419255 -458525207 -2048899227 1947236971 -382522021 -1505669882 1861174114 -1367000037 346343309 2020922208 -905653098 -1920574073 1224701753 -722240558 -566062836 813853287 -1813684442
REM
CELL 1.54180   15.00000   15.00000   15.00000   90.00000   90.00000   90.00000
LATT -1
SFAC C  
C      1  0.3633100000000  0.3471090000000  0.6327050000000 1.0
C      1  0.3167290000000  0.3471100000000  0.4479760000000 1.0
C      1  0.4534190000000  0.3471090000000  0.3152710000000 1.0
C      1  0.6366900000000  0.3471090000000  0.3672950000000 1.0
C      1  0.6832710000000  0.3471100000000  0.5520240000000 1.0
C      1  0.5465810000000  0.3471090000000  0.6847290000000 1.0
C      1  0.6366900000000  0.6528910000000  0.6327050000000 1.0
C      1  0.6832710000000  0.6528900000000  0.4479760000000 1.0
C      1  0.5465810000000  0.6528910000000  0.3152710000000 1.0
C      1  0.3633100000000  0.6528910000000  0.3672950000000 1.0
C      1  0.3167290000000  0.6528900000000  0.5520240000000 1.0
C      1  0.4534190000000  0.6528910000000  0.6847290000000 1.0
C      1  0.6906690000000  0.5868260000000  0.3689470000000 1.0
C      1  0.7088280000000  0.5868230000000  0.5995980000000 1.0
C      1  0.5181610000000  0.5868240000000  0.7306490000000 1.0
C      1  0.3093310000000  0.5868260000000  0.6310530000000 1.0
C      1  0.2911720000000  0.5868230000000  0.4004020000000 1.0
C      1  0.4818390000000  0.5868240000000  0.2693510000000 1.0
C      1  0.3093310000000  0.4131740000000  0.3689470000000 1.0
C      1  0.2911720000000  0.4131770000000  0.5995980000000 1.0
C      1  0.4818390000000  0.4131760000000  0.7306490000000 1.0
C      1  0.6906690000000  0.4131740000000  0.6310530000000 1.0
C      1  0.7088280000000  0.4131770000000  0.4004020000000 1.0
C      1  0.5181610000000  0.4131760000000  0.2693510000000 1.0
C      1  0.5834920000000  0.5531100000000  0.5663950000000 1.0
C      1  0.4842450000000  0.5531080000000  0.6055060000000 1.0
C      1  0.4007520000000  0.5531080000000  0.5391100000000 1.0
C      1  0.4165080000000  0.5531100000000  0.4336050000000 1.0
C      1  0.5157550000000  0.5531080000000  0.3944940000000 1.0
C      1  0.5992480000000  0.5531080000000  0.4608900000000 1.0
C      1  0.4165080000000  0.4468900000000  0.5663950000000 1.0
C      1  0.5157550000000  0.4468920000000  0.6055060000000 1.0
C      1  0.5992480000000  0.4468920000000  0.5391100000000 1.0
C      1  0.5834920000000  0.4468900000000  0.4336050000000 1.0
C      1  0.4842450000000  0.4468920000000  0.3944940000000 1.0
C      1  0.4007520000000  0.4468920000000  0.4608900000000 1.0
C      1  0.5306090000000  0.3133380000000  0.3918940000000 1.0
C      1  0.6089270000000  0.3133380000000  0.4724560000000 1.0
C      1  0.5783180000000  0.3133390000000  0.5805610000000 1.0
C      1  0.4693910000000  0.3133380000000  0.6081060000000 1.0
C      1  0.3910730000000  0.3133380000000  0.5275440000000 1.0
C      1  0.4216820000000  0.3133390000000  0.4194390000000 1.0
C      1  0.4693910000000  0.6866620000000  0.3918940000000 1.0
C      1  0.3910730000000  0.6866620000000  0.4724560000000 1.0
C      1  0.4216820000000  0.6866610000000  0.5805610000000 1.0
C      1  0.5306090000000  0.6866620000000  0.6081060000000 1.0
C      1  0.6089270000000  0.6866620000000  0.5275440000000 1.0
C      1  0.5783180000000  0.6866610000000  0.4194390000000 1.0
C      1  0.7026850000000  0.4434910000000  0.4928590000000 1.0
C      1  0.6075270000000  0.4434910000000  0.6719610000000 1.0
C      1  0.4048410000000  0.4434920000000  0.6791000000000 1.0
C      1  0.2973150000000  0.4434910000000  0.5071410000000 1.0
C      1  0.3924730000000  0.4434910000000  0.3280390000000 1.0
C      1  0.5951590000000  0.4434920000000  0.3209000000000 1.0
C      1  0.2973150000000  0.5565090000000  0.4928590000000 1.0
C      1  0.3924730000000  0.5565090000000  0.6719610000000 1.0
C      1  0.5951590000000  0.5565080000000  0.6791000000000 1.0
C      1  0.7026850000000  0.5565090000000  0.5071410000000 1.0
C      1  0.6075270000000  0.5565090000000  0.3280390000000 1.0
C      1  0.4048410000000  0.5565080000000  0.3209000000000 1.0
END
