TITL C-986979-5873-379 -1.87018641936518e-06 3375 -361.838574712612 0 0 60 (T23) n - 1
REM
REM in /home/bkarasulu/work/CARBON/AIRSS/Generating-Clusters/REBO/Higher-Symm/Only-C60
REM
REM
REM
REM
REM
REM ./C.cell (a2850807a9bf4ad07a5b6933b78d9264)
REM AIRSS Version 0.9.1 bugfix July 2018 build 013d7b7c2542+ Fri, 06 Jul 2018 19:26:36 +0100
REM compiler GCC version 9.2.1 20190827 (Red Hat 9.2.1-1)
REM options -cpp -mtune=generic -march=x86-64 -g -O0 -fpre-include=/usr/include/finclude/math-vector-fortran.h
REM seed 1996522752 -1023322398 1926287324 -1422114772 1744788021 -1113023881 1711194399 484551133 1906720033 -497365998 -1907781615 -878376449 -1430529934 -723753789 570133352 2028857568 -1369338389 -412760878 -1388706505 -1052784743 -1492867747 -1142044061 910861612 780607963 1871566786 84917110 -569319979 2054771892 488997829 -296514973 1825875207 778237396 1456428892
REM
CELL 1.54180   15.00000   15.00000   15.00000   90.00000   90.00000   90.00000
LATT -1
SFAC C  
C      1  0.6907510000000  0.4480760000000  0.3652220000000 1.0
C      1  0.4480780000000  0.3652240000000  0.6907530000000 1.0
C      1  0.3652220000000  0.6907510000000  0.4480750000000 1.0
C      1  0.6907520000000  0.5519230000000  0.6347780000000 1.0
C      1  0.3092490000000  0.4480810000000  0.6347790000000 1.0
C      1  0.3092480000000  0.5519210000000  0.3652200000000 1.0
C      1  0.4480780000000  0.6347770000000  0.3092470000000 1.0
C      1  0.5519210000000  0.3652190000000  0.3092510000000 1.0
C      1  0.5519230000000  0.6347810000000  0.6907490000000 1.0
C      1  0.3652200000000  0.3092500000000  0.5519250000000 1.0
C      1  0.6347800000000  0.6907500000000  0.5519190000000 1.0
C      1  0.6347780000000  0.3092480000000  0.4480810000000 1.0
C      1  0.7004240000000  0.3835360000000  0.4324300000000 1.0
C      1  0.4324290000000  0.7004230000000  0.3835350000000 1.0
C      1  0.3835370000000  0.4324320000000  0.7004250000000 1.0
C      1  0.7004250000000  0.6164620000000  0.5675690000000 1.0
C      1  0.2995750000000  0.6164630000000  0.4324270000000 1.0
C      1  0.2995750000000  0.3835390000000  0.5675730000000 1.0
C      1  0.4324280000000  0.2995770000000  0.6164660000000 1.0
C      1  0.5675700000000  0.2995740000000  0.3835400000000 1.0
C      1  0.5675720000000  0.7004250000000  0.6164590000000 1.0
C      1  0.3835370000000  0.5675690000000  0.2995750000000 1.0
C      1  0.6164630000000  0.5675730000000  0.7004230000000 1.0
C      1  0.6164620000000  0.4324260000000  0.2995770000000 1.0
C      1  0.5460020000000  0.7053490000000  0.3652500000000 1.0
C      1  0.7053510000000  0.3652530000000  0.5460040000000 1.0
C      1  0.3652540000000  0.5460050000000  0.7053500000000 1.0
C      1  0.5460010000000  0.2946510000000  0.6347500000000 1.0
C      1  0.4539990000000  0.7053520000000  0.6347440000000 1.0
C      1  0.4539970000000  0.2946480000000  0.3652560000000 1.0
C      1  0.7053520000000  0.6347450000000  0.4539960000000 1.0
C      1  0.2946490000000  0.3652540000000  0.4540000000000 1.0
C      1  0.2946500000000  0.6347490000000  0.5460000000000 1.0
C      1  0.3652520000000  0.4539960000000  0.2946500000000 1.0
C      1  0.6347470000000  0.5459990000000  0.2946490000000 1.0
C      1  0.6347470000000  0.4540000000000  0.7053510000000 1.0
C      1  0.5604820000000  0.3673380000000  0.7099140000000 1.0
C      1  0.7099130000000  0.5604790000000  0.3673340000000 1.0
C      1  0.3673360000000  0.7099140000000  0.5604790000000 1.0
C      1  0.5604820000000  0.6326620000000  0.2900860000000 1.0
C      1  0.4395190000000  0.6326680000000  0.7099110000000 1.0
C      1  0.4395170000000  0.3673330000000  0.2900900000000 1.0
C      1  0.7099130000000  0.4395190000000  0.6326660000000 1.0
C      1  0.2900870000000  0.4395170000000  0.3673360000000 1.0
C      1  0.2900880000000  0.5604850000000  0.6326640000000 1.0
C      1  0.3673340000000  0.2900870000000  0.4395210000000 1.0
C      1  0.6326640000000  0.2900880000000  0.5604850000000 1.0
C      1  0.6326660000000  0.7099100000000  0.4395150000000 1.0
C      1  0.5270410000000  0.5299580000000  0.2887420000000 1.0
C      1  0.4700400000000  0.7112570000000  0.5270380000000 1.0
C      1  0.5299600000000  0.2887430000000  0.5270440000000 1.0
C      1  0.7112580000000  0.5270400000000  0.4700390000000 1.0
C      1  0.7112580000000  0.4729580000000  0.5299610000000 1.0
C      1  0.4729580000000  0.4700370000000  0.2887430000000 1.0
C      1  0.4700380000000  0.2887420000000  0.4729620000000 1.0
C      1  0.2887420000000  0.4729590000000  0.4700400000000 1.0
C      1  0.4729590000000  0.5299640000000  0.7112570000000 1.0
C      1  0.5270420000000  0.4700420000000  0.7112580000000 1.0
C      1  0.5299620000000  0.7112560000000  0.4729560000000 1.0
C      1  0.2887430000000  0.5270430000000  0.5299600000000 1.0
END
