TITL C-986973-6940-454 1.40940975854167e-06 3375 -363.447102016009 0 0 60 (C2) n - 1
REM
REM in /home/bkarasulu/work/CARBON/AIRSS/Generating-Clusters/REBO/Higher-Symm/Only-C60
REM
REM
REM
REM
REM
REM ./C.cell (a2850807a9bf4ad07a5b6933b78d9264)
REM AIRSS Version 0.9.1 bugfix July 2018 build 013d7b7c2542+ Fri, 06 Jul 2018 19:26:36 +0100
REM compiler GCC version 9.2.1 20190827 (Red Hat 9.2.1-1)
REM options -cpp -mtune=generic -march=x86-64 -g -O0 -fpre-include=/usr/include/finclude/math-vector-fortran.h
REM seed -443436640 1944551363 1908147827 -1927405430 -674902076 2114812777 1288336552 -799469439 1546957284 246122460 1892107890 2057397083 -1899581811 -1502444580 -1293582929 -1461950586 1411515901 1526743384 -268935713 -632102408 335051355 829818130 17131058 1789516023 -748297023 -645403459 2060605432 -950313697 916040352 2005122582 -389706070 1079541165 -1240262193
REM
CELL 1.54180   15.00000   15.00000   15.00000   90.00000   90.00000   90.00000
LATT -1
SFAC C  
C      1  0.3818300000000  0.4490130000000  0.4136770000000 1.0
C      1  0.3822520000000  0.6020670000000  0.5010390000000 1.0
C      1  0.3818070000000  0.4487660000000  0.5911750000000 1.0
C      1  0.6181700000000  0.5509870000000  0.4136770000000 1.0
C      1  0.6177480000000  0.3979330000000  0.5010390000000 1.0
C      1  0.6181930000000  0.5512340000000  0.5911750000000 1.0
C      1  0.6503530000000  0.6035420000000  0.5092850000000 1.0
C      1  0.6501850000000  0.4426290000000  0.5863140000000 1.0
C      1  0.6471510000000  0.4536040000000  0.4066330000000 1.0
C      1  0.3496470000000  0.3964580000000  0.5092850000000 1.0
C      1  0.3498150000000  0.5573710000000  0.5863140000000 1.0
C      1  0.3528490000000  0.5463960000000  0.4066330000000 1.0
C      1  0.7519560000000  0.4407780000000  0.5986350000000 1.0
C      1  0.7448520000000  0.4364230000000  0.3870720000000 1.0
C      1  0.7514830000000  0.6144520000000  0.5021000000000 1.0
C      1  0.2480440000000  0.5592220000000  0.5986350000000 1.0
C      1  0.2551480000000  0.5635770000000  0.3870720000000 1.0
C      1  0.2485170000000  0.3855480000000  0.5021000000000 1.0
C      1  0.4822600000000  0.4512560000000  0.4138550000000 1.0
C      1  0.4829570000000  0.6013230000000  0.5042070000000 1.0
C      1  0.4826070000000  0.4475500000000  0.5886440000000 1.0
C      1  0.5177400000000  0.5487440000000  0.4138550000000 1.0
C      1  0.5170430000000  0.3986770000000  0.5042070000000 1.0
C      1  0.5173930000000  0.5524500000000  0.5886440000000 1.0
C      1  0.1987140000000  0.4474190000000  0.5543710000000 1.0
C      1  0.1944230000000  0.4871020000000  0.4042090000000 1.0
C      1  0.1907400000000  0.5486120000000  0.5018680000000 1.0
C      1  0.8012860000000  0.5525810000000  0.5543710000000 1.0
C      1  0.8055770000000  0.5128980000000  0.4042090000000 1.0
C      1  0.8092600000000  0.4513880000000  0.5018680000000 1.0
C      1  0.3764290000000  0.4535080000000  0.7562240000000 1.0
C      1  0.3724520000000  0.3029650000000  0.3372830000000 1.0
C      1  0.3753980000000  0.7421220000000  0.4158470000000 1.0
C      1  0.6235710000000  0.5464920000000  0.7562240000000 1.0
C      1  0.6275480000000  0.6970350000000  0.3372830000000 1.0
C      1  0.6246020000000  0.2578780000000  0.4158470000000 1.0
C      1  0.2346570000000  0.4687050000000  0.6519620000000 1.0
C      1  0.2327530000000  0.3973300000000  0.4059940000000 1.0
C      1  0.2350160000000  0.6404790000000  0.4499210000000 1.0
C      1  0.7653430000000  0.5312950000000  0.6519620000000 1.0
C      1  0.7672470000000  0.6026700000000  0.4059940000000 1.0
C      1  0.7649840000000  0.3595210000000  0.4499210000000 1.0
C      1  0.5502900000000  0.7093250000000  0.3942300000000 1.0
C      1  0.5483680000000  0.4894690000000  0.7371260000000 1.0
C      1  0.5472000000000  0.3005670000000  0.3761270000000 1.0
C      1  0.4497100000000  0.2906750000000  0.3942300000000 1.0
C      1  0.4516320000000  0.5105310000000  0.7371260000000 1.0
C      1  0.4528000000000  0.6994330000000  0.3761270000000 1.0
C      1  0.5658020000000  0.4459520000000  0.6539470000000 1.0
C      1  0.5631140000000  0.3946910000000  0.3771630000000 1.0
C      1  0.5658970000000  0.6590950000000  0.4738540000000 1.0
C      1  0.4341980000000  0.5540480000000  0.6539470000000 1.0
C      1  0.4368860000000  0.6053090000000  0.3771630000000 1.0
C      1  0.4341030000000  0.3409050000000  0.4738540000000 1.0
C      1  0.3206420000000  0.6821660000000  0.4683930000000 1.0
C      1  0.3226140000000  0.4362140000000  0.6787270000000 1.0
C      1  0.3194610000000  0.3801330000000  0.3601180000000 1.0
C      1  0.6793580000000  0.3178340000000  0.4683930000000 1.0
C      1  0.6773860000000  0.5637860000000  0.6787270000000 1.0
C      1  0.6805390000000  0.6198670000000  0.3601180000000 1.0
END
