TITL C-986975-4297-511 1.32548745967452e-06 3375 -334.064572128541 0 0 60 (D2) n - 1
REM
REM in /home/bkarasulu/work/CARBON/AIRSS/Generating-Clusters/REBO/Higher-Symm/Only-C60
REM
REM
REM
REM
REM
REM ./C.cell (a2850807a9bf4ad07a5b6933b78d9264)
REM AIRSS Version 0.9.1 bugfix July 2018 build 013d7b7c2542+ Fri, 06 Jul 2018 19:26:36 +0100
REM compiler GCC version 9.2.1 20190827 (Red Hat 9.2.1-1)
REM options -cpp -mtune=generic -march=x86-64 -g -O0 -fpre-include=/usr/include/finclude/math-vector-fortran.h
REM seed 2133474172 -1612707223 1879450911 -1893448364 -1559887930 -1407819028 1134389368 -2020309250 1161968561 -1722014681 260811504 496794111 -1974586975 930961374 1480517059 932010706 -275696391 664854664 1936260096 -1529396715 -1529826613 2079135192 604495726 -721714796 232709085 -1629266527 -220396018 -1435347873 -1293275151 -611524794 1791263603 -605954120 -1808807481
REM
CELL 1.54180   15.00000   15.00000   15.00000   90.00000   90.00000   90.00000
LATT -1
SFAC C  
C      1  0.3895520000000  0.6882860000000  0.5667570000000 1.0
C      1  0.6112770000000  0.3110460000000  0.5671750000000 1.0
C      1  0.3932950000000  0.6827160000000  0.4339440000000 1.0
C      1  0.6089070000000  0.3145790000000  0.4343690000000 1.0
C      1  0.3932940000000  0.3172870000000  0.5660580000000 1.0
C      1  0.6089110000000  0.6854180000000  0.5656300000000 1.0
C      1  0.3895480000000  0.3117160000000  0.4332450000000 1.0
C      1  0.6112790000000  0.6889520000000  0.4328230000000 1.0
C      1  0.4515570000000  0.5931500000000  0.4578660000000 1.0
C      1  0.5506050000000  0.4047210000000  0.4538920000000 1.0
C      1  0.4442320000000  0.5927010000000  0.5642060000000 1.0
C      1  0.5560350000000  0.4058500000000  0.5626900000000 1.0
C      1  0.4442300000000  0.4073000000000  0.4357950000000 1.0
C      1  0.5560350000000  0.5941480000000  0.4373080000000 1.0
C      1  0.4515570000000  0.4068520000000  0.5421340000000 1.0
C      1  0.5506070000000  0.5952780000000  0.5461070000000 1.0
C      1  0.4580240000000  0.3180190000000  0.6608320000000 1.0
C      1  0.5421470000000  0.6816820000000  0.6590950000000 1.0
C      1  0.4468820000000  0.3205380000000  0.3353190000000 1.0
C      1  0.5531300000000  0.6797450000000  0.3355530000000 1.0
C      1  0.4468880000000  0.6794630000000  0.6646820000000 1.0
C      1  0.5531300000000  0.3202540000000  0.6644470000000 1.0
C      1  0.4580250000000  0.6819820000000  0.3391690000000 1.0
C      1  0.5421420000000  0.3183170000000  0.3409050000000 1.0
C      1  0.5466500000000  0.2235430000000  0.4335270000000 1.0
C      1  0.4537930000000  0.7750880000000  0.4332490000000 1.0
C      1  0.5547240000000  0.2295730000000  0.5378020000000 1.0
C      1  0.4458880000000  0.7697690000000  0.5373480000000 1.0
C      1  0.5547280000000  0.7704260000000  0.4621970000000 1.0
C      1  0.4458830000000  0.2302320000000  0.4626530000000 1.0
C      1  0.5466560000000  0.7764560000000  0.5664730000000 1.0
C      1  0.4537900000000  0.2249130000000  0.5667530000000 1.0
C      1  0.6448840000000  0.6131270000000  0.3295130000000 1.0
C      1  0.3540140000000  0.3856900000000  0.3294030000000 1.0
C      1  0.6279960000000  0.6084140000000  0.6705030000000 1.0
C      1  0.3710840000000  0.3897950000000  0.6735550000000 1.0
C      1  0.6279920000000  0.3915840000000  0.3294960000000 1.0
C      1  0.3710830000000  0.6102080000000  0.3264470000000 1.0
C      1  0.6448850000000  0.3868700000000  0.6704850000000 1.0
C      1  0.3540190000000  0.6143130000000  0.6705990000000 1.0
C      1  0.3312680000000  0.5512140000000  0.4084500000000 1.0
C      1  0.6696780000000  0.4488710000000  0.4093440000000 1.0
C      1  0.3221140000000  0.5466810000000  0.5900490000000 1.0
C      1  0.6772850000000  0.4531980000000  0.5900870000000 1.0
C      1  0.3221120000000  0.4533220000000  0.4099530000000 1.0
C      1  0.6772850000000  0.5467990000000  0.4099110000000 1.0
C      1  0.3312690000000  0.4487890000000  0.5915530000000 1.0
C      1  0.6696800000000  0.5511250000000  0.5906530000000 1.0
C      1  0.4358510000000  0.4528840000000  0.3411090000000 1.0
C      1  0.5619970000000  0.5475120000000  0.3434490000000 1.0
C      1  0.4548090000000  0.4491400000000  0.6416870000000 1.0
C      1  0.5413640000000  0.5499000000000  0.6447760000000 1.0
C      1  0.4548080000000  0.5508610000000  0.3583130000000 1.0
C      1  0.5413610000000  0.4501000000000  0.3552220000000 1.0
C      1  0.4358550000000  0.5471180000000  0.6588920000000 1.0
C      1  0.5619990000000  0.4524870000000  0.6565500000000 1.0
C      1  0.6718760000000  0.3831970000000  0.5017280000000 1.0
C      1  0.6718770000000  0.6167990000000  0.4982690000000 1.0
C      1  0.3290790000000  0.6157480000000  0.5017000000000 1.0
C      1  0.3290770000000  0.3842550000000  0.4983030000000 1.0
END
