TITL C-986975-4297-229 -1.30551571397581e-06 3375 -346.469856794842 0 0 60 (C1) n - 1
REM
REM in /home/bkarasulu/work/CARBON/AIRSS/Generating-Clusters/REBO/Higher-Symm/Only-C60
REM
REM
REM
REM
REM
REM ./C.cell (a2850807a9bf4ad07a5b6933b78d9264)
REM AIRSS Version 0.9.1 bugfix July 2018 build 013d7b7c2542+ Fri, 06 Jul 2018 19:26:36 +0100
REM compiler GCC version 9.2.1 20190827 (Red Hat 9.2.1-1)
REM options -cpp -mtune=generic -march=x86-64 -g -O0 -fpre-include=/usr/include/finclude/math-vector-fortran.h
REM seed 1407078862 503070835 1879546231 814620937 -1618715201 1698520347 1190777270 -1417285225 -2100847017 -73544074 1050271643 69101939 924377082 -808837776 1562296761 -2139438628 1698830534 -1512630540 -773774001 1335428336 1832483834 1256096361 -1091361372 -1336127577 1089873810 2063813372 463715239 1584671927 -1147478579 481447571 -733000283 1749399450 -1644104666
REM
CELL 1.54180   15.00000   15.00000   15.00000   90.00000   90.00000   90.00000
LATT -1
SFAC C  
C      1  0.4894140000000  0.6321050000000  0.3287010000000 1.0
C      1  0.6377020000000  0.6626730000000  0.5326530000000 1.0
C      1  0.5393150000000  0.2817400000000  0.5479080000000 1.0
C      1  0.5018620000000  0.4568380000000  0.6318460000000 1.0
C      1  0.5983620000000  0.6454720000000  0.6577100000000 1.0
C      1  0.2721090000000  0.6336640000000  0.3963450000000 1.0
C      1  0.7020300000000  0.4208890000000  0.5035660000000 1.0
C      1  0.4500920000000  0.3303080000000  0.5565410000000 1.0
C      1  0.6910110000000  0.6074150000000  0.6170280000000 1.0
C      1  0.5648680000000  0.5938390000000  0.4779570000000 1.0
C      1  0.7006020000000  0.4218070000000  0.4086160000000 1.0
C      1  0.3986530000000  0.6779310000000  0.6176170000000 1.0
C      1  0.5442220000000  0.5625020000000  0.2825170000000 1.0
C      1  0.3556040000000  0.4109820000000  0.4569850000000 1.0
C      1  0.5549600000000  0.4339250000000  0.4647480000000 1.0
C      1  0.4934580000000  0.2161400000000  0.4016400000000 1.0
C      1  0.3800400000000  0.4300550000000  0.6955790000000 1.0
C      1  0.5909120000000  0.4574480000000  0.5669610000000 1.0
C      1  0.5476440000000  0.7571560000000  0.4237750000000 1.0
C      1  0.4171550000000  0.5407130000000  0.5099330000000 1.0
C      1  0.4229970000000  0.6063720000000  0.6917740000000 1.0
C      1  0.2993380000000  0.4843540000000  0.3465830000000 1.0
C      1  0.2683770000000  0.5406240000000  0.4178030000000 1.0
C      1  0.6017000000000  0.2961200000000  0.4537520000000 1.0
C      1  0.5223430000000  0.5748510000000  0.6893910000000 1.0
C      1  0.4539970000000  0.4187440000000  0.7499430000000 1.0
C      1  0.6406650000000  0.3539990000000  0.3694440000000 1.0
C      1  0.3734890000000  0.3939250000000  0.6093080000000 1.0
C      1  0.2596200000000  0.6416270000000  0.5287280000000 1.0
C      1  0.4667530000000  0.4380070000000  0.5250190000000 1.0
C      1  0.5253490000000  0.1924990000000  0.4859810000000 1.0
C      1  0.3150260000000  0.6009880000000  0.6138140000000 1.0
C      1  0.7012940000000  0.5036090000000  0.3670060000000 1.0
C      1  0.4150810000000  0.4853430000000  0.4119980000000 1.0
C      1  0.5400540000000  0.4633750000000  0.3712350000000 1.0
C      1  0.3922100000000  0.3245990000000  0.4641230000000 1.0
C      1  0.4688600000000  0.7005000000000  0.5492930000000 1.0
C      1  0.6265680000000  0.3544640000000  0.5440540000000 1.0
C      1  0.3417330000000  0.5286450000000  0.6952750000000 1.0
C      1  0.7252290000000  0.4943930000000  0.5564260000000 1.0
C      1  0.5007480000000  0.5596650000000  0.4083400000000 1.0
C      1  0.7246960000000  0.5927170000000  0.5095800000000 1.0
C      1  0.3241640000000  0.4405420000000  0.5414430000000 1.0
C      1  0.4110870000000  0.6432190000000  0.4896930000000 1.0
C      1  0.4901340000000  0.4674010000000  0.2706210000000 1.0
C      1  0.5675990000000  0.5626900000000  0.5850800000000 1.0
C      1  0.6307010000000  0.5614980000000  0.3172130000000 1.0
C      1  0.4065890000000  0.2533030000000  0.4053440000000 1.0
C      1  0.2805670000000  0.5301010000000  0.5303130000000 1.0
C      1  0.6615750000000  0.5899540000000  0.4236280000000 1.0
C      1  0.5459680000000  0.4755780000000  0.7289790000000 1.0
C      1  0.5545430000000  0.3785580000000  0.2990890000000 1.0
C      1  0.3896990000000  0.4719530000000  0.3080280000000 1.0
C      1  0.6500330000000  0.4686760000000  0.7195820000000 1.0
C      1  0.5591410000000  0.2774110000000  0.3499860000000 1.0
C      1  0.7009850000000  0.5048090000000  0.6541320000000 1.0
C      1  0.5530680000000  0.7223010000000  0.5115080000000 1.0
C      1  0.4242900000000  0.5254270000000  0.6142030000000 1.0
C      1  0.5080390000000  0.7210170000000  0.3497980000000 1.0
C      1  0.3256740000000  0.6825420000000  0.4638630000000 1.0
END
