TITL C-986978-6805-803 0.000864535195967225 3375 -337.399116782444 0 0 60 (C1) n - 1
REM
REM in /home/bkarasulu/work/CARBON/AIRSS/Generating-Clusters/REBO/Higher-Symm/Only-C60
REM
REM
REM
REM
REM
REM ./C.cell (a2850807a9bf4ad07a5b6933b78d9264)
REM AIRSS Version 0.9.1 bugfix July 2018 build 013d7b7c2542+ Fri, 06 Jul 2018 19:26:36 +0100
REM compiler GCC version 9.2.1 20190827 (Red Hat 9.2.1-1)
REM options -cpp -mtune=generic -march=x86-64 -g -O0 -fpre-include=/usr/include/finclude/math-vector-fortran.h
REM seed 1040503823 -917036432 -1859961526 -1609327612 1019907404 -1241506702 -1187719191 142708800 105865197 1420247086 1346535261 -129685874 -106874303 -94047924 730961334 1998568395 -510539350 -1787584217 1934418528 -2081813036 1697687202 1677062515 -2037643745 1481090083 -85630796 -999572688 1953250615 -1969963891 -1840397218 -1725024017 793613862 112129863 -524230294
REM
CELL 1.54180   15.00000   15.00000   15.00000   90.00000   90.00000   90.00000
LATT -1
SFAC C  
C      1  0.5504510000000  0.6032000000000  0.2827560000000 1.0
C      1  0.5417830000000  0.5077520000000  0.7907730000000 1.0
C      1  0.4103060000000  0.3247890000000  0.6518280000000 1.0
C      1  0.5108310000000  0.3380750000000  0.6998620000000 1.0
C      1  0.3854820000000  0.6034330000000  0.7295260000000 1.0
C      1  0.4145770000000  0.4616950000000  0.4069530000000 1.0
C      1  0.2194560000000  0.6465130000000  0.5128200000000 1.0
C      1  0.6285000000000  0.6484320000000  0.3123910000000 1.0
C      1  0.6069470000000  0.3413550000000  0.3463700000000 1.0
C      1  0.6873080000000  0.6532260000000  0.4982810000000 1.0
C      1  0.5472970000000  0.3590210000000  0.4633120000000 1.0
C      1  0.4656480000000  0.6345790000000  0.3297720000000 1.0
C      1  0.3829420000000  0.5819830000000  0.3014500000000 1.0
C      1  0.5161420000000  0.3774830000000  0.5924450000000 1.0
C      1  0.2405970000000  0.4570340000000  0.5287270000000 1.0
C      1  0.5054960000000  0.4473810000000  0.4276800000000 1.0
C      1  0.4074800000000  0.4585350000000  0.2538550000000 1.0
C      1  0.6187010000000  0.3732050000000  0.6929350000000 1.0
C      1  0.5650360000000  0.2923890000000  0.5547940000000 1.0
C      1  0.6940070000000  0.4715750000000  0.4082780000000 1.0
C      1  0.6484520000000  0.5494430000000  0.4493570000000 1.0
C      1  0.7144220000000  0.4762230000000  0.3196860000000 1.0
C      1  0.5081880000000  0.4442590000000  0.7087320000000 1.0
C      1  0.5144890000000  0.3598080000000  0.3253350000000 1.0
C      1  0.3437010000000  0.4164550000000  0.6618300000000 1.0
C      1  0.5483990000000  0.5319310000000  0.4644670000000 1.0
C      1  0.5530970000000  0.6436700000000  0.6379170000000 1.0
C      1  0.5637440000000  0.7430910000000  0.5824050000000 1.0
C      1  0.2630310000000  0.4195970000000  0.5991870000000 1.0
C      1  0.3027410000000  0.5129710000000  0.4581260000000 1.0
C      1  0.4755590000000  0.7286740000000  0.5115310000000 1.0
C      1  0.5566800000000  0.6495400000000  0.5244130000000 1.0
C      1  0.6117630000000  0.4844290000000  0.7045400000000 1.0
C      1  0.4097150000000  0.3814040000000  0.5523710000000 1.0
C      1  0.5719270000000  0.4682140000000  0.5785160000000 1.0
C      1  0.3526440000000  0.5204260000000  0.3584130000000 1.0
C      1  0.4938840000000  0.4417340000000  0.2772870000000 1.0
C      1  0.5611510000000  0.5103870000000  0.2613530000000 1.0
C      1  0.2970370000000  0.6125900000000  0.4879290000000 1.0
C      1  0.3628210000000  0.5190220000000  0.7065600000000 1.0
C      1  0.6533850000000  0.3847410000000  0.4387540000000 1.0
C      1  0.4464860000000  0.3119350000000  0.3769810000000 1.0
C      1  0.4827060000000  0.5295450000000  0.5578750000000 1.0
C      1  0.4383010000000  0.6188360000000  0.5761770000000 1.0
C      1  0.4325750000000  0.7075640000000  0.4086720000000 1.0
C      1  0.6961960000000  0.5830890000000  0.5756150000000 1.0
C      1  0.6541960000000  0.7426250000000  0.5353450000000 1.0
C      1  0.4784010000000  0.2692590000000  0.4636280000000 1.0
C      1  0.4396580000000  0.4744270000000  0.6427690000000 1.0
C      1  0.6453090000000  0.3975590000000  0.5444010000000 1.0
C      1  0.6676910000000  0.6397040000000  0.3926760000000 1.0
C      1  0.3554110000000  0.4129970000000  0.4784760000000 1.0
C      1  0.6517580000000  0.4825530000000  0.2533840000000 1.0
C      1  0.5014500000000  0.6227150000000  0.4353150000000 1.0
C      1  0.4290600000000  0.2710060000000  0.5529160000000 1.0
C      1  0.6674410000000  0.3486590000000  0.6187980000000 1.0
C      1  0.3566010000000  0.3435030000000  0.3922020000000 1.0
C      1  0.4496770000000  0.6443530000000  0.6742070000000 1.0
C      1  0.6189860000000  0.5567030000000  0.6268570000000 1.0
C      1  0.3822790000000  0.6627040000000  0.5001900000000 1.0
END
