TITL C-986973-6940-723 -3.66327270699966e-06 3375 -352.742544708666 0 0 60 (C2) n - 1
REM
REM in /home/bkarasulu/work/CARBON/AIRSS/Generating-Clusters/REBO/Higher-Symm/Only-C60
REM
REM
REM
REM
REM
REM ./C.cell (a2850807a9bf4ad07a5b6933b78d9264)
REM AIRSS Version 0.9.1 bugfix July 2018 build 013d7b7c2542+ Fri, 06 Jul 2018 19:26:36 +0100
REM compiler GCC version 9.2.1 20190827 (Red Hat 9.2.1-1)
REM options -cpp -mtune=generic -march=x86-64 -g -O0 -fpre-include=/usr/include/finclude/math-vector-fortran.h
REM seed 1256710617 -964951921 -1280892397 1169832596 1773057363 791359502 -1446357513 1074113253 121393123 -991673049 1085903212 1566296552 1894040705 -942819863 -974096059 1945526406 -1140595676 -2000944052 -586998109 -1527387464 -1052296475 1517055808 -1990576957 -1958106970 -285679808 -372309146 -40346009 2147181450 312863079 134005827 825763196 1520188472 586200538
REM
CELL 1.54180   15.00000   15.00000   15.00000   90.00000   90.00000   90.00000
LATT -1
SFAC C  
C      1  0.3328920000000  0.3240110000000  0.5996580000000 1.0
C      1  0.4056200000000  0.3236680000000  0.3380890000000 1.0
C      1  0.6671070000000  0.3240110000000  0.4003440000000 1.0
C      1  0.5943800000000  0.3236660000000  0.6619130000000 1.0
C      1  0.6621640000000  0.6760970000000  0.6028100000000 1.0
C      1  0.6016880000000  0.6768200000000  0.3361650000000 1.0
C      1  0.3378480000000  0.6760910000000  0.3971950000000 1.0
C      1  0.3983320000000  0.6767990000000  0.6638350000000 1.0
C      1  0.3628660000000  0.5031870000000  0.4622500000000 1.0
C      1  0.5447010000000  0.5043580000000  0.3812050000000 1.0
C      1  0.6371210000000  0.5031860000000  0.5377610000000 1.0
C      1  0.4553020000000  0.5043550000000  0.6187940000000 1.0
C      1  0.6418050000000  0.4850370000000  0.4359510000000 1.0
C      1  0.4400290000000  0.4901530000000  0.3800250000000 1.0
C      1  0.3581860000000  0.4850280000000  0.5640540000000 1.0
C      1  0.5599710000000  0.4901410000000  0.6199950000000 1.0
C      1  0.5848780000000  0.5919790000000  0.5128870000000 1.0
C      1  0.4919750000000  0.5919760000000  0.5660760000000 1.0
C      1  0.4151010000000  0.5919960000000  0.4870680000000 1.0
C      1  0.5079900000000  0.5919940000000  0.4338830000000 1.0
C      1  0.4156660000000  0.3998830000000  0.5279130000000 1.0
C      1  0.5231530000000  0.4048570000000  0.5623450000000 1.0
C      1  0.5843330000000  0.3998830000000  0.4720880000000 1.0
C      1  0.4768490000000  0.4048640000000  0.4376610000000 1.0
C      1  0.3574100000000  0.3117040000000  0.4949540000000 1.0
C      1  0.5061420000000  0.3178870000000  0.3741530000000 1.0
C      1  0.6425890000000  0.3117040000000  0.5050470000000 1.0
C      1  0.4938580000000  0.3178800000000  0.6258500000000 1.0
C      1  0.6440740000000  0.6806340000000  0.4961350000000 1.0
C      1  0.5018550000000  0.6789450000000  0.3705380000000 1.0
C      1  0.3559140000000  0.6806460000000  0.5038760000000 1.0
C      1  0.4981590000000  0.6789170000000  0.6294370000000 1.0
C      1  0.3019090000000  0.5604270000000  0.6162550000000 1.0
C      1  0.3966700000000  0.5587030000000  0.3103150000000 1.0
C      1  0.6980890000000  0.5604290000000  0.3837530000000 1.0
C      1  0.6033410000000  0.5587040000000  0.6896910000000 1.0
C      1  0.6833130000000  0.4413120000000  0.6088090000000 1.0
C      1  0.6029050000000  0.4417620000000  0.3166530000000 1.0
C      1  0.3166890000000  0.4413150000000  0.3911920000000 1.0
C      1  0.3970980000000  0.4417600000000  0.6833500000000 1.0
C      1  0.5027660000000  0.7593290000000  0.5659730000000 1.0
C      1  0.4197290000000  0.7626170000000  0.5035750000000 1.0
C      1  0.4972360000000  0.7593420000000  0.4340220000000 1.0
C      1  0.5802700000000  0.7626110000000  0.4964310000000 1.0
C      1  0.4937130000000  0.2350210000000  0.5657150000000 1.0
C      1  0.5799720000000  0.2306630000000  0.5071730000000 1.0
C      1  0.5062850000000  0.2350260000000  0.4342860000000 1.0
C      1  0.4200260000000  0.2306620000000  0.4928260000000 1.0
C      1  0.4048190000000  0.6472820000000  0.3401880000000 1.0
C      1  0.6660790000000  0.6480540000000  0.3967430000000 1.0
C      1  0.5951880000000  0.6472820000000  0.6598130000000 1.0
C      1  0.3339250000000  0.6480510000000  0.6032660000000 1.0
C      1  0.5991500000000  0.3514040000000  0.3440440000000 1.0
C      1  0.3414140000000  0.3509580000000  0.3986290000000 1.0
C      1  0.4008500000000  0.3514010000000  0.6559590000000 1.0
C      1  0.6585860000000  0.3509560000000  0.6013730000000 1.0
C      1  0.6765560000000  0.4900800000000  0.6914350000000 1.0
C      1  0.3143860000000  0.4919090000000  0.6897980000000 1.0
C      1  0.3234560000000  0.4900790000000  0.3085670000000 1.0
C      1  0.6856190000000  0.4919100000000  0.3102110000000 1.0
END
