TITL C-986976-6631-986 -4.72027914213326e-06 3375 -341.872139912472 0 0 60 (D12) n - 1
REM
REM in /home/bkarasulu/work/CARBON/AIRSS/Generating-Clusters/REBO/Higher-Symm/Only-C60
REM
REM
REM
REM
REM
REM ./C.cell (a2850807a9bf4ad07a5b6933b78d9264)
REM AIRSS Version 0.9.1 bugfix July 2018 build 013d7b7c2542+ Fri, 06 Jul 2018 19:26:36 +0100
REM compiler GCC version 9.2.1 20190827 (Red Hat 9.2.1-1)
REM options -cpp -mtune=generic -march=x86-64 -g -O0 -fpre-include=/usr/include/finclude/math-vector-fortran.h
REM seed -1822863507 901682186 1267493402 1660567670 437582398 1240846207 -1503103927 2106273785 1031898230 -1085277334 -1651016457 743166180 1950337215 8048969 358452756 -1882535229 875566551 495620375 -1272207439 298176231 99832954 -2065866693 -1559540342 -1099629987 1781514860 -1012728511 707962568 758483320 34438365 -1370028575 -110526428 -1329465304 39548202
REM
CELL 1.54180   15.00000   15.00000   15.00000   90.00000   90.00000   90.00000
LATT -1
SFAC C  
C      1  0.4777040000000  0.3941040000000  0.7157330000000 1.0
C      1  0.5885580000000  0.3941040000000  0.6979780000000 1.0
C      1  0.6756820000000  0.3941040000000  0.6271750000000 1.0
C      1  0.7157330000000  0.3941040000000  0.5222960000000 1.0
C      1  0.6979780000000  0.3941040000000  0.4114420000000 1.0
C      1  0.6271750000000  0.3941040000000  0.3243180000000 1.0
C      1  0.5222960000000  0.3941040000000  0.2842670000000 1.0
C      1  0.4114420000000  0.3941040000000  0.3020220000000 1.0
C      1  0.3243180000000  0.3941040000000  0.3728250000000 1.0
C      1  0.2842670000000  0.3941040000000  0.4777040000000 1.0
C      1  0.3020220000000  0.3941040000000  0.5885580000000 1.0
C      1  0.3728250000000  0.3941040000000  0.6756820000000 1.0
C      1  0.5509600000000  0.7121210000000  0.6840240000000 1.0
C      1  0.6361450000000  0.7121210000000  0.6338890000000 1.0
C      1  0.6848500000000  0.7121210000000  0.5478790000000 1.0
C      1  0.6840240000000  0.7121210000000  0.4490400000000 1.0
C      1  0.6338890000000  0.7121210000000  0.3638550000000 1.0
C      1  0.5478790000000  0.7121210000000  0.3151500000000 1.0
C      1  0.4490400000000  0.7121210000000  0.3159760000000 1.0
C      1  0.3638550000000  0.7121210000000  0.3661110000000 1.0
C      1  0.3151500000000  0.7121210000000  0.4521210000000 1.0
C      1  0.3159760000000  0.7121210000000  0.5509600000000 1.0
C      1  0.3661110000000  0.7121210000000  0.6361450000000 1.0
C      1  0.4521210000000  0.7121210000000  0.6848500000000 1.0
C      1  0.4144790000000  0.6058960000000  0.6993080000000 1.0
C      1  0.5255910000000  0.6058960000000  0.7153670000000 1.0
C      1  0.6298460000000  0.6058960000000  0.6737180000000 1.0
C      1  0.6993080000000  0.6058960000000  0.5855210000000 1.0
C      1  0.7153670000000  0.6058960000000  0.4744090000000 1.0
C      1  0.6737180000000  0.6058960000000  0.3701540000000 1.0
C      1  0.5855210000000  0.6058960000000  0.3006920000000 1.0
C      1  0.4744090000000  0.6058960000000  0.2846330000000 1.0
C      1  0.3701540000000  0.6058960000000  0.3262820000000 1.0
C      1  0.3006920000000  0.6058960000000  0.4144790000000 1.0
C      1  0.2846330000000  0.6058960000000  0.5255910000000 1.0
C      1  0.3262820000000  0.6058960000000  0.6298460000000 1.0
C      1  0.5574980000000  0.5000000000000  0.7082060000000 1.0
C      1  0.6538970000000  0.5000000000000  0.6515630000000 1.0
C      1  0.7090600000000  0.5000000000000  0.5543080000000 1.0
C      1  0.7082060000000  0.5000000000000  0.4425020000000 1.0
C      1  0.6515630000000  0.5000000000000  0.3461030000000 1.0
C      1  0.5543080000000  0.5000000000000  0.2909400000000 1.0
C      1  0.4425020000000  0.5000000000000  0.2917940000000 1.0
C      1  0.3461030000000  0.5000000000000  0.3484370000000 1.0
C      1  0.2909400000000  0.5000000000000  0.4456920000000 1.0
C      1  0.2917940000000  0.5000000000000  0.5574980000000 1.0
C      1  0.3484370000000  0.5000000000000  0.6538970000000 1.0
C      1  0.4456920000000  0.5000000000000  0.7090600000000 1.0
C      1  0.3159040000000  0.2878790000000  0.5506990000000 1.0
C      1  0.3659180000000  0.2878790000000  0.6359550000000 1.0
C      1  0.4518590000000  0.2878790000000  0.6847820000000 1.0
C      1  0.5506990000000  0.2878790000000  0.6840960000000 1.0
C      1  0.6359550000000  0.2878790000000  0.6340820000000 1.0
C      1  0.6847820000000  0.2878790000000  0.5481410000000 1.0
C      1  0.6840960000000  0.2878790000000  0.4493010000000 1.0
C      1  0.6340820000000  0.2878790000000  0.3640450000000 1.0
C      1  0.5481410000000  0.2878790000000  0.3152180000000 1.0
C      1  0.4493010000000  0.2878790000000  0.3159040000000 1.0
C      1  0.3640450000000  0.2878790000000  0.3659180000000 1.0
C      1  0.3152180000000  0.2878790000000  0.4518590000000 1.0
END
