TITL C-986974-580-330 0.00849017368500895 3375 -342.440658128517 0 0 60 (C1) n - 1
REM
REM in /home/bkarasulu/work/CARBON/AIRSS/Generating-Clusters/REBO/Higher-Symm/Only-C60
REM
REM
REM
REM
REM
REM ./C.cell (a2850807a9bf4ad07a5b6933b78d9264)
REM AIRSS Version 0.9.1 bugfix July 2018 build 013d7b7c2542+ Fri, 06 Jul 2018 19:26:36 +0100
REM compiler GCC version 9.2.1 20190827 (Red Hat 9.2.1-1)
REM options -cpp -mtune=generic -march=x86-64 -g -O0 -fpre-include=/usr/include/finclude/math-vector-fortran.h
REM seed -269529618 25643598 -1784193401 -1404440055 -1465783571 -1890028272 1418065129 -1094066128 -471559034 -2114028651 616880398 400616882 -180346216 -1422852506 7965494 -1551821553 -1873932629 1208179015 699299618 1448156651 152321441 -537531564 3804509 1492056411 -949244853 -471392612 763282104 -1229550833 527126142 -1976805380 -1798330833 299889107 -540758849
REM
CELL 1.54180   15.00000   15.00000   15.00000   90.00000   90.00000   90.00000
LATT -1
SFAC C  
C      1  0.4883360000000  0.5479430000000  0.2717900000000 1.0
C      1  0.7261350000000  0.4275810000000  0.5169880000000 1.0
C      1  0.3764620000000  0.7119380000000  0.3574150000000 1.0
C      1  0.3174870000000  0.4797460000000  0.3741520000000 1.0
C      1  0.5958000000000  0.6918920000000  0.5997650000000 1.0
C      1  0.3922650000000  0.4988070000000  0.6399540000000 1.0
C      1  0.4855190000000  0.4713970000000  0.4287040000000 1.0
C      1  0.5782720000000  0.7224740000000  0.3919770000000 1.0
C      1  0.3705740000000  0.5463730000000  0.5428780000000 1.0
C      1  0.6482470000000  0.5159920000000  0.6550550000000 1.0
C      1  0.4432770000000  0.3586590000000  0.3718370000000 1.0
C      1  0.5436300000000  0.4234190000000  0.5050810000000 1.0
C      1  0.6236920000000  0.6238320000000  0.3540790000000 1.0
C      1  0.4351730000000  0.6318290000000  0.5802160000000 1.0
C      1  0.5030540000000  0.6430100000000  0.4100500000000 1.0
C      1  0.5740690000000  0.5949740000000  0.2742160000000 1.0
C      1  0.6998540000000  0.5756970000000  0.5736910000000 1.0
C      1  0.2668190000000  0.5479240000000  0.4386670000000 1.0
C      1  0.6450150000000  0.2773210000000  0.5711580000000 1.0
C      1  0.4669130000000  0.4489250000000  0.3185930000000 1.0
C      1  0.4017890000000  0.3958310000000  0.6239020000000 1.0
C      1  0.3201720000000  0.6794090000000  0.5533820000000 1.0
C      1  0.4688280000000  0.7461800000000  0.4136320000000 1.0
C      1  0.3633890000000  0.3926560000000  0.4305550000000 1.0
C      1  0.3574930000000  0.3509200000000  0.5292070000000 1.0
C      1  0.4375740000000  0.5734180000000  0.6986990000000 1.0
C      1  0.6341620000000  0.4222880000000  0.3870020000000 1.0
C      1  0.2833680000000  0.5262840000000  0.6406820000000 1.0
C      1  0.5571880000000  0.3629880000000  0.3730740000000 1.0
C      1  0.5226430000000  0.3280670000000  0.5195960000000 1.0
C      1  0.5206870000000  0.6363730000000  0.6566130000000 1.0
C      1  0.3696960000000  0.7365130000000  0.4685590000000 1.0
C      1  0.3079520000000  0.6431830000000  0.4462920000000 1.0
C      1  0.7233090000000  0.5262020000000  0.4950270000000 1.0
C      1  0.2593340000000  0.5117260000000  0.5334670000000 1.0
C      1  0.5834760000000  0.2707720000000  0.4163220000000 1.0
C      1  0.6860130000000  0.3321230000000  0.6374400000000 1.0
C      1  0.6548840000000  0.5326530000000  0.4045170000000 1.0
C      1  0.5765650000000  0.6214130000000  0.4785390000000 1.0
C      1  0.3869060000000  0.4952690000000  0.4614470000000 1.0
C      1  0.4079360000000  0.2612290000000  0.5160370000000 1.0
C      1  0.6750950000000  0.6646420000000  0.5562590000000 1.0
C      1  0.5465940000000  0.5393570000000  0.6994600000000 1.0
C      1  0.5902290000000  0.5236810000000  0.4916520000000 1.0
C      1  0.3787280000000  0.5134920000000  0.2861100000000 1.0
C      1  0.6982980000000  0.3710650000000  0.4455960000000 1.0
C      1  0.6594240000000  0.2861830000000  0.4743220000000 1.0
C      1  0.3578690000000  0.6042210000000  0.3519120000000 1.0
C      1  0.6329770000000  0.4590970000000  0.5652960000000 1.0
C      1  0.4885600000000  0.3770160000000  0.6743930000000 1.0
C      1  0.4556970000000  0.2257590000000  0.5868390000000 1.0
C      1  0.4740840000000  0.2783560000000  0.4329620000000 1.0
C      1  0.4579810000000  0.5681840000000  0.3761750000000 1.0
C      1  0.2953780000000  0.4223850000000  0.5917970000000 1.0
C      1  0.5577480000000  0.4303070000000  0.6999020000000 1.0
C      1  0.6551440000000  0.4063770000000  0.6851770000000 1.0
C      1  0.6673890000000  0.6786060000000  0.4468170000000 1.0
C      1  0.5111070000000  0.6859050000000  0.5353370000000 1.0
C      1  0.5492250000000  0.2584010000000  0.5912340000000 1.0
C      1  0.3445140000000  0.6217360000000  0.6485040000000 1.0
END
