TITL C-986973-6940-608 -0.0581768197234221 3375 -322.623613145625 0 0 60 (C4v) n - 1
REM
REM in /home/bkarasulu/work/CARBON/AIRSS/Generating-Clusters/REBO/Higher-Symm/Only-C60
REM
REM
REM
REM
REM
REM ./C.cell (a2850807a9bf4ad07a5b6933b78d9264)
REM AIRSS Version 0.9.1 bugfix July 2018 build 013d7b7c2542+ Fri, 06 Jul 2018 19:26:36 +0100
REM compiler GCC version 9.2.1 20190827 (Red Hat 9.2.1-1)
REM options -cpp -mtune=generic -march=x86-64 -g -O0 -fpre-include=/usr/include/finclude/math-vector-fortran.h
REM seed -1811344971 652258773 2088189859 -1378652943 863557704 814135297 -367414477 -1078854020 528645944 445753632 -71918149 1847212547 1780083368 1475917466 1601652167 -2082750704 -813921384 -2008023236 1873662859 -984928291 -1206810935 1475953307 1933533259 168762461 712932068 -84030481 -907171223 -807689894 1679394692 292730685 -1282535028 -676549110 589856931
REM
CELL 1.54180   15.00000   15.00000   15.00000   90.00000   90.00000   90.00000
LATT -1
SFAC C  
C      1  0.4112020000000  0.7094460000000  0.4144820000000 1.0
C      1  0.7094460000000  0.5887980000000  0.4144830000000 1.0
C      1  0.5887980000000  0.2905540000000  0.4144820000000 1.0
C      1  0.2905540000000  0.4112020000000  0.4144830000000 1.0
C      1  0.5887980000000  0.7094460000000  0.4144830000000 1.0
C      1  0.2905540000000  0.5887980000000  0.4144820000000 1.0
C      1  0.4112020000000  0.2905540000000  0.4144830000000 1.0
C      1  0.7094460000000  0.4112020000000  0.4144820000000 1.0
C      1  0.3054090000000  0.6142890000000  0.5067080000000 1.0
C      1  0.6142880000000  0.6945910000000  0.5067070000000 1.0
C      1  0.6945910000000  0.3857120000000  0.5067080000000 1.0
C      1  0.3857120000000  0.3054090000000  0.5067070000000 1.0
C      1  0.6945910000000  0.6142880000000  0.5067070000000 1.0
C      1  0.3857110000000  0.6945910000000  0.5067080000000 1.0
C      1  0.3054090000000  0.3857120000000  0.5067070000000 1.0
C      1  0.6142890000000  0.3054090000000  0.5067080000000 1.0
C      1  0.5850000000000  0.3400000000000  0.6924360000000 1.0
C      1  0.3400000000000  0.4150000000000  0.6924360000000 1.0
C      1  0.4150000000000  0.6600000000000  0.6924360000000 1.0
C      1  0.6600000000000  0.5850000000000  0.6924360000000 1.0
C      1  0.4150000000000  0.3400000000000  0.6924360000000 1.0
C      1  0.6600000000000  0.4150000000000  0.6924360000000 1.0
C      1  0.5850000000000  0.6600000000000  0.6924360000000 1.0
C      1  0.3400000000000  0.5850000000000  0.6924360000000 1.0
C      1  0.5568050000000  0.2944420000000  0.6047270000000 1.0
C      1  0.2944420000000  0.4431950000000  0.6047270000000 1.0
C      1  0.4431950000000  0.7055580000000  0.6047270000000 1.0
C      1  0.7055580000000  0.5568050000000  0.6047270000000 1.0
C      1  0.4431950000000  0.2944420000000  0.6047270000000 1.0
C      1  0.7055580000000  0.4431950000000  0.6047270000000 1.0
C      1  0.5568050000000  0.7055580000000  0.6047270000000 1.0
C      1  0.2944420000000  0.5568050000000  0.6047270000000 1.0
C      1  0.3840480000000  0.5478410000000  0.5413680000000 1.0
C      1  0.5478410000000  0.6159520000000  0.5413680000000 1.0
C      1  0.6159520000000  0.4521590000000  0.5413680000000 1.0
C      1  0.4521590000000  0.3840480000000  0.5413680000000 1.0
C      1  0.6159520000000  0.5478410000000  0.5413680000000 1.0
C      1  0.4521590000000  0.6159520000000  0.5413680000000 1.0
C      1  0.3840480000000  0.4521590000000  0.5413680000000 1.0
C      1  0.5478410000000  0.3840480000000  0.5413680000000 1.0
C      1  0.6378380000000  0.5519220000000  0.3481220000000 1.0
C      1  0.5519360000000  0.3621750000000  0.3481220000000 1.0
C      1  0.3621620000000  0.4480780000000  0.3481220000000 1.0
C      1  0.4480640000000  0.6378260000000  0.3481210000000 1.0
C      1  0.3621740000000  0.5519360000000  0.3481210000000 1.0
C      1  0.4480790000000  0.3621610000000  0.3481220000000 1.0
C      1  0.6378250000000  0.4480640000000  0.3481220000000 1.0
C      1  0.5519220000000  0.6378380000000  0.3481220000000 1.0
C      1  0.3492220000000  0.5877970000000  0.2488500000000 1.0
C      1  0.5877980000000  0.6507780000000  0.2488500000000 1.0
C      1  0.6507790000000  0.4122030000000  0.2488500000000 1.0
C      1  0.4122020000000  0.3492220000000  0.2488490000000 1.0
C      1  0.6507780000000  0.5877980000000  0.2488490000000 1.0
C      1  0.4122030000000  0.6507780000000  0.2488500000000 1.0
C      1  0.3492220000000  0.4122020000000  0.2488490000000 1.0
C      1  0.5877970000000  0.3492210000000  0.2488500000000 1.0
C      1  0.4443520000000  0.4443520000000  0.7275780000000 1.0
C      1  0.5556480000000  0.4443520000000  0.7275780000000 1.0
C      1  0.4443520000000  0.5556480000000  0.7275780000000 1.0
C      1  0.5556480000000  0.5556480000000  0.7275780000000 1.0
END
