TITL C-986974-580-150 3.6691995566284e-06 3375 -331.536199296269 0 0 60 (C5) n - 1
REM
REM in /home/bkarasulu/work/CARBON/AIRSS/Generating-Clusters/REBO/Higher-Symm/Only-C60
REM
REM
REM
REM
REM
REM ./C.cell (a2850807a9bf4ad07a5b6933b78d9264)
REM AIRSS Version 0.9.1 bugfix July 2018 build 013d7b7c2542+ Fri, 06 Jul 2018 19:26:36 +0100
REM compiler GCC version 9.2.1 20190827 (Red Hat 9.2.1-1)
REM options -cpp -mtune=generic -march=x86-64 -g -O0 -fpre-include=/usr/include/finclude/math-vector-fortran.h
REM seed 4609403 950624354 -1371097384 -2016745837 1457726649 389881077 89286309 707474390 857221457 1686440114 1047472381 1159570898 -320497682 117817233 -1917567739 -719143406 -1573857692 -355983444 473258226 1692214488 561326936 495577995 -461865113 -176517417 506414511 -124234382 -283760023 -1212395417 -2110946947 -1498827721 -1533190528 971802696 227941179
REM
CELL 1.54180   15.00000   15.00000   15.00000   90.00000   90.00000   90.00000
LATT -1
SFAC C  
C      1  0.3819150000000  0.3096660000000  0.3303370000000 1.0
C      1  0.3021880000000  0.3096270000000  0.5598780000000 1.0
C      1  0.4958600000000  0.3096250000000  0.7066330000000 1.0
C      1  0.6952810000000  0.3096670000000  0.5677920000000 1.0
C      1  0.6248590000000  0.3096930000000  0.3352270000000 1.0
C      1  0.5403730000000  0.3097190000000  0.2972490000000 1.0
C      1  0.3196880000000  0.3096810000000  0.3989510000000 1.0
C      1  0.3482150000000  0.3096520000000  0.6402630000000 1.0
C      1  0.5865330000000  0.3096680000000  0.6876980000000 1.0
C      1  0.7052940000000  0.3097130000000  0.4757050000000 1.0
C      1  0.3553900000000  0.5627170000000  0.3638910000000 1.0
C      1  0.3258520000000  0.5626810000000  0.5954720000000 1.0
C      1  0.5369720000000  0.5626900000000  0.6951260000000 1.0
C      1  0.6969880000000  0.5627310000000  0.5251350000000 1.0
C      1  0.5847640000000  0.5627480000000  0.3204200000000 1.0
C      1  0.6826550000000  0.6887190000000  0.4880070000000 1.0
C      1  0.5449980000000  0.6887270000000  0.3225780000000 1.0
C      1  0.3451270000000  0.6886940000000  0.4023770000000 1.0
C      1  0.3592570000000  0.6886660000000  0.6171250000000 1.0
C      1  0.5678610000000  0.6886810000000  0.6700470000000 1.0
C      1  0.4088620000000  0.4448260000000  0.4906630000000 1.0
C      1  0.4629680000000  0.4448180000000  0.5837920000000 1.0
C      1  0.5682590000000  0.4448330000000  0.5611130000000 1.0
C      1  0.5792270000000  0.4448490000000  0.4539670000000 1.0
C      1  0.4807140000000  0.4448450000000  0.4104260000000 1.0
C      1  0.4065590000000  0.7090930000000  0.4955010000000 1.0
C      1  0.4668030000000  0.7090860000000  0.5874760000000 1.0
C      1  0.5728930000000  0.7091020000000  0.5586030000000 1.0
C      1  0.5782160000000  0.7091180000000  0.4487830000000 1.0
C      1  0.4754160000000  0.7091120000000  0.4097850000000 1.0
C      1  0.6767140000000  0.2611500000000  0.6602190000000 1.0
C      1  0.7070370000000  0.2611950000000  0.3814460000000 1.0
C      1  0.4512770000000  0.2611810000000  0.2664650000000 1.0
C      1  0.2628870000000  0.2611330000000  0.4741750000000 1.0
C      1  0.4022150000000  0.2611130000000  0.7175280000000 1.0
C      1  0.3444140000000  0.3646180000000  0.4830670000000 1.0
C      1  0.4358450000000  0.3646050000000  0.6427390000000 1.0
C      1  0.6159560000000  0.3646290000000  0.6051240000000 1.0
C      1  0.6358410000000  0.3646580000000  0.4222050000000 1.0
C      1  0.4680180000000  0.3646500000000  0.3467700000000 1.0
C      1  0.5219790000000  0.5715150000000  0.4150420000000 1.0
C      1  0.4259780000000  0.5714990000000  0.4528420000000 1.0
C      1  0.4322620000000  0.5714850000000  0.5558270000000 1.0
C      1  0.5321470000000  0.5714920000000  0.5816740000000 1.0
C      1  0.5875960000000  0.5715110000000  0.4946640000000 1.0
C      1  0.6373610000000  0.6505940000000  0.3704910000000 1.0
C      1  0.4192450000000  0.6505760000000  0.3293400000000 1.0
C      1  0.3127070000000  0.6505370000000  0.5240650000000 1.0
C      1  0.4649790000000  0.6505310000000  0.6855620000000 1.0
C      1  0.6656260000000  0.6505660000000  0.5906480000000 1.0
C      1  0.6322680000000  0.5232430000000  0.6094890000000 1.0
C      1  0.6449990000000  0.5232720000000  0.4080390000000 1.0
C      1  0.4573420000000  0.5232620000000  0.3336810000000 1.0
C      1  0.3286340000000  0.5232270000000  0.4891740000000 1.0
C      1  0.4367440000000  0.5232140000000  0.6596330000000 1.0
C      1  0.4972060000000  0.6042520000000  0.2647840000000 1.0
C      1  0.2754110000000  0.6042050000000  0.4299710000000 1.0
C      1  0.3639750000000  0.6041780000000  0.6919560000000 1.0
C      1  0.6405050000000  0.6042080000000  0.6886840000000 1.0
C      1  0.7228460000000  0.6042540000000  0.4246780000000 1.0
END
