TITL C-986979-5873-236 -4.92592679316773e-06 3375 -348.764773715153 0 0 60 (C2) n - 1
REM
REM in /home/bkarasulu/work/CARBON/AIRSS/Generating-Clusters/REBO/Higher-Symm/Only-C60
REM
REM
REM
REM
REM
REM ./C.cell (a2850807a9bf4ad07a5b6933b78d9264)
REM AIRSS Version 0.9.1 bugfix July 2018 build 013d7b7c2542+ Fri, 06 Jul 2018 19:26:36 +0100
REM compiler GCC version 9.2.1 20190827 (Red Hat 9.2.1-1)
REM options -cpp -mtune=generic -march=x86-64 -g -O0 -fpre-include=/usr/include/finclude/math-vector-fortran.h
REM seed -412216213 1549642160 -50065750 827647504 -1073978196 -2073758610 -1305541344 -836379326 -699921278 -1223829807 1423112881 1152677706 -802515969 -702879588 -1737036366 819278463 -438129583 -560334857 727004718 889238110 1306336922 1069204679 -47781359 1486197056 -1173849607 -383335245 -1304412248 119918859 -1519523219 284047885 241160043 -455888257 1995831958
REM
CELL 1.54180   15.00000   15.00000   15.00000   90.00000   90.00000   90.00000
LATT -1
SFAC C  
C      1  0.3146390000000  0.5947540000000  0.6906940000000 1.0
C      1  0.4039680000000  0.3121920000000  0.6892990000000 1.0
C      1  0.6853390000000  0.4052220000000  0.6907030000000 1.0
C      1  0.5960100000000  0.6877850000000  0.6893330000000 1.0
C      1  0.4981620000000  0.7209010000000  0.4404140000000 1.0
C      1  0.2874070000000  0.4942670000000  0.4382000000000 1.0
C      1  0.5018450000000  0.2791070000000  0.4403870000000 1.0
C      1  0.7126000000000  0.5057410000000  0.4382250000000 1.0
C      1  0.6966260000000  0.5460930000000  0.3536960000000 1.0
C      1  0.4583170000000  0.6971300000000  0.3578000000000 1.0
C      1  0.3033910000000  0.4539250000000  0.3536670000000 1.0
C      1  0.5416990000000  0.3028870000000  0.3577800000000 1.0
C      1  0.6124270000000  0.6015910000000  0.3584320000000 1.0
C      1  0.3967650000000  0.6105900000000  0.3680130000000 1.0
C      1  0.3875900000000  0.3984270000000  0.3584060000000 1.0
C      1  0.6032500000000  0.3894270000000  0.3680110000000 1.0
C      1  0.4883980000000  0.6633140000000  0.6926470000000 1.0
C      1  0.3560950000000  0.4910090000000  0.6875680000000 1.0
C      1  0.5115800000000  0.3366620000000  0.6926280000000 1.0
C      1  0.6438830000000  0.5089670000000  0.6875850000000 1.0
C      1  0.5669900000000  0.5229610000000  0.5703080000000 1.0
C      1  0.4714030000000  0.5832370000000  0.5710580000000 1.0
C      1  0.4330020000000  0.4770300000000  0.5702980000000 1.0
C      1  0.5285890000000  0.4167540000000  0.5710510000000 1.0
C      1  0.5628510000000  0.5811530000000  0.6678420000000 1.0
C      1  0.4242950000000  0.5767970000000  0.6709960000000 1.0
C      1  0.4371300000000  0.4188260000000  0.6678250000000 1.0
C      1  0.5756850000000  0.4231820000000  0.6709950000000 1.0
C      1  0.5205660000000  0.3611890000000  0.2688140000000 1.0
C      1  0.6379130000000  0.5159660000000  0.2614120000000 1.0
C      1  0.4794610000000  0.6388400000000  0.2688290000000 1.0
C      1  0.3621150000000  0.4840640000000  0.2613940000000 1.0
C      1  0.5520410000000  0.4584800000000  0.4412770000000 1.0
C      1  0.5537870000000  0.5673520000000  0.4406620000000 1.0
C      1  0.4479660000000  0.5415280000000  0.4412760000000 1.0
C      1  0.4462200000000  0.4326550000000  0.4406480000000 1.0
C      1  0.3591950000000  0.3010790000000  0.5300880000000 1.0
C      1  0.6955260000000  0.3603060000000  0.5303960000000 1.0
C      1  0.6408010000000  0.6989170000000  0.5301290000000 1.0
C      1  0.3044710000000  0.6396910000000  0.5303910000000 1.0
C      1  0.5805840000000  0.6684930000000  0.4656430000000 1.0
C      1  0.3425260000000  0.5825510000000  0.4559060000000 1.0
C      1  0.4194200000000  0.3315110000000  0.4656130000000 1.0
C      1  0.6574790000000  0.4174550000000  0.4559140000000 1.0
C      1  0.3320970000000  0.4680050000000  0.5228320000000 1.0
C      1  0.5360130000000  0.3153560000000  0.5274860000000 1.0
C      1  0.6679000000000  0.5319920000000  0.5228550000000 1.0
C      1  0.4639840000000  0.6846410000000  0.5275050000000 1.0
C      1  0.5774990000000  0.3016930000000  0.6170440000000 1.0
C      1  0.6835430000000  0.5716560000000  0.6127070000000 1.0
C      1  0.4224870000000  0.6982920000000  0.6170600000000 1.0
C      1  0.3164440000000  0.4283300000000  0.6126770000000 1.0
C      1  0.6600460000000  0.6636990000000  0.6158650000000 1.0
C      1  0.3340220000000  0.6620210000000  0.6175620000000 1.0
C      1  0.3399400000000  0.3362860000000  0.6158260000000 1.0
C      1  0.6659650000000  0.3379650000000  0.6175610000000 1.0
C      1  0.6018180000000  0.4290870000000  0.2678680000000 1.0
C      1  0.5674080000000  0.6018410000000  0.2675260000000 1.0
C      1  0.3982090000000  0.5709420000000  0.2678650000000 1.0
C      1  0.4326190000000  0.3981880000000  0.2675050000000 1.0
END
