TITL C-986979-5873-102 -0.0921658644843048 3375 -337.419901668665 0 0 60 (C1) n - 1
REM
REM in /home/bkarasulu/work/CARBON/AIRSS/Generating-Clusters/REBO/Higher-Symm/Only-C60
REM
REM
REM
REM
REM
REM ./C.cell (a2850807a9bf4ad07a5b6933b78d9264)
REM AIRSS Version 0.9.1 bugfix July 2018 build 013d7b7c2542+ Fri, 06 Jul 2018 19:26:36 +0100
REM compiler GCC version 9.2.1 20190827 (Red Hat 9.2.1-1)
REM options -cpp -mtune=generic -march=x86-64 -g -O0 -fpre-include=/usr/include/finclude/math-vector-fortran.h
REM seed -1273848839 -201488520 138066199 124200912 1689582982 -31600907 2001052327 -1321806045 458192416 -268547049 1506496206 -1517666575 -1443086852 -1600454652 -1493131899 1832703333 -671821309 -792324654 614247140 -1186984482 659257589 690918548 -1132803298 -807407582 721486322 -421653621 -547052172 715003180 -1172070428 -1139216198 740116544 -1242799269 -1853862673
REM
CELL 1.54180   15.00000   15.00000   15.00000   90.00000   90.00000   90.00000
LATT -1
SFAC C  
C      1  0.3612720000000  0.3727360000000  0.6466490000000 1.0
C      1  0.3653260000000  0.4261450000000  0.3168500000000 1.0
C      1  0.3630600000000  0.6866530000000  0.5165020000000 1.0
C      1  0.5211040000000  0.7223610000000  0.4698250000000 1.0
C      1  0.5232080000000  0.4074810000000  0.6932950000000 1.0
C      1  0.5269500000000  0.3740830000000  0.3245220000000 1.0
C      1  0.6131250000000  0.4248160000000  0.5472980000000 1.0
C      1  0.6142310000000  0.4943850000000  0.4140290000000 1.0
C      1  0.6066750000000  0.5832990000000  0.5497290000000 1.0
C      1  0.6640520000000  0.4907190000000  0.6902420000000 1.0
C      1  0.6632840000000  0.3361430000000  0.4061620000000 1.0
C      1  0.6594850000000  0.6600470000000  0.4099550000000 1.0
C      1  0.5434370000000  0.5867970000000  0.2861410000000 1.0
C      1  0.5736270000000  0.6468330000000  0.6826670000000 1.0
C      1  0.5426180000000  0.2727530000000  0.5269750000000 1.0
C      1  0.4763730000000  0.6231790000000  0.4560500000000 1.0
C      1  0.4567000000000  0.4626550000000  0.6248370000000 1.0
C      1  0.4645120000000  0.4029640000000  0.4079950000000 1.0
C      1  0.6124500000000  0.6676450000000  0.4910750000000 1.0
C      1  0.6166840000000  0.4227530000000  0.6480940000000 1.0
C      1  0.6204530000000  0.4073980000000  0.3638320000000 1.0
C      1  0.5396770000000  0.5671700000000  0.3890230000000 1.0
C      1  0.5393400000000  0.5391930000000  0.6297690000000 1.0
C      1  0.5370150000000  0.3712960000000  0.4893570000000 1.0
C      1  0.5169440000000  0.2808960000000  0.3851020000000 1.0
C      1  0.5156780000000  0.7070940000000  0.3601030000000 1.0
C      1  0.5342510000000  0.4913770000000  0.7596830000000 1.0
C      1  0.4906850000000  0.5198060000000  0.2439360000000 1.0
C      1  0.4945930000000  0.6641840000000  0.6216700000000 1.0
C      1  0.4889850000000  0.2651810000000  0.6042500000000 1.0
C      1  0.3832090000000  0.5821520000000  0.3260630000000 1.0
C      1  0.3980730000000  0.5792720000000  0.6567630000000 1.0
C      1  0.3822900000000  0.3143190000000  0.5032750000000 1.0
C      1  0.4528580000000  0.4395310000000  0.2804380000000 1.0
C      1  0.4484210000000  0.7187430000000  0.5473830000000 1.0
C      1  0.4490850000000  0.3341100000000  0.6575580000000 1.0
C      1  0.3303360000000  0.2674180000000  0.5628600000000 1.0
C      1  0.3348050000000  0.5546640000000  0.2536900000000 1.0
C      1  0.3336180000000  0.6549320000000  0.6782970000000 1.0
C      1  0.6123810000000  0.5638540000000  0.7371260000000 1.0
C      1  0.6021580000000  0.2680240000000  0.4366710000000 1.0
C      1  0.6039000000000  0.6673890000000  0.3305950000000 1.0
C      1  0.4399280000000  0.5867350000000  0.5573740000000 1.0
C      1  0.4285450000000  0.4035140000000  0.5363960000000 1.0
C      1  0.4308500000000  0.5111930000000  0.3947790000000 1.0
C      1  0.3062000000000  0.4532840000000  0.4099150000000 1.0
C      1  0.3093330000000  0.5882390000000  0.4996560000000 1.0
C      1  0.3068390000000  0.4417130000000  0.5747970000000 1.0
C      1  0.3616970000000  0.3599190000000  0.4078690000000 1.0
C      1  0.3735690000000  0.6282260000000  0.4217910000000 1.0
C      1  0.3551400000000  0.4848840000000  0.6645320000000 1.0
C      1  0.4424330000000  0.6741960000000  0.3179900000000 1.0
C      1  0.4806900000000  0.5757600000000  0.7203900000000 1.0
C      1  0.4426060000000  0.2578800000000  0.4313350000000 1.0
C      1  0.5477010000000  0.5022690000000  0.5036140000000 1.0
C      1  0.4484190000000  0.5000970000000  0.4975290000000 1.0
C      1  0.2940140000000  0.4941020000000  0.4957750000000 1.0
C      1  0.7782520000000  0.5042460000000  0.5030350000000 1.0
C      1  0.8628210000000  0.4976930000000  0.4975100000000 1.0
C      1  0.6794920000000  0.5070960000000  0.5060360000000 1.0
END
