TITL C-986975-4297-951 1.24132848380697e-05 3375 -351.737004720325 0 0 60 (C1) n - 1
REM
REM in /home/bkarasulu/work/CARBON/AIRSS/Generating-Clusters/REBO/Higher-Symm/Only-C60
REM
REM
REM
REM
REM
REM ./C.cell (a2850807a9bf4ad07a5b6933b78d9264)
REM AIRSS Version 0.9.1 bugfix July 2018 build 013d7b7c2542+ Fri, 06 Jul 2018 19:26:36 +0100
REM compiler GCC version 9.2.1 20190827 (Red Hat 9.2.1-1)
REM options -cpp -mtune=generic -march=x86-64 -g -O0 -fpre-include=/usr/include/finclude/math-vector-fortran.h
REM seed -1953993335 1855370385 1591187711 -583603146 -636976639 -1772474854 -1396790096 597559843 1327521676 -1799268881 314335750 -926603045 699820352 1217482664 517683710 -110717434 2061139357 -1800464540 1419626214 563400479 153886504 -1443697201 -878193973 2127258685 -2143844717 327794603 321275960 -1542250954 302041094 -1479558758 1437997351 1061902838 -2063409631
REM
CELL 1.54180   15.00000   15.00000   15.00000   90.00000   90.00000   90.00000
LATT -1
SFAC C  
C      1  0.5546980000000  0.2561960000000  0.5282800000000 1.0
C      1  0.3493920000000  0.6173570000000  0.3201290000000 1.0
C      1  0.3514130000000  0.5561540000000  0.6325370000000 1.0
C      1  0.6502140000000  0.3989890000000  0.6507910000000 1.0
C      1  0.6625540000000  0.3369280000000  0.4027690000000 1.0
C      1  0.3064080000000  0.6467590000000  0.5001910000000 1.0
C      1  0.3979830000000  0.3816830000000  0.6380290000000 1.0
C      1  0.4690510000000  0.5266830000000  0.3068240000000 1.0
C      1  0.5872930000000  0.5587990000000  0.6999390000000 1.0
C      1  0.6359980000000  0.6300290000000  0.6334610000000 1.0
C      1  0.3430170000000  0.7134520000000  0.5586280000000 1.0
C      1  0.5202030000000  0.4224220000000  0.7355170000000 1.0
C      1  0.4323330000000  0.6974020000000  0.5918140000000 1.0
C      1  0.5906140000000  0.3113710000000  0.6221640000000 1.0
C      1  0.6167640000000  0.4631700000000  0.5231960000000 1.0
C      1  0.4272680000000  0.2909140000000  0.4269850000000 1.0
C      1  0.5019280000000  0.4867030000000  0.4067990000000 1.0
C      1  0.4318050000000  0.6955050000000  0.3250630000000 1.0
C      1  0.7194640000000  0.4168360000000  0.5938600000000 1.0
C      1  0.4836370000000  0.3633390000000  0.5633280000000 1.0
C      1  0.3967720000000  0.3138370000000  0.5132170000000 1.0
C      1  0.5906720000000  0.7047280000000  0.3504960000000 1.0
C      1  0.7624240000000  0.5209570000000  0.4256200000000 1.0
C      1  0.6974900000000  0.4030560000000  0.4877480000000 1.0
C      1  0.5216890000000  0.4372050000000  0.5021350000000 1.0
C      1  0.6256390000000  0.5356200000000  0.5705720000000 1.0
C      1  0.5749340000000  0.3155250000000  0.3749850000000 1.0
C      1  0.5133930000000  0.3676450000000  0.3198770000000 1.0
C      1  0.5416230000000  0.4505140000000  0.2854950000000 1.0
C      1  0.3339500000000  0.6632240000000  0.4077830000000 1.0
C      1  0.4527970000000  0.4894630000000  0.7424840000000 1.0
C      1  0.6211920000000  0.6310530000000  0.3254450000000 1.0
C      1  0.4987070000000  0.3434810000000  0.6733770000000 1.0
C      1  0.4907310000000  0.5748150000000  0.7119110000000 1.0
C      1  0.6785610000000  0.5546490000000  0.4175220000000 1.0
C      1  0.2753610000000  0.4371670000000  0.4210460000000 1.0
C      1  0.6560550000000  0.2509930000000  0.5519070000000 1.0
C      1  0.3633470000000  0.4115380000000  0.5360580000000 1.0
C      1  0.4907220000000  0.6167170000000  0.3463170000000 1.0
C      1  0.6116400000000  0.6866310000000  0.5401760000000 1.0
C      1  0.4733580000000  0.6009650000000  0.5099130000000 1.0
C      1  0.6253060000000  0.6233470000000  0.4584140000000 1.0
C      1  0.6033000000000  0.4621210000000  0.7055580000000 1.0
C      1  0.3348870000000  0.5538500000000  0.5258380000000 1.0
C      1  0.4196670000000  0.4886540000000  0.4852930000000 1.0
C      1  0.3647600000000  0.4653290000000  0.6951130000000 1.0
C      1  0.2570380000000  0.4803460000000  0.5002770000000 1.0
C      1  0.7097620000000  0.2927120000000  0.4880020000000 1.0
C      1  0.5131890000000  0.7276040000000  0.5174640000000 1.0
C      1  0.4179400000000  0.3613780000000  0.3555190000000 1.0
C      1  0.4254340000000  0.6862840000000  0.4574510000000 1.0
C      1  0.5334780000000  0.6138540000000  0.4294560000000 1.0
C      1  0.3460440000000  0.4331230000000  0.3550380000000 1.0
C      1  0.3679460000000  0.5181130000000  0.3120620000000 1.0
C      1  0.5037010000000  0.7408080000000  0.4030450000000 1.0
C      1  0.5373620000000  0.5991370000000  0.5838980000000 1.0
C      1  0.2922300000000  0.4594380000000  0.6072330000000 1.0
C      1  0.5216810000000  0.2659750000000  0.4392680000000 1.0
C      1  0.5945960000000  0.5239990000000  0.3516100000000 1.0
C      1  0.4285850000000  0.6234570000000  0.6550740000000 1.0
END
