TITL C-986974-580-931 3.97572621978081e-05 3375 -353.309121124824 0 0 60 (C5) n - 1
REM
REM in /home/bkarasulu/work/CARBON/AIRSS/Generating-Clusters/REBO/Higher-Symm/Only-C60
REM
REM
REM
REM
REM
REM ./C.cell (a2850807a9bf4ad07a5b6933b78d9264)
REM AIRSS Version 0.9.1 bugfix July 2018 build 013d7b7c2542+ Fri, 06 Jul 2018 19:26:36 +0100
REM compiler GCC version 9.2.1 20190827 (Red Hat 9.2.1-1)
REM options -cpp -mtune=generic -march=x86-64 -g -O0 -fpre-include=/usr/include/finclude/math-vector-fortran.h
REM seed 649164541 2117206884 91169268 -2008654655 1304834632 -18773276 1615691979 -1853935619 1038995339 -1548310605 642012062 783582219 -665995411 1268905133 602847818 1362774354 -806678303 -1174298768 770477391 1977409887 1052835017 -60218863 449013334 1025703037 229230913 1551362090 480542532 380444755 2029171217 1733087967 1349301283 -56659577 1095487198
REM
CELL 1.54180   15.00000   15.00000   15.00000   90.00000   90.00000   90.00000
LATT -1
SFAC C  
C      1  0.5549160000000  0.3138590000000  0.4072250000000 1.0
C      1  0.5549450000000  0.5307100000000  0.2943070000000 1.0
C      1  0.5549640000000  0.7051120000000  0.4656510000000 1.0
C      1  0.5549470000000  0.5960460000000  0.6844640000000 1.0
C      1  0.5549170000000  0.3542400000000  0.6483560000000 1.0
C      1  0.6102140000000  0.2964840000000  0.5781540000000 1.0
C      1  0.6102270000000  0.3627740000000  0.3306100000000 1.0
C      1  0.6102590000000  0.6186870000000  0.3171600000000 1.0
C      1  0.6102660000000  0.7105600000000  0.5563910000000 1.0
C      1  0.6102380000000  0.5114270000000  0.7176940000000 1.0
C      1  0.7455030000000  0.4420180000000  0.5757520000000 1.0
C      1  0.7455010000000  0.4100220000000  0.4682970000000 1.0
C      1  0.7455130000000  0.5023300000000  0.4046620000000 1.0
C      1  0.7455220000000  0.5913760000000  0.4727880000000 1.0
C      1  0.7455160000000  0.5541010000000  0.5785270000000 1.0
C      1  0.4442520000000  0.4423640000000  0.4409540000000 1.0
C      1  0.4442640000000  0.5383490000000  0.4269310000000 1.0
C      1  0.4442680000000  0.5813470000000  0.5138850000000 1.0
C      1  0.4442580000000  0.5119360000000  0.5816480000000 1.0
C      1  0.4442480000000  0.4260400000000  0.5365750000000 1.0
C      1  0.3104350000000  0.4727990000000  0.5914860000000 1.0
C      1  0.3104290000000  0.4045980000000  0.5023760000000 1.0
C      1  0.3104390000000  0.4682720000000  0.4099770000000 1.0
C      1  0.3104510000000  0.5758250000000  0.4419810000000 1.0
C      1  0.3104490000000  0.5786230000000  0.5541600000000 1.0
C      1  0.4925360000000  0.3886680000000  0.3824870000000 1.0
C      1  0.4925600000000  0.5773590000000  0.3578020000000 1.0
C      1  0.4925670000000  0.6591440000000  0.5296290000000 1.0
C      1  0.4925470000000  0.5209990000000  0.6605090000000 1.0
C      1  0.4925280000000  0.3538360000000  0.5695700000000 1.0
C      1  0.3608610000000  0.3166630000000  0.5011180000000 1.0
C      1  0.3608810000000  0.4422920000000  0.3259630000000 1.0
C      1  0.3609040000000  0.6476950000000  0.3913170000000 1.0
C      1  0.3609010000000  0.6490120000000  0.6068630000000 1.0
C      1  0.3608740000000  0.4444240000000  0.6747240000000 1.0
C      1  0.4238770000000  0.4270270000000  0.2752840000000 1.0
C      1  0.4239070000000  0.6911730000000  0.3611480000000 1.0
C      1  0.4239020000000  0.6911360000000  0.6388980000000 1.0
C      1  0.4238680000000  0.4269700000000  0.7246940000000 1.0
C      1  0.4238520000000  0.2637410000000  0.4999680000000 1.0
C      1  0.2028320000000  0.4424600000000  0.4339260000000 1.0
C      1  0.2028450000000  0.5450790000000  0.4248190000000 1.0
C      1  0.2028480000000  0.5854510000000  0.5196010000000 1.0
C      1  0.2028370000000  0.5077840000000  0.5872870000000 1.0
C      1  0.2028270000000  0.4194100000000  0.5343370000000 1.0
C      1  0.6971580000000  0.6540120000000  0.5542660000000 1.0
C      1  0.6971370000000  0.4959690000000  0.6632710000000 1.0
C      1  0.6971210000000  0.3434620000000  0.5466470000000 1.0
C      1  0.6971320000000  0.4072510000000  0.3655650000000 1.0
C      1  0.6971540000000  0.5991810000000  0.3702740000000 1.0
C      1  0.5326380000000  0.4334960000000  0.2876270000000 1.0
C      1  0.5326660000000  0.6814260000000  0.3711270000000 1.0
C      1  0.5326620000000  0.6786270000000  0.6327260000000 1.0
C      1  0.5326290000000  0.4289660000000  0.7109030000000 1.0
C      1  0.5326140000000  0.2774670000000  0.4976190000000 1.0
C      1  0.6246870000000  0.5760350000000  0.5268900000000 1.0
C      1  0.6246770000000  0.4979140000000  0.5806410000000 1.0
C      1  0.6246690000000  0.4226530000000  0.5229530000000 1.0
C      1  0.6246740000000  0.4542600000000  0.4335500000000 1.0
C      1  0.6246850000000  0.5490560000000  0.4359830000000 1.0
END
