TITL C-986975-4297-238 -6.84833487873916e-06 3375 -314.733987720866 0 0 60 (T23) n - 1
REM
REM in /home/bkarasulu/work/CARBON/AIRSS/Generating-Clusters/REBO/Higher-Symm/Only-C60
REM
REM
REM
REM
REM
REM ./C.cell (a2850807a9bf4ad07a5b6933b78d9264)
REM AIRSS Version 0.9.1 bugfix July 2018 build 013d7b7c2542+ Fri, 06 Jul 2018 19:26:36 +0100
REM compiler GCC version 9.2.1 20190827 (Red Hat 9.2.1-1)
REM options -cpp -mtune=generic -march=x86-64 -g -O0 -fpre-include=/usr/include/finclude/math-vector-fortran.h
REM seed -408514308 1585536409 -333918467 544354936 -1606894109 -849792342 69757891 1933635687 804102237 1851215713 -254179409 -61587570 2019764035 -664952548 12216396 -419641343 1765465847 1416396810 -60633978 1954949004 978194659 -33371090 1690064 -366919398 -1188504407 -677591703 -1939178152 -952831006 -484754236 1068002507 -2062795293 1390120013 -163215903
REM
CELL 1.54180   15.00000   15.00000   15.00000   90.00000   90.00000   90.00000
LATT -1
SFAC C  
C      1  0.5386900000000  0.4636480000000  0.6658660000000 1.0
C      1  0.4636480000000  0.6658660000000  0.5386910000000 1.0
C      1  0.6658660000000  0.5386910000000  0.4636480000000 1.0
C      1  0.4613100000000  0.4636490000000  0.3341330000000 1.0
C      1  0.4613100000000  0.5363510000000  0.6658670000000 1.0
C      1  0.5386900000000  0.5363520000000  0.3341330000000 1.0
C      1  0.5363510000000  0.6658670000000  0.4613100000000 1.0
C      1  0.5363520000000  0.3341330000000  0.5386890000000 1.0
C      1  0.4636490000000  0.3341330000000  0.4613090000000 1.0
C      1  0.3341330000000  0.5386890000000  0.5363520000000 1.0
C      1  0.3341340000000  0.4613090000000  0.4636490000000 1.0
C      1  0.6658670000000  0.4613100000000  0.5363510000000 1.0
C      1  0.6407760000000  0.4955500000000  0.6279270000000 1.0
C      1  0.4955490000000  0.6279270000000  0.6407760000000 1.0
C      1  0.6279270000000  0.6407760000000  0.4955500000000 1.0
C      1  0.3592240000000  0.4955490000000  0.3720730000000 1.0
C      1  0.3592250000000  0.5044500000000  0.6279270000000 1.0
C      1  0.6407750000000  0.5044520000000  0.3720730000000 1.0
C      1  0.5044500000000  0.6279280000000  0.3592250000000 1.0
C      1  0.5044510000000  0.3720720000000  0.6407750000000 1.0
C      1  0.4955500000000  0.3720730000000  0.3592240000000 1.0
C      1  0.3720720000000  0.6407750000000  0.5044510000000 1.0
C      1  0.3720730000000  0.3592240000000  0.4955490000000 1.0
C      1  0.6279280000000  0.3592250000000  0.5044500000000 1.0
C      1  0.5296120000000  0.7712010000000  0.4175420000000 1.0
C      1  0.7712010000000  0.4175420000000  0.5296120000000 1.0
C      1  0.4175410000000  0.5296110000000  0.7712010000000 1.0
C      1  0.4703860000000  0.7712010000000  0.5824600000000 1.0
C      1  0.4703880000000  0.2287990000000  0.4175400000000 1.0
C      1  0.5296140000000  0.2287990000000  0.5824580000000 1.0
C      1  0.2287990000000  0.4175400000000  0.4703870000000 1.0
C      1  0.2287990000000  0.5824580000000  0.5296130000000 1.0
C      1  0.7712010000000  0.5824600000000  0.4703870000000 1.0
C      1  0.5824590000000  0.5296140000000  0.2287990000000 1.0
C      1  0.5824590000000  0.4703870000000  0.7712010000000 1.0
C      1  0.4175410000000  0.4703880000000  0.2287990000000 1.0
C      1  0.2886840000000  0.5791890000000  0.3710130000000 1.0
C      1  0.5791900000000  0.3710140000000  0.2886850000000 1.0
C      1  0.3710130000000  0.2886840000000  0.5791890000000 1.0
C      1  0.7113150000000  0.5791900000000  0.6289880000000 1.0
C      1  0.7113150000000  0.4208120000000  0.3710120000000 1.0
C      1  0.2886850000000  0.4208090000000  0.6289880000000 1.0
C      1  0.4208110000000  0.3710110000000  0.7113150000000 1.0
C      1  0.4208100000000  0.6289880000000  0.2886860000000 1.0
C      1  0.5791890000000  0.6289870000000  0.7113150000000 1.0
C      1  0.6289880000000  0.2886860000000  0.4208100000000 1.0
C      1  0.6289870000000  0.7113150000000  0.5791900000000 1.0
C      1  0.3710110000000  0.7113150000000  0.4208120000000 1.0
C      1  0.5494170000000  0.2769870000000  0.3775510000000 1.0
C      1  0.2769870000000  0.3775500000000  0.5494160000000 1.0
C      1  0.3775510000000  0.5494160000000  0.2769870000000 1.0
C      1  0.4505850000000  0.2769860000000  0.6224480000000 1.0
C      1  0.4505830000000  0.7230130000000  0.3775520000000 1.0
C      1  0.5494150000000  0.7230130000000  0.6224490000000 1.0
C      1  0.7230140000000  0.3775530000000  0.4505830000000 1.0
C      1  0.7230130000000  0.6224490000000  0.5494160000000 1.0
C      1  0.2769860000000  0.6224480000000  0.4505850000000 1.0
C      1  0.6224490000000  0.5494160000000  0.7230130000000 1.0
C      1  0.6224490000000  0.4505850000000  0.2769870000000 1.0
C      1  0.3775520000000  0.4505830000000  0.7230130000000 1.0
END
