TITL C-986975-4297-416 -0.0390632198786162 3375 -340.731291941166 0 0 60 (C2) n - 1
REM
REM in /home/bkarasulu/work/CARBON/AIRSS/Generating-Clusters/REBO/Higher-Symm/Only-C60
REM
REM
REM
REM
REM
REM ./C.cell (a2850807a9bf4ad07a5b6933b78d9264)
REM AIRSS Version 0.9.1 bugfix July 2018 build 013d7b7c2542+ Fri, 06 Jul 2018 19:26:36 +0100
REM compiler GCC version 9.2.1 20190827 (Red Hat 9.2.1-1)
REM options -cpp -mtune=generic -march=x86-64 -g -O0 -fpre-include=/usr/include/finclude/math-vector-fortran.h
REM seed -1637554826 1350568004 870610693 25586308 1200528066 -1160797716 1530716021 829664397 -1226086234 -1693985898 -630605090 137162957 -222758841 1383658427 423271260 1977737172 -2023814055 -2091984191 1242909311 795133772 -708578623 1418162472 -2137554721 341186162 650822386 1684247710 -730308667 -634794420 -120001862 1979099811 83543297 1257473621 -1252144993
REM
CELL 1.54180   15.00000   15.00000   15.00000   90.00000   90.00000   90.00000
LATT -1
SFAC C  
C      1  0.3066870000000  0.5694690000000  0.6159760000000 1.0
C      1  0.4359910000000  0.2951130000000  0.3793460000000 1.0
C      1  0.6934100000000  0.4307040000000  0.6160140000000 1.0
C      1  0.5640850000000  0.7042990000000  0.3797130000000 1.0
C      1  0.5229540000000  0.6350220000000  0.3618830000000 1.0
C      1  0.3689760000000  0.5197370000000  0.6504550000000 1.0
C      1  0.4765890000000  0.3648190000000  0.3621910000000 1.0
C      1  0.6311510000000  0.4804850000000  0.6502850000000 1.0
C      1  0.4166500000000  0.4641000000000  0.2635400000000 1.0
C      1  0.5339180000000  0.4163800000000  0.7414690000000 1.0
C      1  0.5833630000000  0.5359260000000  0.2635280000000 1.0
C      1  0.4662990000000  0.5836050000000  0.7414540000000 1.0
C      1  0.4554630000000  0.4757620000000  0.6088270000000 1.0
C      1  0.5233990000000  0.4535050000000  0.4001920000000 1.0
C      1  0.5444630000000  0.5243480000000  0.6088250000000 1.0
C      1  0.4765230000000  0.5463250000000  0.4001820000000 1.0
C      1  0.6698830000000  0.2585210000000  0.4982770000000 1.0
C      1  0.7516210000000  0.6729510000000  0.5032970000000 1.0
C      1  0.3301300000000  0.7414790000000  0.4983190000000 1.0
C      1  0.2486700000000  0.3270100000000  0.5031230000000 1.0
C      1  0.2844250000000  0.5687570000000  0.4949080000000 1.0
C      1  0.4063400000000  0.2573950000000  0.4825030000000 1.0
C      1  0.7156310000000  0.4312720000000  0.4947660000000 1.0
C      1  0.5935850000000  0.7424150000000  0.4825620000000 1.0
C      1  0.5794550000000  0.3720700000000  0.5794190000000 1.0
C      1  0.6390830000000  0.5986470000000  0.4214120000000 1.0
C      1  0.4207690000000  0.6277820000000  0.5792040000000 1.0
C      1  0.3608780000000  0.4018040000000  0.4214720000000 1.0
C      1  0.5221750000000  0.4486740000000  0.2326030000000 1.0
C      1  0.5519820000000  0.5211070000000  0.7717060000000 1.0
C      1  0.4778800000000  0.5513520000000  0.2325980000000 1.0
C      1  0.4480760000000  0.4788370000000  0.7716370000000 1.0
C      1  0.5129250000000  0.3988520000000  0.4983370000000 1.0
C      1  0.5872250000000  0.5548090000000  0.5082150000000 1.0
C      1  0.4870830000000  0.6010570000000  0.4981470000000 1.0
C      1  0.4128370000000  0.4452330000000  0.5082060000000 1.0
C      1  0.4195130000000  0.2966600000000  0.5841780000000 1.0
C      1  0.6963180000000  0.4216510000000  0.3985480000000 1.0
C      1  0.5802600000000  0.7032380000000  0.5842380000000 1.0
C      1  0.3036400000000  0.5783590000000  0.3985760000000 1.0
C      1  0.6926230000000  0.5260330000000  0.5231360000000 1.0
C      1  0.4883080000000  0.7080300000000  0.4884200000000 1.0
C      1  0.3073750000000  0.4739100000000  0.5231150000000 1.0
C      1  0.5117120000000  0.2919030000000  0.4886740000000 1.0
C      1  0.5601890000000  0.3689730000000  0.6671220000000 1.0
C      1  0.6346920000000  0.5685670000000  0.3330330000000 1.0
C      1  0.4403390000000  0.6309470000000  0.6669130000000 1.0
C      1  0.3650980000000  0.4315320000000  0.3329280000000 1.0
C      1  0.2436800000000  0.4106640000000  0.5415040000000 1.0
C      1  0.5844220000000  0.2411980000000  0.4717290000000 1.0
C      1  0.7563960000000  0.5892310000000  0.5415820000000 1.0
C      1  0.4155530000000  0.7588130000000  0.4717080000000 1.0
C      1  0.6213630000000  0.4403040000000  0.3657450000000 1.0
C      1  0.5641010000000  0.6301920000000  0.6178130000000 1.0
C      1  0.3786230000000  0.5597880000000  0.3657220000000 1.0
C      1  0.4349330000000  0.3700050000000  0.6176880000000 1.0
C      1  0.3212830000000  0.6546740000000  0.5483150000000 1.0
C      1  0.3244430000000  0.3162580000000  0.4481700000000 1.0
C      1  0.6787850000000  0.3453640000000  0.5482460000000 1.0
C      1  0.6757770000000  0.6840780000000  0.4483060000000 1.0
END
