TITL C-986974-580-921 0.00210515620096357 3375 -333.821090128814 0 0 60 (C1) n - 1
REM
REM in /home/bkarasulu/work/CARBON/AIRSS/Generating-Clusters/REBO/Higher-Symm/Only-C60
REM
REM
REM
REM
REM
REM ./C.cell (a2850807a9bf4ad07a5b6933b78d9264)
REM AIRSS Version 0.9.1 bugfix July 2018 build 013d7b7c2542+ Fri, 06 Jul 2018 19:26:36 +0100
REM compiler GCC version 9.2.1 20190827 (Red Hat 9.2.1-1)
REM options -cpp -mtune=generic -march=x86-64 -g -O0 -fpre-include=/usr/include/finclude/math-vector-fortran.h
REM seed -414697737 -1824497033 202475214 2030453471 -307998637 -812440822 -1894647818 515678600 1774947296 2136793663 1286894586 -612366734 -2036258787 -1823911802 832078807 1805877877 -299738513 1189986167 -930750773 164170815 186388211 1947931841 -1006789862 380801676 -1782930982 1050473419 -2011023406 -1493697753 446809204 -336491552 1821548344 1190565435 -1240871801
REM
CELL 1.54180   15.00000   15.00000   15.00000   90.00000   90.00000   90.00000
LATT -1
SFAC C  
C      1  0.6722790000000  0.4118040000000  0.3298160000000 1.0
C      1  0.2659770000000  0.4131420000000  0.4354710000000 1.0
C      1  0.5600010000000  0.4136750000000  0.7329270000000 1.0
C      1  0.6572410000000  0.5825770000000  0.3231550000000 1.0
C      1  0.2681240000000  0.5840280000000  0.4523630000000 1.0
C      1  0.5760930000000  0.5841840000000  0.7259690000000 1.0
C      1  0.5093210000000  0.4401410000000  0.3738270000000 1.0
C      1  0.3850820000000  0.4362690000000  0.5534180000000 1.0
C      1  0.6024000000000  0.4437540000000  0.5704480000000 1.0
C      1  0.4999320000000  0.5533700000000  0.3754110000000 1.0
C      1  0.3934180000000  0.5485650000000  0.5641420000000 1.0
C      1  0.6099250000000  0.5569140000000  0.5634350000000 1.0
C      1  0.4853440000000  0.5906210000000  0.7414110000000 1.0
C      1  0.7156110000000  0.5890150000000  0.3941480000000 1.0
C      1  0.3004830000000  0.5880510000000  0.3663770000000 1.0
C      1  0.4685410000000  0.4160170000000  0.7347950000000 1.0
C      1  0.7203850000000  0.4133920000000  0.4078080000000 1.0
C      1  0.3099370000000  0.4128300000000  0.3549140000000 1.0
C      1  0.5731770000000  0.3607410000000  0.4027130000000 1.0
C      1  0.3781560000000  0.3586730000000  0.4822670000000 1.0
C      1  0.5462540000000  0.3636660000000  0.6102380000000 1.0
C      1  0.5636180000000  0.6383340000000  0.3997710000000 1.0
C      1  0.3819480000000  0.6361510000000  0.4977890000000 1.0
C      1  0.5565240000000  0.6408210000000  0.6069970000000 1.0
C      1  0.4763460000000  0.4524260000000  0.6068510000000 1.0
C      1  0.6049720000000  0.4502250000000  0.4631140000000 1.0
C      1  0.4164250000000  0.4487140000000  0.4263030000000 1.0
C      1  0.4889170000000  0.5536610000000  0.6139050000000 1.0
C      1  0.6038640000000  0.5521380000000  0.4559040000000 1.0
C      1  0.4087120000000  0.5503600000000  0.4337820000000 1.0
C      1  0.3941650000000  0.4046670000000  0.3040230000000 1.0
C      1  0.3830540000000  0.4057820000000  0.6877840000000 1.0
C      1  0.7214250000000  0.4054590000000  0.5059660000000 1.0
C      1  0.3827550000000  0.5985530000000  0.3132490000000 1.0
C      1  0.3972090000000  0.5998150000000  0.6970940000000 1.0
C      1  0.7218220000000  0.5996990000000  0.4922570000000 1.0
C      1  0.4750620000000  0.5621300000000  0.2662620000000 1.0
C      1  0.3106950000000  0.5627270000000  0.6390520000000 1.0
C      1  0.7165550000000  0.5633480000000  0.5964130000000 1.0
C      1  0.4869170000000  0.4513110000000  0.2665270000000 1.0
C      1  0.3045240000000  0.4520820000000  0.6271980000000 1.0
C      1  0.7071880000000  0.4527300000000  0.6041350000000 1.0
C      1  0.2554370000000  0.4416620000000  0.5247700000000 1.0
C      1  0.6425710000000  0.4408780000000  0.6972230000000 1.0
C      1  0.5999540000000  0.4399130000000  0.2765350000000 1.0
C      1  0.2634670000000  0.5412540000000  0.5375150000000 1.0
C      1  0.6525250000000  0.5404830000000  0.6880000000000 1.0
C      1  0.5863260000000  0.5394090000000  0.2755910000000 1.0
C      1  0.4432740000000  0.3388550000000  0.6293970000000 1.0
C      1  0.6411990000000  0.3371140000000  0.4829240000000 1.0
C      1  0.4147290000000  0.3359350000000  0.3841040000000 1.0
C      1  0.4557530000000  0.6670730000000  0.6364260000000 1.0
C      1  0.6395020000000  0.6659720000000  0.4718250000000 1.0
C      1  0.4057140000000  0.6642840000000  0.3955180000000 1.0
C      1  0.4012020000000  0.7058670000000  0.5616700000000 1.0
C      1  0.6027510000000  0.7083110000000  0.5549070000000 1.0
C      1  0.4961820000000  0.7063300000000  0.3855980000000 1.0
C      1  0.3957190000000  0.2942200000000  0.5538630000000 1.0
C      1  0.5979340000000  0.2959220000000  0.5632160000000 1.0
C      1  0.5053840000000  0.2939540000000  0.3814870000000 1.0
END
