TITL C-986978-6805-27 1.8503550157461e-06 3375 -351.841793842784 0 0 60 (C2) n - 1
REM
REM in /home/bkarasulu/work/CARBON/AIRSS/Generating-Clusters/REBO/Higher-Symm/Only-C60
REM
REM
REM
REM
REM
REM ./C.cell (a2850807a9bf4ad07a5b6933b78d9264)
REM AIRSS Version 0.9.1 bugfix July 2018 build 013d7b7c2542+ Fri, 06 Jul 2018 19:26:36 +0100
REM compiler GCC version 9.2.1 20190827 (Red Hat 9.2.1-1)
REM options -cpp -mtune=generic -march=x86-64 -g -O0 -fpre-include=/usr/include/finclude/math-vector-fortran.h
REM seed 1713944282 -918866898 1572683275 -242207396 -1659653496 1335925098 1058427243 -268627506 1642840713 -2137586682 2021973594 1917781212 -1218960410 -614962560 951812038 -1560463441 -741702026 1970748719 1948537652 -1260391577 365352006 2047478421 -2126401842 1526828113 117199066 -332601464 -1276148198 1491415181 364846589 -1362108909 1172076955 -644773382 1906737562
REM
CELL 1.54180   15.00000   15.00000   15.00000   90.00000   90.00000   90.00000
LATT -1
SFAC C  
C      1  0.5475290000000  0.5430430000000  0.2669680000000 1.0
C      1  0.4479620000000  0.5444790000000  0.7377410000000 1.0
C      1  0.5512420000000  0.4420480000000  0.2598260000000 1.0
C      1  0.4453500000000  0.4428480000000  0.7314430000000 1.0
C      1  0.4453490000000  0.5571520000000  0.2685570000000 1.0
C      1  0.5512440000000  0.5579520000000  0.7401730000000 1.0
C      1  0.4479610000000  0.4555210000000  0.2622590000000 1.0
C      1  0.5475310000000  0.4569570000000  0.7330320000000 1.0
C      1  0.4442890000000  0.3229110000000  0.3706480000000 1.0
C      1  0.5546770000000  0.3377630000000  0.6133990000000 1.0
C      1  0.4671550000000  0.6654610000000  0.3917140000000 1.0
C      1  0.5356050000000  0.6790700000000  0.6256430000000 1.0
C      1  0.5356030000000  0.3209300000000  0.3743570000000 1.0
C      1  0.4671550000000  0.3345390000000  0.6082870000000 1.0
C      1  0.5546770000000  0.6622360000000  0.3866010000000 1.0
C      1  0.4442900000000  0.6770890000000  0.6293520000000 1.0
C      1  0.3834320000000  0.2736050000000  0.4420890000000 1.0
C      1  0.6193900000000  0.2771910000000  0.5572060000000 1.0
C      1  0.4116000000000  0.7310420000000  0.4497690000000 1.0
C      1  0.5905510000000  0.7301830000000  0.5520890000000 1.0
C      1  0.5905500000000  0.2698170000000  0.4479110000000 1.0
C      1  0.4116000000000  0.2689590000000  0.5502310000000 1.0
C      1  0.6193900000000  0.7228090000000  0.4427930000000 1.0
C      1  0.3834320000000  0.7263950000000  0.5579120000000 1.0
C      1  0.5614290000000  0.4552330000000  0.5512810000000 1.0
C      1  0.4376530000000  0.4363110000000  0.4394830000000 1.0
C      1  0.5476320000000  0.5641720000000  0.5595760000000 1.0
C      1  0.4511440000000  0.5450800000000  0.4508890000000 1.0
C      1  0.4511440000000  0.4549200000000  0.5491110000000 1.0
C      1  0.5476320000000  0.4358280000000  0.4404230000000 1.0
C      1  0.4376530000000  0.5636890000000  0.5605170000000 1.0
C      1  0.5614290000000  0.5447670000000  0.4487190000000 1.0
C      1  0.6739040000000  0.4367820000000  0.3993680000000 1.0
C      1  0.3259300000000  0.4457800000000  0.5928550000000 1.0
C      1  0.6827990000000  0.5314510000000  0.3968510000000 1.0
C      1  0.3151620000000  0.5390890000000  0.6051590000000 1.0
C      1  0.3151610000000  0.4609120000000  0.3948420000000 1.0
C      1  0.6827990000000  0.4685480000000  0.6031480000000 1.0
C      1  0.3259290000000  0.5542210000000  0.4071460000000 1.0
C      1  0.6739050000000  0.5632170000000  0.6006310000000 1.0
C      1  0.3223250000000  0.3696730000000  0.4384250000000 1.0
C      1  0.6780030000000  0.3755150000000  0.5586500000000 1.0
C      1  0.3441490000000  0.6400950000000  0.4640690000000 1.0
C      1  0.6606950000000  0.6411790000000  0.5388900000000 1.0
C      1  0.6606940000000  0.3588210000000  0.4611090000000 1.0
C      1  0.3441490000000  0.3599050000000  0.5359320000000 1.0
C      1  0.6780030000000  0.6244840000000  0.4413490000000 1.0
C      1  0.3223260000000  0.6303280000000  0.5615770000000 1.0
C      1  0.4116020000000  0.5910620000000  0.3546140000000 1.0
C      1  0.5892890000000  0.5993050000000  0.6593420000000 1.0
C      1  0.3990830000000  0.4104200000000  0.3374080000000 1.0
C      1  0.5968790000000  0.4209300000000  0.6537940000000 1.0
C      1  0.5968790000000  0.5790700000000  0.3462050000000 1.0
C      1  0.3990840000000  0.5895800000000  0.6625920000000 1.0
C      1  0.5892880000000  0.4006950000000  0.3406580000000 1.0
C      1  0.4116030000000  0.4089390000000  0.6453870000000 1.0
C      1  0.5179800000000  0.2265950000000  0.5502860000000 1.0
C      1  0.5179800000000  0.7734050000000  0.4497140000000 1.0
C      1  0.4855610000000  0.2245280000000  0.4499350000000 1.0
C      1  0.4855620000000  0.7754720000000  0.5500650000000 1.0
END
