TITL C-986972-3822-64 -0.0273911184545524 3375 -315.678818576629 0 0 60 (C1) n - 1
REM
REM in /home/bkarasulu/work/CARBON/AIRSS/Generating-Clusters/REBO/Higher-Symm/Only-C60
REM
REM
REM
REM
REM
REM ./C.cell (a2850807a9bf4ad07a5b6933b78d9264)
REM AIRSS Version 0.9.1 bugfix July 2018 build 013d7b7c2542+ Fri, 06 Jul 2018 19:26:36 +0100
REM compiler GCC version 9.2.1 20190827 (Red Hat 9.2.1-1)
REM options -cpp -mtune=generic -march=x86-64 -g -O0 -fpre-include=/usr/include/finclude/math-vector-fortran.h
REM seed 152554347 -1050139657 -151780358 -2133334523 -1612476967 1746232031 -968763106 1203985093 293200262 -2030039566 1014022822 1505638143 -1159701264 -1544908896 1011796182 -547862431 -1090213608 -873692262 1464169602 758036048 -880706067 1783625722 301646019 2003282976 -830771397 1770014368 1116186320 -1561841638 -1424891082 -2105404061 1149339862 -844797312 591575570
REM
CELL 1.54180   15.00000   15.00000   15.00000   90.00000   90.00000   90.00000
LATT -1
SFAC C  
C      1  0.4597040000000  0.6121250000000  0.3251490000000 1.0
C      1  0.3128990000000  0.6114350000000  0.4843210000000 1.0
C      1  0.4281060000000  0.6398500000000  0.6584360000000 1.0
C      1  0.6264570000000  0.5860790000000  0.6211430000000 1.0
C      1  0.6553240000000  0.6263730000000  0.4133260000000 1.0
C      1  0.5036150000000  0.5402850000000  0.3912880000000 1.0
C      1  0.3898810000000  0.5411910000000  0.4598120000000 1.0
C      1  0.4116780000000  0.5572210000000  0.5892140000000 1.0
C      1  0.5409940000000  0.5338560000000  0.5924300000000 1.0
C      1  0.6045830000000  0.5520600000000  0.4769580000000 1.0
C      1  0.4891780000000  0.2713780000000  0.6005180000000 1.0
C      1  0.5897770000000  0.2787410000000  0.5467540000000 1.0
C      1  0.5673440000000  0.2731680000000  0.4345670000000 1.0
C      1  0.4546390000000  0.2682120000000  0.4181260000000 1.0
C      1  0.4066690000000  0.2689460000000  0.5215630000000 1.0
C      1  0.7100480000000  0.5119750000000  0.4558400000000 1.0
C      1  0.5691800000000  0.5337480000000  0.2994970000000 1.0
C      1  0.3209220000000  0.5241560000000  0.3711360000000 1.0
C      1  0.3098350000000  0.5226480000000  0.6255070000000 1.0
C      1  0.5420020000000  0.5289530000000  0.7071520000000 1.0
C      1  0.7162540000000  0.4102850000000  0.5035370000000 1.0
C      1  0.6099940000000  0.4280590000000  0.2970140000000 1.0
C      1  0.3427760000000  0.4213710000000  0.3296370000000 1.0
C      1  0.2884850000000  0.4223540000000  0.5882450000000 1.0
C      1  0.5444500000000  0.4158700000000  0.7243620000000 1.0
C      1  0.7075190000000  0.5494170000000  0.5632620000000 1.0
C      1  0.6233390000000  0.6262250000000  0.3256440000000 1.0
C      1  0.3665100000000  0.6138750000000  0.3280370000000 1.0
C      1  0.2926380000000  0.6150140000000  0.5760240000000 1.0
C      1  0.5031310000000  0.6302590000000  0.7127060000000 1.0
C      1  0.4756040000000  0.3463700000000  0.6726990000000 1.0
C      1  0.6486140000000  0.3610030000000  0.5737740000000 1.0
C      1  0.6059640000000  0.3442770000000  0.3735650000000 1.0
C      1  0.4201840000000  0.3436450000000  0.3581290000000 1.0
C      1  0.3451330000000  0.3507730000000  0.5289400000000 1.0
C      1  0.3413140000000  0.6780770000000  0.6307180000000 1.0
C      1  0.5993270000000  0.6468950000000  0.6844900000000 1.0
C      1  0.7109590000000  0.6385860000000  0.4932010000000 1.0
C      1  0.5342260000000  0.6621000000000  0.2923970000000 1.0
C      1  0.3061260000000  0.6545220000000  0.3981020000000 1.0
C      1  0.4458620000000  0.3936550000000  0.2602250000000 1.0
C      1  0.2543240000000  0.3819760000000  0.4726030000000 1.0
C      1  0.3847910000000  0.3697200000000  0.7196260000000 1.0
C      1  0.6862980000000  0.4563070000000  0.6241710000000 1.0
C      1  0.7103350000000  0.3653130000000  0.3441240000000 1.0
C      1  0.3232620000000  0.4319940000000  0.6927950000000 1.0
C      1  0.6379800000000  0.4731780000000  0.7095030000000 1.0
C      1  0.7542030000000  0.4218060000000  0.4029770000000 1.0
C      1  0.5159410000000  0.4504930000000  0.2431120000000 1.0
C      1  0.2559910000000  0.4354850000000  0.3975350000000 1.0
C      1  0.4162020000000  0.4424210000000  0.4145360000000 1.0
C      1  0.3960570000000  0.4498540000000  0.5553730000000 1.0
C      1  0.5137530000000  0.4354630000000  0.6167580000000 1.0
C      1  0.6096740000000  0.4501630000000  0.5157460000000 1.0
C      1  0.5510320000000  0.4416390000000  0.3937400000000 1.0
C      1  0.4918960000000  0.5764890000000  0.4993690000000 1.0
C      1  0.4987110000000  0.3413110000000  0.5035560000000 1.0
C      1  0.4930050000000  0.6834220000000  0.4988520000000 1.0
C      1  0.4964190000000  0.7683660000000  0.4964150000000 1.0
C      1  0.4960070000000  0.4441150000000  0.4980220000000 1.0
END
