TITL C-986976-6631-730 -0.052609193910303 3375 -338.054797435027 0 0 60 (D5) n - 1
REM
REM in /home/bkarasulu/work/CARBON/AIRSS/Generating-Clusters/REBO/Higher-Symm/Only-C60
REM
REM
REM
REM
REM
REM ./C.cell (a2850807a9bf4ad07a5b6933b78d9264)
REM AIRSS Version 0.9.1 bugfix July 2018 build 013d7b7c2542+ Fri, 06 Jul 2018 19:26:36 +0100
REM compiler GCC version 9.2.1 20190827 (Red Hat 9.2.1-1)
REM options -cpp -mtune=generic -march=x86-64 -g -O0 -fpre-include=/usr/include/finclude/math-vector-fortran.h
REM seed 24589212 1405120546 1302951462 685047048 -335382562 298216661 1043813386 -583486704 1348229440 -1153616410 -692526242 -1227606515 -673738510 -537326926 -1908978824 305125470 2113913148 1810741250 1593997502 -357955622 -1514751612 168470431 1460278395 2130312267 -1525690075 799889776 -1689817095 1222030453 -491454830 -983082674 562750701 -653376853 1163711773
REM
CELL 1.54180   15.00000   15.00000   15.00000   90.00000   90.00000   90.00000
LATT -1
SFAC C  
C      1  0.5493450000000  0.3007000000000  0.3592460000000 1.0
C      1  0.3256740000000  0.3914670000000  0.3592670000000 1.0
C      1  0.3428890000000  0.6322210000000  0.3592170000000 1.0
C      1  0.5772520000000  0.6902860000000  0.3590580000000 1.0
C      1  0.7048930000000  0.4853080000000  0.3591820000000 1.0
C      1  0.5493880000000  0.6993420000000  0.6433080000000 1.0
C      1  0.3257030000000  0.6086130000000  0.6433020000000 1.0
C      1  0.3429020000000  0.3677610000000  0.6433500000000 1.0
C      1  0.5771960000000  0.3096310000000  0.6433570000000 1.0
C      1  0.7048490000000  0.5146100000000  0.6433110000000 1.0
C      1  0.4309570000000  0.3708930000000  0.5819620000000 1.0
C      1  0.3558590000000  0.5257280000000  0.5820070000000 1.0
C      1  0.4799610000000  0.6450370000000  0.5819680000000 1.0
C      1  0.6317470000000  0.5638890000000  0.5819640000000 1.0
C      1  0.6015150000000  0.3944180000000  0.5820180000000 1.0
C      1  0.4309970000000  0.6291290000000  0.4205840000000 1.0
C      1  0.3558790000000  0.4742720000000  0.4205970000000 1.0
C      1  0.4799080000000  0.3549890000000  0.4206100000000 1.0
C      1  0.6317390000000  0.4361350000000  0.4206190000000 1.0
C      1  0.6014420000000  0.6055850000000  0.4206580000000 1.0
C      1  0.5066020000000  0.6813940000000  0.3129940000000 1.0
C      1  0.6746130000000  0.5496290000000  0.3128490000000 1.0
C      1  0.6011380000000  0.3493310000000  0.3128640000000 1.0
C      1  0.3879100000000  0.3572370000000  0.3128570000000 1.0
C      1  0.3295780000000  0.5624430000000  0.3128570000000 1.0
C      1  0.5067410000000  0.3185740000000  0.6897480000000 1.0
C      1  0.6746010000000  0.4503670000000  0.6897280000000 1.0
C      1  0.6011320000000  0.6507230000000  0.6897210000000 1.0
C      1  0.3879240000000  0.6427930000000  0.6897640000000 1.0
C      1  0.3296170000000  0.4375520000000  0.6897080000000 1.0
C      1  0.6420370000000  0.3395990000000  0.4684630000000 1.0
C      1  0.3913340000000  0.3152910000000  0.4684580000000 1.0
C      1  0.2908160000000  0.5462850000000  0.4684700000000 1.0
C      1  0.4793740000000  0.7132740000000  0.4684440000000 1.0
C      1  0.6964430000000  0.5855640000000  0.4684340000000 1.0
C      1  0.6421420000000  0.6604140000000  0.5341580000000 1.0
C      1  0.3913870000000  0.6846880000000  0.5341120000000 1.0
C      1  0.2907740000000  0.4537440000000  0.5341030000000 1.0
C      1  0.4793240000000  0.2867520000000  0.5341380000000 1.0
C      1  0.6964600000000  0.4144300000000  0.5341220000000 1.0
C      1  0.4832950000000  0.5895260000000  0.6798890000000 1.0
C      1  0.5799690000000  0.5435170000000  0.6798440000000 1.0
C      1  0.5661260000000  0.4373490000000  0.6798410000000 1.0
C      1  0.4609260000000  0.4177840000000  0.6798530000000 1.0
C      1  0.4097360000000  0.5118160000000  0.6798310000000 1.0
C      1  0.4832960000000  0.4105410000000  0.3226880000000 1.0
C      1  0.5799740000000  0.4564910000000  0.3227290000000 1.0
C      1  0.5660660000000  0.5626090000000  0.3226600000000 1.0
C      1  0.4608910000000  0.5821370000000  0.3227110000000 1.0
C      1  0.4097210000000  0.4882310000000  0.3227060000000 1.0
C      1  0.5697570000000  0.7145270000000  0.5012780000000 1.0
C      1  0.5696950000000  0.2853830000000  0.5012930000000 1.0
C      1  0.3174680000000  0.3673800000000  0.5012940000000 1.0
C      1  0.3174840000000  0.6326520000000  0.5012910000000 1.0
C      1  0.7256020000000  0.4999940000000  0.5012420000000 1.0
C      1  0.4251000000000  0.4455900000000  0.5013190000000 1.0
C      1  0.4250920000000  0.5544130000000  0.5013100000000 1.0
C      1  0.5285750000000  0.5880170000000  0.5013190000000 1.0
C      1  0.5925590000000  0.5000130000000  0.5013580000000 1.0
C      1  0.5286260000000  0.4119320000000  0.5013090000000 1.0
END
