TITL C-986975-4297-891 -1.3006867492711e-06 3375 -341.940490028093 0 0 60 (D2d) n - 1
REM
REM in /home/bkarasulu/work/CARBON/AIRSS/Generating-Clusters/REBO/Higher-Symm/Only-C60
REM
REM
REM
REM
REM
REM ./C.cell (a2850807a9bf4ad07a5b6933b78d9264)
REM AIRSS Version 0.9.1 bugfix July 2018 build 013d7b7c2542+ Fri, 06 Jul 2018 19:26:36 +0100
REM compiler GCC version 9.2.1 20190827 (Red Hat 9.2.1-1)
REM options -cpp -mtune=generic -march=x86-64 -g -O0 -fpre-include=/usr/include/finclude/math-vector-fortran.h
REM seed 942391622 924418192 1440661057 -1518252571 1521423794 2025024091 -170586041 1720363135 178995156 -691821104 -1528290795 -595193512 -2023840431 -578671938 -1389769394 -1413621834 -1988927276 1804663262 984233965 2109824357 449845494 1534456040 -1364970504 -2099517335 246713099 -155119872 1582383320 -34948222 -931922034 569769175 -187606522 422075134 -1651179451
REM
CELL 1.54180   15.00000   15.00000   15.00000   90.00000   90.00000   90.00000
LATT -1
SFAC C  
C      1  0.5603230000000  0.6925270000000  0.5926070000000 1.0
C      1  0.4396770000000  0.3074730000000  0.5926070000000 1.0
C      1  0.4396770000000  0.6925270000000  0.4073930000000 1.0
C      1  0.5603230000000  0.3074730000000  0.4073930000000 1.0
C      1  0.6925270000000  0.5603230000000  0.5926070000000 1.0
C      1  0.3074730000000  0.4396770000000  0.5926070000000 1.0
C      1  0.6925270000000  0.4396770000000  0.4073930000000 1.0
C      1  0.3074730000000  0.5603230000000  0.4073930000000 1.0
C      1  0.5948030000000  0.4746200000000  0.4561010000000 1.0
C      1  0.4051970000000  0.5253800000000  0.4561010000000 1.0
C      1  0.4051970000000  0.4746200000000  0.5438990000000 1.0
C      1  0.5948030000000  0.5253800000000  0.5438990000000 1.0
C      1  0.4746200000000  0.5948030000000  0.4561010000000 1.0
C      1  0.5253800000000  0.4051970000000  0.4561010000000 1.0
C      1  0.4746200000000  0.4051970000000  0.5438990000000 1.0
C      1  0.5253800000000  0.5948030000000  0.5438990000000 1.0
C      1  0.3885220000000  0.4617890000000  0.3700880000000 1.0
C      1  0.6114780000000  0.5382110000000  0.3700880000000 1.0
C      1  0.6114780000000  0.4617890000000  0.6299120000000 1.0
C      1  0.3885220000000  0.5382110000000  0.6299120000000 1.0
C      1  0.4617890000000  0.3885220000000  0.3700880000000 1.0
C      1  0.5382110000000  0.6114780000000  0.3700880000000 1.0
C      1  0.4617890000000  0.6114780000000  0.6299120000000 1.0
C      1  0.5382110000000  0.3885220000000  0.6299120000000 1.0
C      1  0.6946830000000  0.5806490000000  0.3970250000000 1.0
C      1  0.3053170000000  0.4193510000000  0.3970250000000 1.0
C      1  0.3053170000000  0.5806490000000  0.6029750000000 1.0
C      1  0.6946830000000  0.4193510000000  0.6029750000000 1.0
C      1  0.5806490000000  0.6946830000000  0.3970250000000 1.0
C      1  0.4193510000000  0.3053170000000  0.3970250000000 1.0
C      1  0.5806490000000  0.3053170000000  0.6029750000000 1.0
C      1  0.4193510000000  0.6946830000000  0.6029750000000 1.0
C      1  0.3880050000000  0.3129530000000  0.4933780000000 1.0
C      1  0.6119950000000  0.6870470000000  0.4933780000000 1.0
C      1  0.6119950000000  0.3129530000000  0.5066220000000 1.0
C      1  0.3880050000000  0.6870470000000  0.5066220000000 1.0
C      1  0.3129530000000  0.3880050000000  0.4933780000000 1.0
C      1  0.6870470000000  0.6119950000000  0.4933780000000 1.0
C      1  0.3129530000000  0.6119950000000  0.5066220000000 1.0
C      1  0.6870470000000  0.3880050000000  0.5066220000000 1.0
C      1  0.4998540000000  0.5803060000000  0.2724020000000 1.0
C      1  0.5001460000000  0.4196940000000  0.2724020000000 1.0
C      1  0.5001460000000  0.5803060000000  0.7275980000000 1.0
C      1  0.4998540000000  0.4196940000000  0.7275980000000 1.0
C      1  0.5803060000000  0.4998540000000  0.2724020000000 1.0
C      1  0.4196940000000  0.5001460000000  0.2724020000000 1.0
C      1  0.5803060000000  0.5001460000000  0.7275980000000 1.0
C      1  0.4196940000000  0.4998540000000  0.7275980000000 1.0
C      1  0.6499390000000  0.4225880000000  0.3165640000000 1.0
C      1  0.3500610000000  0.5774120000000  0.3165640000000 1.0
C      1  0.3500610000000  0.4225880000000  0.6834360000000 1.0
C      1  0.6499390000000  0.5774120000000  0.6834360000000 1.0
C      1  0.4225880000000  0.6499390000000  0.3165640000000 1.0
C      1  0.5774120000000  0.3500610000000  0.3165640000000 1.0
C      1  0.4225880000000  0.3500610000000  0.6834360000000 1.0
C      1  0.5774120000000  0.6499390000000  0.6834360000000 1.0
C      1  0.7176740000000  0.5000000000000  0.5000000000000 1.0
C      1  0.2823260000000  0.5000000000000  0.5000000000000 1.0
C      1  0.5000000000000  0.7176740000000  0.5000000000000 1.0
C      1  0.5000000000000  0.2823260000000  0.5000000000000 1.0
END
