TITL C-986978-6805-733 3.63015118819976e-06 3375 -347.498817010404 0 0 60 (C1) n - 1
REM
REM in /home/bkarasulu/work/CARBON/AIRSS/Generating-Clusters/REBO/Higher-Symm/Only-C60
REM
REM
REM
REM
REM
REM ./C.cell (a2850807a9bf4ad07a5b6933b78d9264)
REM AIRSS Version 0.9.1 bugfix July 2018 build 013d7b7c2542+ Fri, 06 Jul 2018 19:26:36 +0100
REM compiler GCC version 9.2.1 20190827 (Red Hat 9.2.1-1)
REM options -cpp -mtune=generic -march=x86-64 -g -O0 -fpre-include=/usr/include/finclude/math-vector-fortran.h
REM seed 1966635602 1431409619 -1355973458 993810931 840711745 -342954981 1260841640 383903043 -159962363 -721714706 1752523559 -1149171287 -1596228387 1366705888 652216891 331404860 1626624278 -2065678570 725410160 1273438699 -1882444038 790951526 -765730069 -1580292130 655767514 -1723561795 1985805428 686942051 -1689277134 -1466768223 -1635959112 1853904125 1993765775
REM
CELL 1.54180   15.00000   15.00000   15.00000   90.00000   90.00000   90.00000
LATT -1
SFAC C  
C      1  0.7091490000000  0.4819160000000  0.3569260000000 1.0
C      1  0.4177800000000  0.6930700000000  0.3634470000000 1.0
C      1  0.3775030000000  0.3366190000000  0.3641450000000 1.0
C      1  0.6264150000000  0.4840610000000  0.4601730000000 1.0
C      1  0.4485940000000  0.6239430000000  0.4717300000000 1.0
C      1  0.4296120000000  0.4034360000000  0.4659480000000 1.0
C      1  0.5093550000000  0.7098520000000  0.5963830000000 1.0
C      1  0.3176510000000  0.4059530000000  0.5936190000000 1.0
C      1  0.6720910000000  0.3877650000000  0.5882660000000 1.0
C      1  0.5100130000000  0.7167480000000  0.3993370000000 1.0
C      1  0.3130160000000  0.4027090000000  0.4020200000000 1.0
C      1  0.6902910000000  0.3893760000000  0.3929350000000 1.0
C      1  0.4895480000000  0.3142020000000  0.3617730000000 1.0
C      1  0.6696050000000  0.5897700000000  0.3527450000000 1.0
C      1  0.3473200000000  0.6028320000000  0.3617660000000 1.0
C      1  0.3737580000000  0.5721980000000  0.6239750000000 1.0
C      1  0.4993300000000  0.3540770000000  0.6264720000000 1.0
C      1  0.6167780000000  0.5698130000000  0.6191440000000 1.0
C      1  0.4066850000000  0.2598390000000  0.6094590000000 1.0
C      1  0.7467860000000  0.5459550000000  0.6029550000000 1.0
C      1  0.3345670000000  0.6984250000000  0.6077350000000 1.0
C      1  0.7149780000000  0.5531300000000  0.4450730000000 1.0
C      1  0.3467160000000  0.6686830000000  0.4492120000000 1.0
C      1  0.4308810000000  0.2879720000000  0.4515070000000 1.0
C      1  0.4444020000000  0.5101240000000  0.2374750000000 1.0
C      1  0.5259720000000  0.4439450000000  0.2351530000000 1.0
C      1  0.5420350000000  0.5471250000000  0.2409650000000 1.0
C      1  0.4670360000000  0.5941230000000  0.7156370000000 1.0
C      1  0.4335870000000  0.4261560000000  0.7164590000000 1.0
C      1  0.5960130000000  0.4798600000000  0.7142300000000 1.0
C      1  0.4321980000000  0.4984930000000  0.4319230000000 1.0
C      1  0.5636730000000  0.4066840000000  0.4305530000000 1.0
C      1  0.5236720000000  0.5624560000000  0.4285180000000 1.0
C      1  0.2928190000000  0.4931410000000  0.6153570000000 1.0
C      1  0.6079550000000  0.3250500000000  0.6118760000000 1.0
C      1  0.5957630000000  0.6818450000000  0.6197620000000 1.0
C      1  0.6045770000000  0.3223070000000  0.3654450000000 1.0
C      1  0.5912240000000  0.6728540000000  0.3669980000000 1.0
C      1  0.3112840000000  0.4947070000000  0.3748220000000 1.0
C      1  0.3875900000000  0.3585330000000  0.6486510000000 1.0
C      1  0.6747360000000  0.4742250000000  0.6413400000000 1.0
C      1  0.4313500000000  0.6680530000000  0.6468810000000 1.0
C      1  0.6601910000000  0.6678480000000  0.5412220000000 1.0
C      1  0.2667010000000  0.5651410000000  0.5454220000000 1.0
C      1  0.5559000000000  0.2613980000000  0.5493860000000 1.0
C      1  0.5326900000000  0.4121940000000  0.7151770000000 1.0
C      1  0.5572220000000  0.5726700000000  0.7131020000000 1.0
C      1  0.4062100000000  0.5146680000000  0.7140400000000 1.0
C      1  0.3754110000000  0.5550370000000  0.5123470000000 1.0
C      1  0.5176840000000  0.3652280000000  0.5162240000000 1.0
C      1  0.5997430000000  0.5756420000000  0.5082130000000 1.0
C      1  0.2959560000000  0.6599010000000  0.5337370000000 1.0
C      1  0.4590960000000  0.2460750000000  0.5355800000000 1.0
C      1  0.7304200000000  0.5990590000000  0.5299100000000 1.0
C      1  0.5414290000000  0.3990570000000  0.3178200000000 1.0
C      1  0.5663450000000  0.5746250000000  0.3312170000000 1.0
C      1  0.4026840000000  0.5184240000000  0.3236290000000 1.0
C      1  0.4970350000000  0.7131450000000  0.5041130000000 1.0
C      1  0.3257480000000  0.3897130000000  0.5032530000000 1.0
C      1  0.6852270000000  0.3981520000000  0.4968190000000 1.0
END
