TITL C-986979-5873-156 0.0143019495838512 3375 -342.046040580139 0 0 60 (D2) n - 1
REM
REM in /home/bkarasulu/work/CARBON/AIRSS/Generating-Clusters/REBO/Higher-Symm/Only-C60
REM
REM
REM
REM
REM
REM ./C.cell (a2850807a9bf4ad07a5b6933b78d9264)
REM AIRSS Version 0.9.1 bugfix July 2018 build 013d7b7c2542+ Fri, 06 Jul 2018 19:26:36 +0100
REM compiler GCC version 9.2.1 20190827 (Red Hat 9.2.1-1)
REM options -cpp -mtune=generic -march=x86-64 -g -O0 -fpre-include=/usr/include/finclude/math-vector-fortran.h
REM seed 1789283790 1409460431 -120729420 -746974418 732133645 283986381 978830131 -948174359 420026257 -2138120158 1586569682 -1588494769 -133751042 -2094943114 620552396 -885074635 -1603383330 -715323858 978653599 992253354 1345154480 72392255 875376462 -1098513905 1453991306 -1676076249 -62087160 1666751459 1215295275 1390458863 -1117400322 44179062 1628421714
REM
CELL 1.54180   15.00000   15.00000   15.00000   90.00000   90.00000   90.00000
LATT -1
SFAC C  
C      1  0.4745770000000  0.2432270000000  0.4051030000000 1.0
C      1  0.4746120000000  0.7563610000000  0.5950120000000 1.0
C      1  0.5254540000000  0.2438520000000  0.5953370000000 1.0
C      1  0.5253960000000  0.7557960000000  0.4045680000000 1.0
C      1  0.2742280000000  0.4653090000000  0.4675820000000 1.0
C      1  0.2740430000000  0.5346020000000  0.5323370000000 1.0
C      1  0.7260290000000  0.4651390000000  0.5323200000000 1.0
C      1  0.7262140000000  0.5346860000000  0.4677750000000 1.0
C      1  0.6038540000000  0.3380910000000  0.4256410000000 1.0
C      1  0.6040230000000  0.6619730000000  0.5741740000000 1.0
C      1  0.3959680000000  0.3382560000000  0.5741220000000 1.0
C      1  0.3957130000000  0.6619040000000  0.4259820000000 1.0
C      1  0.4591110000000  0.4691890000000  0.7273890000000 1.0
C      1  0.4591040000000  0.5316920000000  0.2728420000000 1.0
C      1  0.5409960000000  0.4698240000000  0.2724490000000 1.0
C      1  0.5410270000000  0.5310080000000  0.7273070000000 1.0
C      1  0.5100950000000  0.3238840000000  0.4518240000000 1.0
C      1  0.5101860000000  0.6757780000000  0.5481280000000 1.0
C      1  0.4897860000000  0.3241780000000  0.5481530000000 1.0
C      1  0.4896550000000  0.6755110000000  0.4517960000000 1.0
C      1  0.6715010000000  0.5246920000000  0.3686470000000 1.0
C      1  0.6715060000000  0.4754820000000  0.6315100000000 1.0
C      1  0.3285680000000  0.5244680000000  0.6315630000000 1.0
C      1  0.3285280000000  0.4758860000000  0.3683070000000 1.0
C      1  0.3302800000000  0.2601200000000  0.4913080000000 1.0
C      1  0.3300950000000  0.7397930000000  0.5090700000000 1.0
C      1  0.6696180000000  0.2604770000000  0.5087810000000 1.0
C      1  0.6698510000000  0.7394330000000  0.4908270000000 1.0
C      1  0.4860490000000  0.5485350000000  0.5795030000000 1.0
C      1  0.4859620000000  0.4510400000000  0.4200350000000 1.0
C      1  0.5138880000000  0.5481500000000  0.4208410000000 1.0
C      1  0.5139450000000  0.4514180000000  0.5795900000000 1.0
C      1  0.3949320000000  0.5704040000000  0.5680720000000 1.0
C      1  0.3947860000000  0.4290720000000  0.4311810000000 1.0
C      1  0.6049930000000  0.5698290000000  0.4325670000000 1.0
C      1  0.6050730000000  0.4295680000000  0.5681090000000 1.0
C      1  0.6321390000000  0.4979300000000  0.7160360000000 1.0
C      1  0.6320570000000  0.5030090000000  0.2839390000000 1.0
C      1  0.3678690000000  0.4988400000000  0.2838990000000 1.0
C      1  0.3680050000000  0.5022990000000  0.7161220000000 1.0
C      1  0.3836210000000  0.2233160000000  0.4217160000000 1.0
C      1  0.3835970000000  0.7762260000000  0.5787190000000 1.0
C      1  0.6164120000000  0.2239660000000  0.5786620000000 1.0
C      1  0.6164240000000  0.7755900000000  0.4209600000000 1.0
C      1  0.3328460000000  0.3734140000000  0.4970240000000 1.0
C      1  0.3325970000000  0.6265180000000  0.5028800000000 1.0
C      1  0.6670290000000  0.3736650000000  0.5024870000000 1.0
C      1  0.6672560000000  0.6262030000000  0.4975520000000 1.0
C      1  0.5242100000000  0.5938490000000  0.6555010000000 1.0
C      1  0.5243590000000  0.4063440000000  0.3437710000000 1.0
C      1  0.4759810000000  0.5940510000000  0.3450470000000 1.0
C      1  0.4757970000000  0.4061970000000  0.6556730000000 1.0
C      1  0.4462630000000  0.1937800000000  0.6224470000000 1.0
C      1  0.4462690000000  0.8061660000000  0.3777880000000 1.0
C      1  0.5538330000000  0.1931650000000  0.3782350000000 1.0
C      1  0.5538350000000  0.8065950000000  0.6217090000000 1.0
C      1  0.6354910000000  0.2390820000000  0.4066250000000 1.0
C      1  0.6355980000000  0.7609680000000  0.5930780000000 1.0
C      1  0.3644870000000  0.2392920000000  0.5936560000000 1.0
C      1  0.3643820000000  0.7609060000000  0.4067250000000 1.0
END
