TITL C-986974-580-995 6.43908173204736e-07 3375 -359.431994548358 0 0 60 (C5) n - 1
REM
REM in /home/bkarasulu/work/CARBON/AIRSS/Generating-Clusters/REBO/Higher-Symm/Only-C60
REM
REM
REM
REM
REM
REM ./C.cell (a2850807a9bf4ad07a5b6933b78d9264)
REM AIRSS Version 0.9.1 bugfix July 2018 build 013d7b7c2542+ Fri, 06 Jul 2018 19:26:36 +0100
REM compiler GCC version 9.2.1 20190827 (Red Hat 9.2.1-1)
REM options -cpp -mtune=generic -march=x86-64 -g -O0 -fpre-include=/usr/include/finclude/math-vector-fortran.h
REM seed 820292103 1153776091 146351716 -1089897187 1391109520 -1670107097 1531347201 -667374230 223396694 -983071501 -1465448643 1974417829 -364255662 1787361258 -1068719678 162085287 1869484754 2107204036 1092844773 433440208 -596804576 -158874613 1998910271 -959873566 -941644294 578153998 -1515430151 349243101 1226187785 -324404854 923627846 247561275 115432958
REM
CELL 1.54180   15.00000   15.00000   15.00000   90.00000   90.00000   90.00000
LATT -1
SFAC C  
C      1  0.4330720000000  0.4370290000000  0.5025880000000 1.0
C      1  0.4194290000000  0.5441930000000  0.5025880000000 1.0
C      1  0.5171320000000  0.5902840000000  0.5025870000000 1.0
C      1  0.5911590000000  0.5116050000000  0.5025870000000 1.0
C      1  0.5392070000000  0.4168890000000  0.5025870000000 1.0
C      1  0.2402470000000  0.5369760000000  0.6221130000000 1.0
C      1  0.4548980000000  0.7584690000000  0.6221120000000 1.0
C      1  0.7318790000000  0.6227650000000  0.6221120000000 1.0
C      1  0.6884120000000  0.3174050000000  0.6221110000000 1.0
C      1  0.3845650000000  0.2643850000000  0.6221120000000 1.0
C      1  0.6870050000000  0.5451040000000  0.4832560000000 1.0
C      1  0.6006840000000  0.3360860000000  0.4832560000000 1.0
C      1  0.3752210000000  0.3535910000000  0.4832570000000 1.0
C      1  0.3221980000000  0.5734290000000  0.4832570000000 1.0
C      1  0.5148910000000  0.6917900000000  0.4832570000000 1.0
C      1  0.6614440000000  0.6405860000000  0.3525410000000 1.0
C      1  0.6835940000000  0.3899000000000  0.3525410000000 1.0
C      1  0.4520220000000  0.2913690000000  0.3525410000000 1.0
C      1  0.2867540000000  0.4811590000000  0.3525420000000 1.0
C      1  0.4161840000000  0.6969870000000  0.3525420000000 1.0
C      1  0.6908200000000  0.6353200000000  0.5358670000000 1.0
C      1  0.6876640000000  0.3603350000000  0.5358660000000 1.0
C      1  0.4251620000000  0.2783620000000  0.5358670000000 1.0
C      1  0.2660840000000  0.5026850000000  0.5358680000000 1.0
C      1  0.4302700000000  0.7232970000000  0.5358670000000 1.0
C      1  0.5063740000000  0.7014640000000  0.3832750000000 1.0
C      1  0.6935730000000  0.5561940000000  0.3832750000000 1.0
C      1  0.6132610000000  0.3332660000000  0.3832750000000 1.0
C      1  0.3764250000000  0.3407590000000  0.3832750000000 1.0
C      1  0.3103660000000  0.5683180000000  0.3832760000000 1.0
C      1  0.4369840000000  0.5544600000000  0.2835920000000 1.0
C      1  0.5323210000000  0.5767600000000  0.2835920000000 1.0
C      1  0.5829910000000  0.4929810000000  0.2835920000000 1.0
C      1  0.5189690000000  0.4189020000000  0.2835920000000 1.0
C      1  0.4287320000000  0.4568980000000  0.2835920000000 1.0
C      1  0.4420930000000  0.5625850000000  0.6087260000000 1.0
C      1  0.5416280000000  0.5744120000000  0.6087260000000 1.0
C      1  0.5836340000000  0.4834040000000  0.6087260000000 1.0
C      1  0.5100610000000  0.4153310000000  0.6087260000000 1.0
C      1  0.4225840000000  0.4642670000000  0.6087260000000 1.0
C      1  0.5265650000000  0.3298800000000  0.6625990000000 1.0
C      1  0.3464170000000  0.4221650000000  0.6625990000000 1.0
C      1  0.3785160000000  0.6220160000000  0.6625990000000 1.0
C      1  0.5785020000000  0.6532440000000  0.6625990000000 1.0
C      1  0.6700020000000  0.4726940000000  0.6625990000000 1.0
C      1  0.3151380000000  0.5302600000000  0.6811320000000 1.0
C      1  0.4716540000000  0.6851680000000  0.6811320000000 1.0
C      1  0.6673430000000  0.5841780000000  0.6811310000000 1.0
C      1  0.6317710000000  0.3668580000000  0.6811310000000 1.0
C      1  0.4140950000000  0.3335350000000  0.6811320000000 1.0
C      1  0.3620650000000  0.6529810000000  0.5535810000000 1.0
C      1  0.6028690000000  0.6784580000000  0.5535800000000 1.0
C      1  0.7015120000000  0.4573120000000  0.5535800000000 1.0
C      1  0.5216720000000  0.2951590000000  0.5535800000000 1.0
C      1  0.3118820000000  0.4160890000000  0.5535810000000 1.0
C      1  0.3545210000000  0.4178140000000  0.3307320000000 1.0
C      1  0.3768810000000  0.6129620000000  0.3307320000000 1.0
C      1  0.5693870000000  0.6520010000000  0.3307320000000 1.0
C      1  0.6660020000000  0.4809800000000  0.3307320000000 1.0
C      1  0.5332080000000  0.3362440000000  0.3307320000000 1.0
END
