TITL C-986974-580-775 0.0513538986793996 3375 -345.335298029134 0 0 60 (C2h) n - 1
REM
REM in /home/bkarasulu/work/CARBON/AIRSS/Generating-Clusters/REBO/Higher-Symm/Only-C60
REM
REM
REM
REM
REM
REM ./C.cell (a2850807a9bf4ad07a5b6933b78d9264)
REM AIRSS Version 0.9.1 bugfix July 2018 build 013d7b7c2542+ Fri, 06 Jul 2018 19:26:36 +0100
REM compiler GCC version 9.2.1 20190827 (Red Hat 9.2.1-1)
REM options -cpp -mtune=generic -march=x86-64 -g -O0 -fpre-include=/usr/include/finclude/math-vector-fortran.h
REM seed -298840355 1395010523 433584443 -915885527 669776051 -135997643 404976584 844311987 187668954 414409017 837790136 2047994338 -1606452313 -1771759717 -51430080 -1333038184 1537319551 -5461582 -1670495327 451996858 -2072051221 -90006593 1603258097 824721912 -1567729787 82068642 743873445 137043127 -340975116 855841017 -2127474374 910190711 1139616171
REM
CELL 1.54180   15.00000   15.00000   15.00000   90.00000   90.00000   90.00000
LATT -1
SFAC C  
C      1  0.3192370000000  0.5533290000000  0.4849480000000 1.0
C      1  0.6811030000000  0.5528910000000  0.5148390000000 1.0
C      1  0.3190810000000  0.4468840000000  0.4850700000000 1.0
C      1  0.6806520000000  0.4464250000000  0.5153620000000 1.0
C      1  0.2143100000000  0.4498340000000  0.5332820000000 1.0
C      1  0.7850800000000  0.4504220000000  0.4669960000000 1.0
C      1  0.2145760000000  0.5499390000000  0.5331860000000 1.0
C      1  0.7860380000000  0.5505110000000  0.4666280000000 1.0
C      1  0.4832640000000  0.3938540000000  0.4355410000000 1.0
C      1  0.5166560000000  0.3937960000000  0.5644420000000 1.0
C      1  0.4834310000000  0.6061860000000  0.4356000000000 1.0
C      1  0.5167860000000  0.6061210000000  0.5644120000000 1.0
C      1  0.5843590000000  0.4118990000000  0.4835710000000 1.0
C      1  0.4155570000000  0.4118960000000  0.5164210000000 1.0
C      1  0.5845390000000  0.5881110000000  0.4835610000000 1.0
C      1  0.4157050000000  0.5880920000000  0.5164410000000 1.0
C      1  0.4121550000000  0.2761650000000  0.5504480000000 1.0
C      1  0.5878370000000  0.2761660000000  0.4495710000000 1.0
C      1  0.4121580000000  0.7238360000000  0.5504390000000 1.0
C      1  0.5878240000000  0.7238180000000  0.4495700000000 1.0
C      1  0.5617830000000  0.5898290000000  0.7465900000000 1.0
C      1  0.4382150000000  0.5898390000000  0.2534110000000 1.0
C      1  0.5617800000000  0.4101470000000  0.7465870000000 1.0
C      1  0.4382020000000  0.4101630000000  0.2534080000000 1.0
C      1  0.3724290000000  0.5462580000000  0.2079830000000 1.0
C      1  0.6275580000000  0.5462460000000  0.7920370000000 1.0
C      1  0.3724210000000  0.4537490000000  0.2079820000000 1.0
C      1  0.6275570000000  0.4537310000000  0.7920320000000 1.0
C      1  0.5043300000000  0.7508220000000  0.4106770000000 1.0
C      1  0.4956920000000  0.7508630000000  0.5892890000000 1.0
C      1  0.5043270000000  0.2491600000000  0.4106850000000 1.0
C      1  0.4956780000000  0.2491430000000  0.5893000000000 1.0
C      1  0.5716860000000  0.2955840000000  0.5452440000000 1.0
C      1  0.4283380000000  0.2955900000000  0.4547450000000 1.0
C      1  0.5716770000000  0.7044010000000  0.5452450000000 1.0
C      1  0.4283390000000  0.7043850000000  0.4547430000000 1.0
C      1  0.7188830000000  0.3702890000000  0.4417500000000 1.0
C      1  0.2810690000000  0.3701840000000  0.5582960000000 1.0
C      1  0.7189050000000  0.6297950000000  0.4416620000000 1.0
C      1  0.2810800000000  0.6297980000000  0.5582780000000 1.0
C      1  0.6494760000000  0.6730530000000  0.3934970000000 1.0
C      1  0.3504720000000  0.6732200000000  0.6065160000000 1.0
C      1  0.6495640000000  0.3267780000000  0.3934700000000 1.0
C      1  0.3505060000000  0.3268930000000  0.6064910000000 1.0
C      1  0.6089740000000  0.6089900000000  0.3197260000000 1.0
C      1  0.3909930000000  0.6090080000000  0.6802620000000 1.0
C      1  0.6089620000000  0.3909680000000  0.3197240000000 1.0
C      1  0.3910000000000  0.3909990000000  0.6802520000000 1.0
C      1  0.6146900000000  0.4552240000000  0.3948910000000 1.0
C      1  0.3850540000000  0.4551540000000  0.6050810000000 1.0
C      1  0.6148220000000  0.5448570000000  0.3948680000000 1.0
C      1  0.3851050000000  0.5447640000000  0.6050650000000 1.0
C      1  0.4562270000000  0.5562100000000  0.7429560000000 1.0
C      1  0.5437650000000  0.5561990000000  0.2569810000000 1.0
C      1  0.4562240000000  0.4437810000000  0.7429610000000 1.0
C      1  0.5437550000000  0.4437830000000  0.2569910000000 1.0
C      1  0.4713620000000  0.5535700000000  0.3529790000000 1.0
C      1  0.5287350000000  0.5535180000000  0.6470300000000 1.0
C      1  0.4713220000000  0.4464550000000  0.3529690000000 1.0
C      1  0.5286970000000  0.4464230000000  0.6470180000000 1.0
END
