TITL C-986978-6805-177 -8.59117828221299e-07 3375 -355.982963779517 0 0 60 (C3) n - 1
REM
REM in /home/bkarasulu/work/CARBON/AIRSS/Generating-Clusters/REBO/Higher-Symm/Only-C60
REM
REM
REM
REM
REM
REM ./C.cell (a2850807a9bf4ad07a5b6933b78d9264)
REM AIRSS Version 0.9.1 bugfix July 2018 build 013d7b7c2542+ Fri, 06 Jul 2018 19:26:36 +0100
REM compiler GCC version 9.2.1 20190827 (Red Hat 9.2.1-1)
REM options -cpp -mtune=generic -march=x86-64 -g -O0 -fpre-include=/usr/include/finclude/math-vector-fortran.h
REM seed 1041167033 639161816 1828137033 -12435491 1161518197 1708209707 1606023408 58393042 1952406902 914944106 2007108016 -1922479080 -1543412358 -1662696144 -46423688 -394188305 -829568275 910642090 1780165966 -1219227164 -1886089375 1900652630 -22862804 1804836274 1494749087 -1400528306 1497173941 -769475713 1315858027 -1828033170 -1105992554 -638078898 892804683
REM
CELL 1.54180   15.00000   15.00000   15.00000   90.00000   90.00000   90.00000
LATT -1
SFAC C  
C      1  0.5693100000000  0.3689040000000  0.7036940000000 1.0
C      1  0.7037250000000  0.5693590000000  0.3689780000000 1.0
C      1  0.3689310000000  0.7036960000000  0.5693550000000 1.0
C      1  0.5656520000000  0.6311760000000  0.2943620000000 1.0
C      1  0.4344540000000  0.6311100000000  0.7083620000000 1.0
C      1  0.4322990000000  0.3702320000000  0.2924570000000 1.0
C      1  0.7083300000000  0.4344580000000  0.6311620000000 1.0
C      1  0.2925050000000  0.4322950000000  0.3701570000000 1.0
C      1  0.2943130000000  0.5656030000000  0.6311260000000 1.0
C      1  0.3702040000000  0.2925010000000  0.4322190000000 1.0
C      1  0.6311320000000  0.2943190000000  0.5656070000000 1.0
C      1  0.6311560000000  0.7083590000000  0.4345340000000 1.0
C      1  0.4394260000000  0.2994190000000  0.3673840000000 1.0
C      1  0.3674520000000  0.4394440000000  0.2993680000000 1.0
C      1  0.2994040000000  0.3674370000000  0.4393600000000 1.0
C      1  0.4393360000000  0.7003410000000  0.6322230000000 1.0
C      1  0.5604780000000  0.7029620000000  0.3704960000000 1.0
C      1  0.5625340000000  0.2946630000000  0.6317510000000 1.0
C      1  0.3704260000000  0.5604260000000  0.7029330000000 1.0
C      1  0.6318060000000  0.5625870000000  0.2947140000000 1.0
C      1  0.6321700000000  0.4393180000000  0.7003700000000 1.0
C      1  0.2946780000000  0.6317680000000  0.5625470000000 1.0
C      1  0.7003720000000  0.6322070000000  0.4394020000000 1.0
C      1  0.7029310000000  0.3704420000000  0.5604650000000 1.0
C      1  0.4500120000000  0.5344680000000  0.6001840000000 1.0
C      1  0.6001790000000  0.4500180000000  0.5344890000000 1.0
C      1  0.5344920000000  0.6001920000000  0.4500460000000 1.0
C      1  0.4566510000000  0.4762010000000  0.3906680000000 1.0
C      1  0.5346880000000  0.4762350000000  0.6178520000000 1.0
C      1  0.5530720000000  0.5126720000000  0.3891760000000 1.0
C      1  0.6178550000000  0.5347070000000  0.4762770000000 1.0
C      1  0.3891660000000  0.5530550000000  0.5126480000000 1.0
C      1  0.3906800000000  0.4566410000000  0.4761600000000 1.0
C      1  0.5126450000000  0.3891570000000  0.5530400000000 1.0
C      1  0.4761870000000  0.3906860000000  0.4566140000000 1.0
C      1  0.4762520000000  0.6178460000000  0.5347200000000 1.0
C      1  0.6276420000000  0.6856070000000  0.5363300000000 1.0
C      1  0.5362570000000  0.6276140000000  0.6856400000000 1.0
C      1  0.6855970000000  0.5362580000000  0.6276760000000 1.0
C      1  0.6240270000000  0.3198880000000  0.4663600000000 1.0
C      1  0.3732350000000  0.3109480000000  0.5343810000000 1.0
C      1  0.3774450000000  0.6804900000000  0.4708440000000 1.0
C      1  0.5344540000000  0.3732730000000  0.3109360000000 1.0
C      1  0.4708050000000  0.3774090000000  0.6804600000000 1.0
C      1  0.4663980000000  0.6240550000000  0.3199000000000 1.0
C      1  0.6805010000000  0.4708490000000  0.3774590000000 1.0
C      1  0.3198660000000  0.4663530000000  0.6239940000000 1.0
C      1  0.3109700000000  0.5344520000000  0.3732210000000 1.0
C      1  0.3191920000000  0.4082210000000  0.5419020000000 1.0
C      1  0.5419530000000  0.3192140000000  0.4082020000000 1.0
C      1  0.4082510000000  0.5419730000000  0.3191930000000 1.0
C      1  0.3071740000000  0.5956860000000  0.4553580000000 1.0
C      1  0.6847600000000  0.5895940000000  0.5420520000000 1.0
C      1  0.6784760000000  0.4159660000000  0.4595210000000 1.0
C      1  0.5420010000000  0.6847500000000  0.5896390000000 1.0
C      1  0.4595230000000  0.6784850000000  0.4159850000000 1.0
C      1  0.4553530000000  0.3071510000000  0.5956390000000 1.0
C      1  0.4159360000000  0.4594810000000  0.6784520000000 1.0
C      1  0.5957040000000  0.4553990000000  0.3071720000000 1.0
C      1  0.5895780000000  0.5419800000000  0.6847850000000 1.0
END
