TITL C-986974-580-170 0.00679758424517653 3375 -344.229144458319 0 0 60 (T23) n - 1
REM
REM in /home/bkarasulu/work/CARBON/AIRSS/Generating-Clusters/REBO/Higher-Symm/Only-C60
REM
REM
REM
REM
REM
REM ./C.cell (a2850807a9bf4ad07a5b6933b78d9264)
REM AIRSS Version 0.9.1 bugfix July 2018 build 013d7b7c2542+ Fri, 06 Jul 2018 19:26:36 +0100
REM compiler GCC version 9.2.1 20190827 (Red Hat 9.2.1-1)
REM options -cpp -mtune=generic -march=x86-64 -g -O0 -fpre-include=/usr/include/finclude/math-vector-fortran.h
REM seed -822197020 1229892475 1939281021 -831615141 344656539 1457509688 -2135494430 1634972700 -1114879098 1567121940 -1779074666 1970730245 -1846239999 -2119000230 563196838 1978329591 782275688 813080952 1117598023 2089363033 617838130 -1832442252 1512037831 924475021 1501721821 -1281668518 -1920288021 -1836715758 -385191443 1959846000 -1993300946 1676756211 1575544871
REM
CELL 1.54180   15.00000   15.00000   15.00000   90.00000   90.00000   90.00000
LATT -1
SFAC C  
C      1  0.6431950000000  0.6960920000000  0.4577390000000 1.0
C      1  0.4577220000000  0.6431980000000  0.6960670000000 1.0
C      1  0.6960940000000  0.4577240000000  0.6432030000000 1.0
C      1  0.6432030000000  0.3039260000000  0.5422810000000 1.0
C      1  0.3568000000000  0.3039050000000  0.4577370000000 1.0
C      1  0.3567920000000  0.6960900000000  0.5422820000000 1.0
C      1  0.4577320000000  0.3568060000000  0.3039090000000 1.0
C      1  0.5422740000000  0.3568000000000  0.6960730000000 1.0
C      1  0.5422700000000  0.6431960000000  0.3039030000000 1.0
C      1  0.6960850000000  0.5422800000000  0.3568010000000 1.0
C      1  0.3039140000000  0.5422710000000  0.6432000000000 1.0
C      1  0.3039180000000  0.4577200000000  0.3567990000000 1.0
C      1  0.4572410000000  0.5351510000000  0.6952830000000 1.0
C      1  0.6953000000000  0.4572480000000  0.5351540000000 1.0
C      1  0.5351650000000  0.6952530000000  0.4572400000000 1.0
C      1  0.4572410000000  0.4648510000000  0.3047150000000 1.0
C      1  0.5427560000000  0.4648450000000  0.6952720000000 1.0
C      1  0.5427590000000  0.5351480000000  0.3047300000000 1.0
C      1  0.6952390000000  0.5427630000000  0.4648520000000 1.0
C      1  0.3047050000000  0.5427520000000  0.5351570000000 1.0
C      1  0.3047430000000  0.4572370000000  0.4648520000000 1.0
C      1  0.5351430000000  0.3047080000000  0.5427580000000 1.0
C      1  0.4648380000000  0.3047380000000  0.4572410000000 1.0
C      1  0.4648580000000  0.6952980000000  0.5427540000000 1.0
C      1  0.4033640000000  0.3153180000000  0.6433020000000 1.0
C      1  0.6432990000000  0.4033660000000  0.3153110000000 1.0
C      1  0.3153290000000  0.6432860000000  0.4033790000000 1.0
C      1  0.4033730000000  0.6846830000000  0.3567100000000 1.0
C      1  0.5966350000000  0.6846790000000  0.6432960000000 1.0
C      1  0.5966260000000  0.3153230000000  0.3567140000000 1.0
C      1  0.6432920000000  0.5966240000000  0.6846710000000 1.0
C      1  0.3567040000000  0.5966350000000  0.3153140000000 1.0
C      1  0.3567030000000  0.4033720000000  0.6846770000000 1.0
C      1  0.3153080000000  0.3566960000000  0.5966440000000 1.0
C      1  0.6846720000000  0.3567140000000  0.4033790000000 1.0
C      1  0.6846940000000  0.6433070000000  0.5966430000000 1.0
C      1  0.4042030000000  0.4998660000000  0.5663940000000 1.0
C      1  0.5663640000000  0.4041990000000  0.4998460000000 1.0
C      1  0.4999150000000  0.5663620000000  0.4042330000000 1.0
C      1  0.4042170000000  0.5001360000000  0.4336210000000 1.0
C      1  0.5957800000000  0.5001480000000  0.5663470000000 1.0
C      1  0.5957930000000  0.4998340000000  0.4336220000000 1.0
C      1  0.5664010000000  0.5957970000000  0.5001320000000 1.0
C      1  0.4336320000000  0.5957610000000  0.4998890000000 1.0
C      1  0.4335960000000  0.4042240000000  0.5001390000000 1.0
C      1  0.4998770000000  0.4336310000000  0.5957570000000 1.0
C      1  0.5001080000000  0.4336230000000  0.4042130000000 1.0
C      1  0.5001370000000  0.5663930000000  0.5957810000000 1.0
C      1  0.5043380000000  0.6934440000000  0.6353040000000 1.0
C      1  0.6353140000000  0.5043260000000  0.6934540000000 1.0
C      1  0.6934460000000  0.6353230000000  0.5043330000000 1.0
C      1  0.5043250000000  0.3065620000000  0.3646890000000 1.0
C      1  0.4956620000000  0.3065460000000  0.6353120000000 1.0
C      1  0.4956760000000  0.6934650000000  0.3646800000000 1.0
C      1  0.6353190000000  0.4956720000000  0.3065400000000 1.0
C      1  0.3646880000000  0.4956720000000  0.6934310000000 1.0
C      1  0.3646820000000  0.5043290000000  0.3065470000000 1.0
C      1  0.6934470000000  0.3646880000000  0.4956800000000 1.0
C      1  0.3065450000000  0.3646780000000  0.5043370000000 1.0
C      1  0.3065450000000  0.6353140000000  0.4956780000000 1.0
END
