TITL C-986976-6631-781 -1.83998306525571e-06 3375 -355.913910604571 0 0 60 (C2) n - 1
REM
REM in /home/bkarasulu/work/CARBON/AIRSS/Generating-Clusters/REBO/Higher-Symm/Only-C60
REM
REM
REM
REM
REM
REM ./C.cell (a2850807a9bf4ad07a5b6933b78d9264)
REM AIRSS Version 0.9.1 bugfix July 2018 build 013d7b7c2542+ Fri, 06 Jul 2018 19:26:36 +0100
REM compiler GCC version 9.2.1 20190827 (Red Hat 9.2.1-1)
REM options -cpp -mtune=generic -march=x86-64 -g -O0 -fpre-include=/usr/include/finclude/math-vector-fortran.h
REM seed -597073742 -316413539 -363057716 -561730210 -1955812538 -178719640 142234151 -41939722 -2056068861 1978581462 71673344 160028547 -755291874 -1907033323 863278886 1904618519 1612187765 -203819769 1359204326 -1350591558 -215368524 -990194394 860651665 633513305 -964326143 -626255119 -1251627318 -1573809272 -320184372 -2000149863 840286805 1908416989 -1027554991
REM
CELL 1.54180   15.00000   15.00000   15.00000   90.00000   90.00000   90.00000
LATT -1
SFAC C  
C      1  0.3621500000000  0.3243180000000  0.4208880000000 1.0
C      1  0.6378500000000  0.6756820000000  0.4208880000000 1.0
C      1  0.6211200000000  0.6888320000000  0.5168850000000 1.0
C      1  0.3788800000000  0.3111680000000  0.5168850000000 1.0
C      1  0.7195370000000  0.6317280000000  0.3954700000000 1.0
C      1  0.2804630000000  0.3682720000000  0.3954700000000 1.0
C      1  0.6696810000000  0.5319850000000  0.5078530000000 1.0
C      1  0.3303190000000  0.4680150000000  0.5078530000000 1.0
C      1  0.6009870000000  0.3315120000000  0.4095660000000 1.0
C      1  0.3990130000000  0.6684880000000  0.4095660000000 1.0
C      1  0.4072650000000  0.5484470000000  0.7125470000000 1.0
C      1  0.5927350000000  0.4515530000000  0.7125470000000 1.0
C      1  0.4631240000000  0.5401820000000  0.6287630000000 1.0
C      1  0.5368760000000  0.4598180000000  0.6287630000000 1.0
C      1  0.7188920000000  0.5385180000000  0.4198000000000 1.0
C      1  0.2811080000000  0.4614820000000  0.4198000000000 1.0
C      1  0.5224320000000  0.6879790000000  0.5434860000000 1.0
C      1  0.4775680000000  0.3120210000000  0.5434860000000 1.0
C      1  0.7361690000000  0.4669370000000  0.6498820000000 1.0
C      1  0.2638310000000  0.5330630000000  0.6498820000000 1.0
C      1  0.6023470000000  0.4540360000000  0.5472120000000 1.0
C      1  0.3976530000000  0.5459640000000  0.5472120000000 1.0
C      1  0.5451950000000  0.5997220000000  0.6053110000000 1.0
C      1  0.4548050000000  0.4002780000000  0.6053110000000 1.0
C      1  0.5631690000000  0.5704490000000  0.4972940000000 1.0
C      1  0.4368310000000  0.4295510000000  0.4972940000000 1.0
C      1  0.5581690000000  0.6141550000000  0.3950960000000 1.0
C      1  0.4418310000000  0.3858450000000  0.3950960000000 1.0
C      1  0.4586430000000  0.4605620000000  0.2365070000000 1.0
C      1  0.5413570000000  0.5394380000000  0.2365070000000 1.0
C      1  0.5662110000000  0.5022150000000  0.3787220000000 1.0
C      1  0.4337890000000  0.4977850000000  0.3787220000000 1.0
C      1  0.3062820000000  0.5269560000000  0.3540580000000 1.0
C      1  0.6937180000000  0.4730440000000  0.3540580000000 1.0
C      1  0.3613040000000  0.4034420000000  0.6597680000000 1.0
C      1  0.6386960000000  0.5965580000000  0.6597680000000 1.0
C      1  0.5431680000000  0.4387590000000  0.4632120000000 1.0
C      1  0.4568320000000  0.5612410000000  0.4632120000000 1.0
C      1  0.3238260000000  0.6163340000000  0.3841370000000 1.0
C      1  0.6761740000000  0.3836660000000  0.3841370000000 1.0
C      1  0.3729530000000  0.6997880000000  0.6673330000000 1.0
C      1  0.6270470000000  0.3002120000000  0.6673330000000 1.0
C      1  0.3293320000000  0.3792200000000  0.5670870000000 1.0
C      1  0.6706680000000  0.6207800000000  0.5670870000000 1.0
C      1  0.6088440000000  0.3606050000000  0.7354940000000 1.0
C      1  0.3911560000000  0.6393950000000  0.7354940000000 1.0
C      1  0.5265420000000  0.3417360000000  0.3531490000000 1.0
C      1  0.4734580000000  0.6582640000000  0.3531490000000 1.0
C      1  0.6285010000000  0.5106790000000  0.2819200000000 1.0
C      1  0.3714990000000  0.4893210000000  0.2819200000000 1.0
C      1  0.5290090000000  0.4261710000000  0.3033040000000 1.0
C      1  0.4709910000000  0.5738290000000  0.3033040000000 1.0
C      1  0.3331040000000  0.4865050000000  0.6995920000000 1.0
C      1  0.6668960000000  0.5134950000000  0.6995920000000 1.0
C      1  0.2993940000000  0.5850880000000  0.5782190000000 1.0
C      1  0.7006060000000  0.4149120000000  0.5782190000000 1.0
C      1  0.3558570000000  0.6682520000000  0.5791990000000 1.0
C      1  0.6441430000000  0.3317480000000  0.5791990000000 1.0
C      1  0.5732030000000  0.3299720000000  0.5082450000000 1.0
C      1  0.4267970000000  0.6700280000000  0.5082450000000 1.0
END
