TITL C-986978-6805-233 0.0275113045447457 3375 -348.73934318239 0 0 60 (C1) n - 1
REM
REM in /home/bkarasulu/work/CARBON/AIRSS/Generating-Clusters/REBO/Higher-Symm/Only-C60
REM
REM
REM
REM
REM
REM ./C.cell (a2850807a9bf4ad07a5b6933b78d9264)
REM AIRSS Version 0.9.1 bugfix July 2018 build 013d7b7c2542+ Fri, 06 Jul 2018 19:26:36 +0100
REM compiler GCC version 9.2.1 20190827 (Red Hat 9.2.1-1)
REM options -cpp -mtune=generic -march=x86-64 -g -O0 -fpre-include=/usr/include/finclude/math-vector-fortran.h
REM seed 596803760 -793257212 1751337286 1673944825 1377209650 -20687618 -1092797122 1842624160 618403790 1274673196 -609510853 -101593763 1072436116 -1522419450 -1311240772 619763488 1971213733 -1243033093 151588066 -767340067 1634682204 1131725445 -628418223 -751810501 -1544167432 -325965036 -768006636 1762795506 302055432 -1346786149 1726505649 1422863752 -93759139
REM
CELL 1.54180   15.00000   15.00000   15.00000   90.00000   90.00000   90.00000
LATT -1
SFAC C  
C      1  0.3504130000000  0.3336950000000  0.3236750000000 1.0
C      1  0.3141440000000  0.6556660000000  0.6524320000000 1.0
C      1  0.6533140000000  0.3323230000000  0.6811650000000 1.0
C      1  0.6812780000000  0.6666900000000  0.3518570000000 1.0
C      1  0.6620010000000  0.3229530000000  0.5862380000000 1.0
C      1  0.5864660000000  0.6764150000000  0.3395820000000 1.0
C      1  0.3360410000000  0.3292620000000  0.4189020000000 1.0
C      1  0.4084450000000  0.6646050000000  0.6605900000000 1.0
C      1  0.7525690000000  0.5038280000000  0.5263800000000 1.0
C      1  0.5292930000000  0.4949400000000  0.2477600000000 1.0
C      1  0.2441350000000  0.5174270000000  0.4558050000000 1.0
C      1  0.4815470000000  0.4957480000000  0.7562240000000 1.0
C      1  0.6781620000000  0.4930330000000  0.3531780000000 1.0
C      1  0.3569440000000  0.5080370000000  0.3200330000000 1.0
C      1  0.3143570000000  0.4730810000000  0.6239370000000 1.0
C      1  0.6481120000000  0.5084730000000  0.6770950000000 1.0
C      1  0.5382850000000  0.6662020000000  0.4208340000000 1.0
C      1  0.4176650000000  0.3405550000000  0.4670410000000 1.0
C      1  0.4555420000000  0.6618090000000  0.5788380000000 1.0
C      1  0.5791330000000  0.3307030000000  0.5400960000000 1.0
C      1  0.4932200000000  0.3771640000000  0.4234010000000 1.0
C      1  0.4109160000000  0.6259960000000  0.5036630000000 1.0
C      1  0.5057840000000  0.3682950000000  0.5865510000000 1.0
C      1  0.5809310000000  0.6258900000000  0.4946280000000 1.0
C      1  0.4476470000000  0.6199670000000  0.4096390000000 1.0
C      1  0.4064480000000  0.3845120000000  0.5603760000000 1.0
C      1  0.5468180000000  0.6154430000000  0.5891860000000 1.0
C      1  0.5902030000000  0.3831000000000  0.4524420000000 1.0
C      1  0.5848640000000  0.4289600000000  0.2834410000000 1.0
C      1  0.2794780000000  0.5798770000000  0.4008480000000 1.0
C      1  0.4312470000000  0.4249930000000  0.7349460000000 1.0
C      1  0.7181960000000  0.5705430000000  0.5827670000000 1.0
C      1  0.4561390000000  0.5993870000000  0.7258990000000 1.0
C      1  0.7287640000000  0.3931030000000  0.5399200000000 1.0
C      1  0.5428140000000  0.6060850000000  0.2704900000000 1.0
C      1  0.2654730000000  0.4048990000000  0.4556200000000 1.0
C      1  0.2545470000000  0.4649770000000  0.5515710000000 1.0
C      1  0.5652180000000  0.5670960000000  0.7275560000000 1.0
C      1  0.7305180000000  0.4371360000000  0.4356630000000 1.0
C      1  0.4385980000000  0.5626630000000  0.2649080000000 1.0
C      1  0.5912500000000  0.3941190000000  0.7131960000000 1.0
C      1  0.7116990000000  0.6052420000000  0.4154990000000 1.0
C      1  0.4154370000000  0.3925540000000  0.2908800000000 1.0
C      1  0.2830120000000  0.5970030000000  0.5874660000000 1.0
C      1  0.5062350000000  0.5294490000000  0.3743440000000 1.0
C      1  0.3743430000000  0.4707160000000  0.4945530000000 1.0
C      1  0.4942160000000  0.5218970000000  0.6248060000000 1.0
C      1  0.6246170000000  0.4720000000000  0.5077870000000 1.0
C      1  0.4723330000000  0.4387880000000  0.3542190000000 1.0
C      1  0.3482700000000  0.5589130000000  0.5277460000000 1.0
C      1  0.5325480000000  0.4353320000000  0.6490000000000 1.0
C      1  0.6458680000000  0.5611940000000  0.4711740000000 1.0
C      1  0.6033020000000  0.5453450000000  0.3458710000000 1.0
C      1  0.3476900000000  0.4589390000000  0.3965440000000 1.0
C      1  0.3954550000000  0.5326330000000  0.6503260000000 1.0
C      1  0.6563830000000  0.4542790000000  0.6035120000000 1.0
C      1  0.3770320000000  0.4008310000000  0.6621830000000 1.0
C      1  0.6344170000000  0.6119390000000  0.6478280000000 1.0
C      1  0.6507900000000  0.3893010000000  0.3674020000000 1.0
C      1  0.3694340000000  0.6139940000000  0.3404900000000 1.0
END
