TITL C-986979-5873-719 1.03631119785845e-05 3375 -348.007143241328 0 0 60 (D2) n - 1
REM
REM in /home/bkarasulu/work/CARBON/AIRSS/Generating-Clusters/REBO/Higher-Symm/Only-C60
REM
REM
REM
REM
REM
REM ./C.cell (a2850807a9bf4ad07a5b6933b78d9264)
REM AIRSS Version 0.9.1 bugfix July 2018 build 013d7b7c2542+ Fri, 06 Jul 2018 19:26:36 +0100
REM compiler GCC version 9.2.1 20190827 (Red Hat 9.2.1-1)
REM options -cpp -mtune=generic -march=x86-64 -g -O0 -fpre-include=/usr/include/finclude/math-vector-fortran.h
REM seed 620296158 -1153806654 2126651239 -354857604 -1917081461 -1727364791 -885969462 538416136 -934093074 1022060489 322502736 -1162581443 -672577069 -461299431 -1489900676 -721295149 -1439006428 278907505 -1764019332 330222219 -367167281 -1590851444 1704014999 -718481737 -937795704 778497423 -387513789 1789758971 1289420881 1843946192 251991361 -1554263278 -149355136
REM
CELL 1.54180   15.00000   15.00000   15.00000   90.00000   90.00000   90.00000
LATT -1
SFAC C  
C      1  0.6340500000000  0.6800200000000  0.4883840000000 1.0
C      1  0.3659500000000  0.3199800000000  0.4883840000000 1.0
C      1  0.3659490000000  0.6800190000000  0.5116170000000 1.0
C      1  0.6340510000000  0.3199810000000  0.5116150000000 1.0
C      1  0.5680690000000  0.6040680000000  0.2978720000000 1.0
C      1  0.4319300000000  0.3959330000000  0.2978720000000 1.0
C      1  0.4319300000000  0.6040660000000  0.7021280000000 1.0
C      1  0.5680710000000  0.3959330000000  0.7021270000000 1.0
C      1  0.7670890000000  0.4684970000000  0.5342290000000 1.0
C      1  0.2329120000000  0.5315030000000  0.5342300000000 1.0
C      1  0.2329120000000  0.4684960000000  0.4657710000000 1.0
C      1  0.7670880000000  0.5315050000000  0.4657700000000 1.0
C      1  0.2956460000000  0.6172170000000  0.5418770000000 1.0
C      1  0.7043540000000  0.3827830000000  0.5418750000000 1.0
C      1  0.7043530000000  0.6172180000000  0.4581240000000 1.0
C      1  0.2956460000000  0.3827820000000  0.4581240000000 1.0
C      1  0.5071260000000  0.3416450000000  0.6301150000000 1.0
C      1  0.4928750000000  0.6583540000000  0.6301160000000 1.0
C      1  0.4928750000000  0.3416450000000  0.3698840000000 1.0
C      1  0.5071240000000  0.6583550000000  0.3698850000000 1.0
C      1  0.4891030000000  0.5466470000000  0.2591550000000 1.0
C      1  0.5108960000000  0.4533540000000  0.2591550000000 1.0
C      1  0.5108970000000  0.5466460000000  0.7408450000000 1.0
C      1  0.4891040000000  0.4533530000000  0.7408450000000 1.0
C      1  0.5979540000000  0.4401690000000  0.2954710000000 1.0
C      1  0.4020450000000  0.5598320000000  0.2954710000000 1.0
C      1  0.4020460000000  0.4401680000000  0.7045290000000 1.0
C      1  0.5979550000000  0.5598310000000  0.7045290000000 1.0
C      1  0.3743650000000  0.3050510000000  0.3210490000000 1.0
C      1  0.6256350000000  0.6949500000000  0.3210490000000 1.0
C      1  0.6256370000000  0.3050510000000  0.6789500000000 1.0
C      1  0.3743640000000  0.6949490000000  0.6789520000000 1.0
C      1  0.3606450000000  0.6909430000000  0.4092480000000 1.0
C      1  0.6393540000000  0.3090570000000  0.4092460000000 1.0
C      1  0.6393540000000  0.6909440000000  0.5907530000000 1.0
C      1  0.3606470000000  0.3090560000000  0.5907530000000 1.0
C      1  0.4914950000000  0.7646050000000  0.5995200000000 1.0
C      1  0.5085060000000  0.2353950000000  0.5995190000000 1.0
C      1  0.5085040000000  0.7646050000000  0.4004810000000 1.0
C      1  0.4914960000000  0.2353950000000  0.4004800000000 1.0
C      1  0.6261040000000  0.6391320000000  0.6629580000000 1.0
C      1  0.3738970000000  0.3608670000000  0.6629580000000 1.0
C      1  0.3738960000000  0.6391320000000  0.3370430000000 1.0
C      1  0.6261040000000  0.3608690000000  0.3370410000000 1.0
C      1  0.3661050000000  0.4752840000000  0.3205130000000 1.0
C      1  0.6338940000000  0.5247170000000  0.3205130000000 1.0
C      1  0.6338950000000  0.4752840000000  0.6794870000000 1.0
C      1  0.3661060000000  0.5247150000000  0.6794870000000 1.0
C      1  0.3037300000000  0.5414560000000  0.6154490000000 1.0
C      1  0.6962700000000  0.4585440000000  0.6154480000000 1.0
C      1  0.6962700000000  0.5414580000000  0.3845510000000 1.0
C      1  0.3037300000000  0.4585430000000  0.3845520000000 1.0
C      1  0.6076740000000  0.2609280000000  0.5985870000000 1.0
C      1  0.3923270000000  0.7390710000000  0.5985890000000 1.0
C      1  0.3923280000000  0.2609280000000  0.4014120000000 1.0
C      1  0.6076720000000  0.7390720000000  0.4014130000000 1.0
C      1  0.5318190000000  0.6513820000000  0.4666750000000 1.0
C      1  0.4681810000000  0.3486180000000  0.4666750000000 1.0
C      1  0.4681800000000  0.6513810000000  0.5333250000000 1.0
C      1  0.5318200000000  0.3486180000000  0.5333240000000 1.0
END
