TITL C-986973-6940-828 -3.36124282375347e-06 3375 -350.396892752345 0 0 60 (C1) n - 1
REM
REM in /home/bkarasulu/work/CARBON/AIRSS/Generating-Clusters/REBO/Higher-Symm/Only-C60
REM
REM
REM
REM
REM
REM ./C.cell (a2850807a9bf4ad07a5b6933b78d9264)
REM AIRSS Version 0.9.1 bugfix July 2018 build 013d7b7c2542+ Fri, 06 Jul 2018 19:26:36 +0100
REM compiler GCC version 9.2.1 20190827 (Red Hat 9.2.1-1)
REM options -cpp -mtune=generic -march=x86-64 -g -O0 -fpre-include=/usr/include/finclude/math-vector-fortran.h
REM seed -1703658057 949168939 -1409324327 -281793322 1489191216 103274475 -1732511649 875878842 701632766 -1301251870 -1005890695 -582337064 -716961158 -40935602 2052786878 -982771326 1961798258 -356620371 -1739599562 1586381722 -1975573291 1061459115 1288793201 -309863022 -719041396 -539348462 -117425802 -1252317475 1917984985 1462961329 -874276001 553193410 -556852237
REM
CELL 1.54180   15.00000   15.00000   15.00000   90.00000   90.00000   90.00000
LATT -1
SFAC C  
C      1  0.4837340000000  0.5908650000000  0.4267680000000 1.0
C      1  0.5103540000000  0.4126640000000  0.4661930000000 1.0
C      1  0.4907920000000  0.5871900000000  0.5365650000000 1.0
C      1  0.5149400000000  0.4079920000000  0.5757160000000 1.0
C      1  0.5992250000000  0.5655740000000  0.5578920000000 1.0
C      1  0.4095100000000  0.4136970000000  0.5525000000000 1.0
C      1  0.5891130000000  0.5884600000000  0.4472690000000 1.0
C      1  0.4024740000000  0.4349860000000  0.4412480000000 1.0
C      1  0.5748090000000  0.3447150000000  0.4164450000000 1.0
C      1  0.4210530000000  0.6713310000000  0.3957820000000 1.0
C      1  0.5768640000000  0.3266880000000  0.6068010000000 1.0
C      1  0.4284090000000  0.6572160000000  0.5867120000000 1.0
C      1  0.7193250000000  0.2666100000000  0.4516750000000 1.0
C      1  0.2789670000000  0.7396110000000  0.4612070000000 1.0
C      1  0.7189910000000  0.2492940000000  0.5551080000000 1.0
C      1  0.2845330000000  0.7408790000000  0.5651450000000 1.0
C      1  0.5322470000000  0.4737260000000  0.6520130000000 1.0
C      1  0.4879810000000  0.5525920000000  0.6436410000000 1.0
C      1  0.5091570000000  0.4450890000000  0.3585070000000 1.0
C      1  0.4679150000000  0.5254130000000  0.3499170000000 1.0
C      1  0.6318810000000  0.2522670000000  0.4166330000000 1.0
C      1  0.3635880000000  0.7598210000000  0.4222770000000 1.0
C      1  0.6314090000000  0.2335210000000  0.5886780000000 1.0
C      1  0.3741950000000  0.7520570000000  0.5944040000000 1.0
C      1  0.4042930000000  0.5558790000000  0.2883130000000 1.0
C      1  0.5745650000000  0.4263390000000  0.2837210000000 1.0
C      1  0.4170750000000  0.5660280000000  0.7143690000000 1.0
C      1  0.6008380000000  0.4459570000000  0.7092590000000 1.0
C      1  0.4269250000000  0.2644610000000  0.4124170000000 1.0
C      1  0.5715220000000  0.7541330000000  0.4105100000000 1.0
C      1  0.4249770000000  0.2475490000000  0.5888090000000 1.0
C      1  0.5773620000000  0.7362700000000  0.5868940000000 1.0
C      1  0.3519150000000  0.6189390000000  0.3357520000000 1.0
C      1  0.6350160000000  0.4018130000000  0.3576550000000 1.0
C      1  0.3632890000000  0.5988730000000  0.6390580000000 1.0
C      1  0.6495800000000  0.3812090000000  0.6604970000000 1.0
C      1  0.7155160000000  0.4159810000000  0.6028550000000 1.0
C      1  0.2955950000000  0.5666140000000  0.5835120000000 1.0
C      1  0.7053520000000  0.4385090000000  0.4070100000000 1.0
C      1  0.2829320000000  0.5807990000000  0.3878450000000 1.0
C      1  0.3668210000000  0.3163870000000  0.5833280000000 1.0
C      1  0.6368060000000  0.6682480000000  0.5886300000000 1.0
C      1  0.3667520000000  0.3317290000000  0.4099720000000 1.0
C      1  0.6304360000000  0.6859520000000  0.4158020000000 1.0
C      1  0.5240290000000  0.2520660000000  0.4516480000000 1.0
C      1  0.4739430000000  0.7563400000000  0.4487260000000 1.0
C      1  0.5236870000000  0.2432190000000  0.5541080000000 1.0
C      1  0.4790540000000  0.7487460000000  0.5513670000000 1.0
C      1  0.2485070000000  0.6401790000000  0.5437470000000 1.0
C      1  0.7553750000000  0.3499440000000  0.5482180000000 1.0
C      1  0.2370790000000  0.6436240000000  0.4412790000000 1.0
C      1  0.7580590000000  0.3691090000000  0.4469090000000 1.0
C      1  0.6832680000000  0.5245490000000  0.4584650000000 1.0
C      1  0.3041010000000  0.4902900000000  0.4251500000000 1.0
C      1  0.6973890000000  0.5085760000000  0.5681860000000 1.0
C      1  0.3161100000000  0.4775240000000  0.5354600000000 1.0
C      1  0.2849250000000  0.3689500000000  0.5512980000000 1.0
C      1  0.7191060000000  0.6183400000000  0.5457750000000 1.0
C      1  0.2827060000000  0.3811570000000  0.4498480000000 1.0
C      1  0.7136260000000  0.6334570000000  0.4445080000000 1.0
END
