TITL C-986976-6631-682 8.61300257763687e-07 3375 -345.071386234824 0 0 60 (C1) n - 1
REM
REM in /home/bkarasulu/work/CARBON/AIRSS/Generating-Clusters/REBO/Higher-Symm/Only-C60
REM
REM
REM
REM
REM
REM ./C.cell (a2850807a9bf4ad07a5b6933b78d9264)
REM AIRSS Version 0.9.1 bugfix July 2018 build 013d7b7c2542+ Fri, 06 Jul 2018 19:26:36 +0100
REM compiler GCC version 9.2.1 20190827 (Red Hat 9.2.1-1)
REM options -cpp -mtune=generic -march=x86-64 -g -O0 -fpre-include=/usr/include/finclude/math-vector-fortran.h
REM seed 1412257623 450157560 1366160688 1730137879 2011645943 -893102196 390759388 710362121 1938581314 2029977981 447132747 890422510 1823083435 49444867 2071742174 416601226 1538616208 1988580291 280992443 -466579351 1243300053 -1577189451 -761118912 1196610518 1224450495 -1230207935 1312263687 -59420844 -168396901 385254897 549226935 341853832 -1242127676
REM
CELL 1.54180   15.00000   15.00000   15.00000   90.00000   90.00000   90.00000
LATT -1
SFAC C  
C      1  0.2708730000000  0.4951380000000  0.4227340000000 1.0
C      1  0.4995930000000  0.7257850000000  0.4287810000000 1.0
C      1  0.7326040000000  0.4931820000000  0.4211170000000 1.0
C      1  0.5059960000000  0.2681990000000  0.4273460000000 1.0
C      1  0.4985660000000  0.6833710000000  0.6971490000000 1.0
C      1  0.6871620000000  0.4975780000000  0.6827770000000 1.0
C      1  0.5040940000000  0.3191330000000  0.6825660000000 1.0
C      1  0.3147610000000  0.5043410000000  0.6890420000000 1.0
C      1  0.4582470000000  0.3751260000000  0.2742630000000 1.0
C      1  0.3868440000000  0.5409470000000  0.2778050000000 1.0
C      1  0.5475830000000  0.6153230000000  0.2775950000000 1.0
C      1  0.6186970000000  0.4496220000000  0.2776800000000 1.0
C      1  0.5453340000000  0.7209870000000  0.6257700000000 1.0
C      1  0.7175180000000  0.4674130000000  0.5996220000000 1.0
C      1  0.4564490000000  0.2818710000000  0.6119520000000 1.0
C      1  0.2774060000000  0.5436050000000  0.6132660000000 1.0
C      1  0.4449900000000  0.3725790000000  0.7318170000000 1.0
C      1  0.3578040000000  0.5718050000000  0.7377350000000 1.0
C      1  0.5570970000000  0.6255650000000  0.7421610000000 1.0
C      1  0.6484110000000  0.4239720000000  0.7260580000000 1.0
C      1  0.3703120000000  0.4186290000000  0.6683900000000 1.0
C      1  0.4015720000000  0.6448800000000  0.6721580000000 1.0
C      1  0.6263010000000  0.5797870000000  0.6736760000000 1.0
C      1  0.5975690000000  0.3632010000000  0.6551670000000 1.0
C      1  0.3728200000000  0.6270900000000  0.3489090000000 1.0
C      1  0.6298640000000  0.6226280000000  0.3538850000000 1.0
C      1  0.6349040000000  0.3589750000000  0.3428280000000 1.0
C      1  0.3739770000000  0.3668420000000  0.3487780000000 1.0
C      1  0.6193820000000  0.6488540000000  0.5839480000000 1.0
C      1  0.6477070000000  0.3923220000000  0.5573380000000 1.0
C      1  0.3767050000000  0.3504280000000  0.5779680000000 1.0
C      1  0.3416890000000  0.6255250000000  0.5775760000000 1.0
C      1  0.5230190000000  0.6343950000000  0.5282410000000 1.0
C      1  0.6100640000000  0.4882010000000  0.5237670000000 1.0
C      1  0.4686160000000  0.3821780000000  0.5252600000000 1.0
C      1  0.3787090000000  0.5320950000000  0.5276780000000 1.0
C      1  0.3414870000000  0.6492800000000  0.4762690000000 1.0
C      1  0.6479960000000  0.6463540000000  0.4834930000000 1.0
C      1  0.6652210000000  0.3443620000000  0.4714680000000 1.0
C      1  0.3508970000000  0.3422040000000  0.4774160000000 1.0
C      1  0.4334160000000  0.4815850000000  0.6065480000000 1.0
C      1  0.4663120000000  0.5898910000000  0.6079660000000 1.0
C      1  0.5581760000000  0.5325470000000  0.6063970000000 1.0
C      1  0.5269770000000  0.4241360000000  0.6039620000000 1.0
C      1  0.6965890000000  0.5775430000000  0.4304220000000 1.0
C      1  0.5943460000000  0.2938900000000  0.4229520000000 1.0
C      1  0.3020950000000  0.4086330000000  0.4226380000000 1.0
C      1  0.4124560000000  0.6964310000000  0.4259000000000 1.0
C      1  0.4580920000000  0.6172390000000  0.2763890000000 1.0
C      1  0.6182630000000  0.5384320000000  0.2804200000000 1.0
C      1  0.5477620000000  0.3729220000000  0.2731000000000 1.0
C      1  0.3874030000000  0.4520030000000  0.2772290000000 1.0
C      1  0.4279960000000  0.5239310000000  0.4458830000000 1.0
C      1  0.5098490000000  0.5904030000000  0.4444350000000 1.0
C      1  0.5580220000000  0.4975240000000  0.4434730000000 1.0
C      1  0.4767820000000  0.4303580000000  0.4431490000000 1.0
C      1  0.4183050000000  0.2953710000000  0.4209240000000 1.0
C      1  0.2967840000000  0.5832830000000  0.4167560000000 1.0
C      1  0.5869500000000  0.6970290000000  0.4231160000000 1.0
C      1  0.7145880000000  0.4030790000000  0.4068930000000 1.0
END
