TITL C-986978-6805-729 2.14027774714646e-05 3375 -346.752071827187 0 0 60 (C5) n - 1
REM
REM in /home/bkarasulu/work/CARBON/AIRSS/Generating-Clusters/REBO/Higher-Symm/Only-C60
REM
REM
REM
REM
REM
REM ./C.cell (a2850807a9bf4ad07a5b6933b78d9264)
REM AIRSS Version 0.9.1 bugfix July 2018 build 013d7b7c2542+ Fri, 06 Jul 2018 19:26:36 +0100
REM compiler GCC version 9.2.1 20190827 (Red Hat 9.2.1-1)
REM options -cpp -mtune=generic -march=x86-64 -g -O0 -fpre-include=/usr/include/finclude/math-vector-fortran.h
REM seed -801772320 1759781496 -1450944222 -416605785 1097116803 720409046 499383872 211163441 -946944371 580536725 -1069159832 2040811085 786871100 -357258652 1206073415 72512265 -2013652267 -1553530937 56153924 1006590312 41029114 2096386020 1324419613 -1932654805 853090513 -349182998 1485586225 1998517915 -1884651004 94474419 1626070466 -1289422295 1370705305
REM
CELL 1.54180   15.00000   15.00000   15.00000   90.00000   90.00000   90.00000
LATT -1
SFAC C  
C      1  0.4197650000000  0.4897170000000  0.4444440000000 1.0
C      1  0.4849900000000  0.4205140000000  0.4444430000000 1.0
C      1  0.5709620000000  0.4611610000000  0.4444490000000 1.0
C      1  0.5588710000000  0.5554870000000  0.4444540000000 1.0
C      1  0.4654260000000  0.5731350000000  0.4444500000000 1.0
C      1  0.4389770000000  0.6551650000000  0.4036850000000 1.0
C      1  0.3335800000000  0.4899110000000  0.4036710000000 1.0
C      1  0.4581770000000  0.3386060000000  0.4036690000000 1.0
C      1  0.6405790000000  0.4103490000000  0.4036820000000 1.0
C      1  0.6287130000000  0.6059930000000  0.4036920000000 1.0
C      1  0.4929870000000  0.4126350000000  0.6424570000000 1.0
C      1  0.5809100000000  0.4663350000000  0.6424640000000 1.0
C      1  0.5570080000000  0.5665490000000  0.6424680000000 1.0
C      1  0.4543130000000  0.5747850000000  0.6424640000000 1.0
C      1  0.4147450000000  0.4796610000000  0.6424570000000 1.0
C      1  0.6891770000000  0.5373610000000  0.3623890000000 1.0
C      1  0.5229390000000  0.6914610000000  0.3623890000000 1.0
C      1  0.3250100000000  0.5809790000000  0.3623740000000 1.0
C      1  0.3689210000000  0.3585970000000  0.3623640000000 1.0
C      1  0.5939890000000  0.3316390000000  0.3623740000000 1.0
C      1  0.5817640000000  0.7326100000000  0.5543010000000 1.0
C      1  0.3040360000000  0.6496440000000  0.5542830000000 1.0
C      1  0.2971190000000  0.3598700000000  0.5542670000000 1.0
C      1  0.5705730000000  0.2637470000000  0.5542760000000 1.0
C      1  0.7464930000000  0.4941130000000  0.5542970000000 1.0
C      1  0.2497480000000  0.4821230000000  0.5314020000000 1.0
C      1  0.4396670000000  0.2564720000000  0.5313990000000 1.0
C      1  0.7129620000000  0.3673660000000  0.5314190000000 1.0
C      1  0.6919490000000  0.6615530000000  0.5314340000000 1.0
C      1  0.4056660000000  0.7324770000000  0.5314230000000 1.0
C      1  0.2697950000000  0.4385460000000  0.4503840000000 1.0
C      1  0.4873130000000  0.2620700000000  0.4503850000000 1.0
C      1  0.7223680000000  0.4144090000000  0.4504050000000 1.0
C      1  0.6501210000000  0.6850350000000  0.4504160000000 1.0
C      1  0.3704160000000  0.6999520000000  0.4504030000000 1.0
C      1  0.2991290000000  0.3373680000000  0.4420730000000 1.0
C      1  0.5926050000000  0.2587030000000  0.4420840000000 1.0
C      1  0.7581080000000  0.5135070000000  0.4421060000000 1.0
C      1  0.5669190000000  0.7496490000000  0.4421090000000 1.0
C      1  0.2832540000000  0.6407880000000  0.4420890000000 1.0
C      1  0.6542610000000  0.4332630000000  0.7162380000000 1.0
C      1  0.6111210000000  0.6260910000000  0.7162470000000 1.0
C      1  0.4144000000000  0.6446490000000  0.7162380000000 1.0
C      1  0.3359600000000  0.4632920000000  0.7162240000000 1.0
C      1  0.4842020000000  0.3326480000000  0.7162240000000 1.0
C      1  0.5365800000000  0.4204430000000  0.3215950000000 1.0
C      1  0.5869820000000  0.5102030000000  0.3216020000000 1.0
C      1  0.5171900000000  0.5858760000000  0.3216030000000 1.0
C      1  0.4236550000000  0.5428840000000  0.3215960000000 1.0
C      1  0.4356380000000  0.4406410000000  0.3215910000000 1.0
C      1  0.4927610000000  0.3039590000000  0.6084050000000 1.0
C      1  0.6841990000000  0.4325370000000  0.6084210000000 1.0
C      1  0.6210730000000  0.6543380000000  0.6084300000000 1.0
C      1  0.3906200000000  0.6628420000000  0.6084190000000 1.0
C      1  0.3113190000000  0.4462950000000  0.6084030000000 1.0
C      1  0.2394030000000  0.5737480000000  0.5225850000000 1.0
C      1  0.3493310000000  0.2749470000000  0.5225750000000 1.0
C      1  0.6674770000000  0.2871600000000  0.5225910000000 1.0
C      1  0.7541740000000  0.5935090000000  0.5226120000000 1.0
C      1  0.4896100000000  0.7706300000000  0.5226080000000 1.0
END
