TITL C-986978-6805-628 -0.0175546920013386 3375 -361.023626069289 0 0 60 (C2h) n - 1
REM
REM in /home/bkarasulu/work/CARBON/AIRSS/Generating-Clusters/REBO/Higher-Symm/Only-C60
REM
REM
REM
REM
REM
REM ./C.cell (a2850807a9bf4ad07a5b6933b78d9264)
REM AIRSS Version 0.9.1 bugfix July 2018 build 013d7b7c2542+ Fri, 06 Jul 2018 19:26:36 +0100
REM compiler GCC version 9.2.1 20190827 (Red Hat 9.2.1-1)
REM options -cpp -mtune=generic -march=x86-64 -g -O0 -fpre-include=/usr/include/finclude/math-vector-fortran.h
REM seed -1275259340 -2012403847 -1962987870 1568965346 1990602709 -1606252356 1938439721 1969511764 1163281797 -1430814752 -1915950235 640779617 1947263485 265808554 1893692389 -298196520 866690197 -1448533152 -1333938294 485468645 1536058398 -1465644033 -174339166 -1282332336 234359387 -907571867 -1134888527 1602483590 -1909144960 -1950524245 -35988848 312167965 -1123415755
REM
CELL 1.54180   15.00000   15.00000   15.00000   90.00000   90.00000   90.00000
LATT -1
SFAC C  
C      1  0.3092740000000  0.4580600000000  0.4293810000000 1.0
C      1  0.3375570000000  0.4514200000000  0.6873910000000 1.0
C      1  0.5459690000000  0.4579740000000  0.6978780000000 1.0
C      1  0.6906920000000  0.4580640000000  0.5707860000000 1.0
C      1  0.6624200000000  0.4514170000000  0.3126430000000 1.0
C      1  0.4540390000000  0.4579850000000  0.3021540000000 1.0
C      1  0.3092610000000  0.5419390000000  0.4294570000000 1.0
C      1  0.3375670000000  0.5485820000000  0.6873980000000 1.0
C      1  0.5459810000000  0.5419850000000  0.6977950000000 1.0
C      1  0.6907600000000  0.5419570000000  0.5704270000000 1.0
C      1  0.6624140000000  0.5485800000000  0.3126200000000 1.0
C      1  0.4540160000000  0.5420020000000  0.3021610000000 1.0
C      1  0.5560400000000  0.5687420000000  0.5681430000000 1.0
C      1  0.5925740000000  0.5665660000000  0.4841250000000 1.0
C      1  0.5344960000000  0.5666580000000  0.4139890000000 1.0
C      1  0.4439570000000  0.5687800000000  0.4318320000000 1.0
C      1  0.4073890000000  0.5665670000000  0.5158180000000 1.0
C      1  0.4654970000000  0.5666590000000  0.5859710000000 1.0
C      1  0.5560710000000  0.4311840000000  0.5681530000000 1.0
C      1  0.5927080000000  0.4334480000000  0.4842240000000 1.0
C      1  0.5345760000000  0.4333280000000  0.4140540000000 1.0
C      1  0.4439910000000  0.4312170000000  0.4318400000000 1.0
C      1  0.4073800000000  0.4334460000000  0.5157920000000 1.0
C      1  0.4654910000000  0.4333300000000  0.5859570000000 1.0
C      1  0.6950180000000  0.6076180000000  0.4780770000000 1.0
C      1  0.5680190000000  0.6071040000000  0.3211270000000 1.0
C      1  0.3865350000000  0.6178410000000  0.3531890000000 1.0
C      1  0.3049570000000  0.6075570000000  0.5218870000000 1.0
C      1  0.4319910000000  0.6070670000000  0.6788280000000 1.0
C      1  0.6134780000000  0.6178020000000  0.6467260000000 1.0
C      1  0.6952520000000  0.3926310000000  0.4781890000000 1.0
C      1  0.5680410000000  0.3928820000000  0.3211730000000 1.0
C      1  0.3865710000000  0.3821200000000  0.3531640000000 1.0
C      1  0.3049110000000  0.3925010000000  0.5218530000000 1.0
C      1  0.4319550000000  0.3929230000000  0.6788020000000 1.0
C      1  0.6134180000000  0.3820230000000  0.6468990000000 1.0
C      1  0.5136620000000  0.6915740000000  0.5980840000000 1.0
C      1  0.5894230000000  0.6942830000000  0.5387180000000 1.0
C      1  0.5737740000000  0.6913910000000  0.4421790000000 1.0
C      1  0.4863580000000  0.6915910000000  0.4018960000000 1.0
C      1  0.4105970000000  0.6942960000000  0.4612940000000 1.0
C      1  0.4262220000000  0.6913680000000  0.5578200000000 1.0
C      1  0.5135910000000  0.3083930000000  0.5981070000000 1.0
C      1  0.5893310000000  0.3056320000000  0.5387030000000 1.0
C      1  0.5737610000000  0.3086740000000  0.4421900000000 1.0
C      1  0.4863750000000  0.3084010000000  0.4018870000000 1.0
C      1  0.4106180000000  0.3057020000000  0.4612890000000 1.0
C      1  0.4261900000000  0.3086470000000  0.5578150000000 1.0
C      1  0.6889790000000  0.3440250000000  0.5787130000000 1.0
C      1  0.6533980000000  0.3649320000000  0.3865500000000 1.0
C      1  0.4745620000000  0.3457340000000  0.2944730000000 1.0
C      1  0.3109640000000  0.3440390000000  0.4212270000000 1.0
C      1  0.3465510000000  0.3648500000000  0.6135730000000 1.0
C      1  0.5253840000000  0.3457330000000  0.7055420000000 1.0
C      1  0.6891020000000  0.6559660000000  0.5788270000000 1.0
C      1  0.6533740000000  0.6351790000000  0.3863830000000 1.0
C      1  0.4745260000000  0.6542590000000  0.2944850000000 1.0
C      1  0.3109310000000  0.6559680000000  0.4212100000000 1.0
C      1  0.3465770000000  0.6351730000000  0.6136130000000 1.0
C      1  0.5254850000000  0.6542290000000  0.7055210000000 1.0
END
