TITL C-986979-5873-384 -0.000180282770183022 3375 -344.241055568501 0 0 60 (C1) n - 1
REM
REM in /home/bkarasulu/work/CARBON/AIRSS/Generating-Clusters/REBO/Higher-Symm/Only-C60
REM
REM
REM
REM
REM
REM ./C.cell (a2850807a9bf4ad07a5b6933b78d9264)
REM AIRSS Version 0.9.1 bugfix July 2018 build 013d7b7c2542+ Fri, 06 Jul 2018 19:26:36 +0100
REM compiler GCC version 9.2.1 20190827 (Red Hat 9.2.1-1)
REM options -cpp -mtune=generic -march=x86-64 -g -O0 -fpre-include=/usr/include/finclude/math-vector-fortran.h
REM seed -51085271 281353343 282753094 -115001330 841883596 -685952110 1423149315 -2035707411 -1250009261 -340892279 -173065569 -2063145177 1880214622 -307042805 92555093 -1881175019 1646834182 1041425250 794991288 1540159214 1230680720 517032031 1383305482 -165233383 1800159533 656672906 -784790000 -614273351 -963009248 -303211446 684002154 1767716895 1754736993
REM
CELL 1.54180   15.00000   15.00000   15.00000   90.00000   90.00000   90.00000
LATT -1
SFAC C  
C      1  0.5571240000000  0.5079990000000  0.6946020000000 1.0
C      1  0.5617130000000  0.6988160000000  0.4123510000000 1.0
C      1  0.5290400000000  0.6770650000000  0.5618720000000 1.0
C      1  0.3502340000000  0.5362920000000  0.5951110000000 1.0
C      1  0.3821040000000  0.4284140000000  0.3770800000000 1.0
C      1  0.4621160000000  0.2571090000000  0.4559580000000 1.0
C      1  0.4633440000000  0.7177740000000  0.4281170000000 1.0
C      1  0.5176000000000  0.5426000000000  0.2745380000000 1.0
C      1  0.5093020000000  0.3797280000000  0.6176170000000 1.0
C      1  0.4647180000000  0.4548330000000  0.7181860000000 1.0
C      1  0.6264630000000  0.2831440000000  0.4988320000000 1.0
C      1  0.4989250000000  0.3678120000000  0.3939320000000 1.0
C      1  0.3869290000000  0.3844070000000  0.6699840000000 1.0
C      1  0.4737580000000  0.5482620000000  0.4415410000000 1.0
C      1  0.5090740000000  0.7090000000000  0.6594450000000 1.0
C      1  0.5783570000000  0.5292420000000  0.4281480000000 1.0
C      1  0.5993350000000  0.5264190000000  0.3269360000000 1.0
C      1  0.6742960000000  0.5347920000000  0.5687110000000 1.0
C      1  0.4292920000000  0.4559260000000  0.4716450000000 1.0
C      1  0.2651680000000  0.4621810000000  0.4305450000000 1.0
C      1  0.2676840000000  0.5421970000000  0.4144770000000 1.0
C      1  0.7419590000000  0.4812880000000  0.5227390000000 1.0
C      1  0.7328000000000  0.3902660000000  0.5563490000000 1.0
C      1  0.5821890000000  0.4160870000000  0.5463060000000 1.0
C      1  0.4496600000000  0.6156800000000  0.5186100000000 1.0
C      1  0.6829560000000  0.3962820000000  0.6401280000000 1.0
C      1  0.6301550000000  0.5828390000000  0.4990910000000 1.0
C      1  0.3178930000000  0.3715620000000  0.4558270000000 1.0
C      1  0.6477300000000  0.4383970000000  0.3014630000000 1.0
C      1  0.6366790000000  0.4827770000000  0.6479500000000 1.0
C      1  0.3420680000000  0.6217790000000  0.5230460000000 1.0
C      1  0.6008780000000  0.6716940000000  0.5021650000000 1.0
C      1  0.4383890000000  0.4689530000000  0.3052120000000 1.0
C      1  0.3469460000000  0.3600490000000  0.5650220000000 1.0
C      1  0.5306140000000  0.6083650000000  0.6760240000000 1.0
C      1  0.5366040000000  0.4121580000000  0.2989160000000 1.0
C      1  0.4810010000000  0.3428150000000  0.7162860000000 1.0
C      1  0.4368750000000  0.3529820000000  0.5109580000000 1.0
C      1  0.4093390000000  0.5410420000000  0.7489280000000 1.0
C      1  0.7027900000000  0.3362550000000  0.4839990000000 1.0
C      1  0.4387490000000  0.5765030000000  0.3423310000000 1.0
C      1  0.3951920000000  0.3195730000000  0.3902980000000 1.0
C      1  0.3681920000000  0.5915980000000  0.6860030000000 1.0
C      1  0.4207510000000  0.7374500000000  0.6086550000000 1.0
C      1  0.5643970000000  0.2767090000000  0.4136740000000 1.0
C      1  0.4367740000000  0.7596970000000  0.5131750000000 1.0
C      1  0.5272460000000  0.2953990000000  0.5422140000000 1.0
C      1  0.4436340000000  0.4652250000000  0.5814850000000 1.0
C      1  0.3040350000000  0.6395030000000  0.4304760000000 1.0
C      1  0.7334000000000  0.4887490000000  0.4261390000000 1.0
C      1  0.2411610000000  0.7074880000000  0.4201820000000 1.0
C      1  0.7017060000000  0.3911870000000  0.3894450000000 1.0
C      1  0.7062480000000  0.5735330000000  0.3902480000000 1.0
C      1  0.6429280000000  0.6406990000000  0.3796620000000 1.0
C      1  0.6149770000000  0.3374920000000  0.3386860000000 1.0
C      1  0.5595940000000  0.4321840000000  0.4589960000000 1.0
C      1  0.3990580000000  0.6586520000000  0.3878200000000 1.0
C      1  0.3567430000000  0.6667650000000  0.6195420000000 1.0
C      1  0.4798590000000  0.5607420000000  0.6022040000000 1.0
C      1  0.3112550000000  0.4455710000000  0.6201230000000 1.0
END
