TITL C-986979-5873-198 -0.0258418418054888 3375 -321.854461613445 0 0 60 (D4) n - 1
REM
REM in /home/bkarasulu/work/CARBON/AIRSS/Generating-Clusters/REBO/Higher-Symm/Only-C60
REM
REM
REM
REM
REM
REM ./C.cell (a2850807a9bf4ad07a5b6933b78d9264)
REM AIRSS Version 0.9.1 bugfix July 2018 build 013d7b7c2542+ Fri, 06 Jul 2018 19:26:36 +0100
REM compiler GCC version 9.2.1 20190827 (Red Hat 9.2.1-1)
REM options -cpp -mtune=generic -march=x86-64 -g -O0 -fpre-include=/usr/include/finclude/math-vector-fortran.h
REM seed -1950392812 492349090 1720622207 1428105154 -1235184568 1634094210 1252267100 1473926430 -1195043690 10319253 -1349419535 819465453 17696406 -1882861499 113360501 -763068677 833922986 322938377 -1740886219 1688810598 577706174 -1125663566 590366997 -613544022 1721686503 1581963748 -700521198 -1572529950 743328981 -1958286601 -1242613003 644718594 671503103
REM
CELL 1.54180   15.00000   15.00000   15.00000   90.00000   90.00000   90.00000
LATT -1
SFAC C  
C      1  0.5179890000000  0.5586300000000  0.5782810000000 1.0
C      1  0.5782810000000  0.5586310000000  0.4820110000000 1.0
C      1  0.4820110000000  0.5586310000000  0.4217190000000 1.0
C      1  0.4217190000000  0.5586310000000  0.5179890000000 1.0
C      1  0.5179910000000  0.4316660000000  0.4217190000000 1.0
C      1  0.5782810000000  0.4316660000000  0.5179920000000 1.0
C      1  0.4820080000000  0.4316660000000  0.5782810000000 1.0
C      1  0.4217190000000  0.4316660000000  0.4820080000000 1.0
C      1  0.3404200000000  0.4943220000000  0.4338770000000 1.0
C      1  0.4338770000000  0.4943220000000  0.6595800000000 1.0
C      1  0.6595800000000  0.4943220000000  0.5661230000000 1.0
C      1  0.5661230000000  0.4943220000000  0.3404200000000 1.0
C      1  0.3404150000000  0.4959800000000  0.5661260000000 1.0
C      1  0.4338740000000  0.4959800000000  0.3404160000000 1.0
C      1  0.6595840000000  0.4959800000000  0.4338740000000 1.0
C      1  0.5661260000000  0.4959810000000  0.6595850000000 1.0
C      1  0.3055170000000  0.3979880000000  0.6487570000000 1.0
C      1  0.6487570000000  0.3979880000000  0.6944830000000 1.0
C      1  0.6944830000000  0.3979880000000  0.3512430000000 1.0
C      1  0.3512430000000  0.3979880000000  0.3055170000000 1.0
C      1  0.3055180000000  0.5923130000000  0.3512440000000 1.0
C      1  0.6487560000000  0.5923130000000  0.3055180000000 1.0
C      1  0.6944820000000  0.5923130000000  0.6487560000000 1.0
C      1  0.3512440000000  0.5923130000000  0.6944820000000 1.0
C      1  0.4305120000000  0.3922730000000  0.6946710000000 1.0
C      1  0.6946700000000  0.3922730000000  0.5694880000000 1.0
C      1  0.5694880000000  0.3922730000000  0.3053300000000 1.0
C      1  0.3053300000000  0.3922730000000  0.4305120000000 1.0
C      1  0.4305130000000  0.5980270000000  0.3053310000000 1.0
C      1  0.6946690000000  0.5980270000000  0.4305130000000 1.0
C      1  0.5694870000000  0.5980270000000  0.6946690000000 1.0
C      1  0.3053310000000  0.5980270000000  0.5694870000000 1.0
C      1  0.4238090000000  0.6868710000000  0.4822730000000 1.0
C      1  0.4822720000000  0.6868710000000  0.5761910000000 1.0
C      1  0.5761910000000  0.6868710000000  0.5177280000000 1.0
C      1  0.5177270000000  0.6868710000000  0.4238090000000 1.0
C      1  0.4238040000000  0.3034290000000  0.5177260000000 1.0
C      1  0.4822740000000  0.3034290000000  0.4238040000000 1.0
C      1  0.5761960000000  0.3034290000000  0.4822740000000 1.0
C      1  0.5177260000000  0.3034290000000  0.5761960000000 1.0
C      1  0.6411860000000  0.3837650000000  0.4363910000000 1.0
C      1  0.4363910000000  0.3837650000000  0.3588140000000 1.0
C      1  0.3588150000000  0.3837650000000  0.5636090000000 1.0
C      1  0.5636090000000  0.3837640000000  0.6411850000000 1.0
C      1  0.6411870000000  0.6065330000000  0.5636100000000 1.0
C      1  0.4363900000000  0.6065330000000  0.6411870000000 1.0
C      1  0.3588130000000  0.6065330000000  0.4363900000000 1.0
C      1  0.5636100000000  0.6065330000000  0.3588130000000 1.0
C      1  0.4500420000000  0.6722840000000  0.3373360000000 1.0
C      1  0.3373360000000  0.6722840000000  0.5499570000000 1.0
C      1  0.5499570000000  0.6722840000000  0.6626640000000 1.0
C      1  0.6626640000000  0.6722840000000  0.4500430000000 1.0
C      1  0.4500400000000  0.3180150000000  0.6626640000000 1.0
C      1  0.3373360000000  0.3180150000000  0.4500400000000 1.0
C      1  0.5499600000000  0.3180150000000  0.3373360000000 1.0
C      1  0.6626640000000  0.3180150000000  0.5499600000000 1.0
C      1  0.3163850000000  0.4951490000000  0.6836210000000 1.0
C      1  0.6836220000000  0.4951490000000  0.6836160000000 1.0
C      1  0.6836160000000  0.4951490000000  0.3163790000000 1.0
C      1  0.3163790000000  0.4951490000000  0.3163840000000 1.0
END
