TITL C-986973-6940-504 3.04137254135595e-07 3375 -339.646053952886 0 0 60 (C1) n - 1
REM
REM in /home/bkarasulu/work/CARBON/AIRSS/Generating-Clusters/REBO/Higher-Symm/Only-C60
REM
REM
REM
REM
REM
REM ./C.cell (a2850807a9bf4ad07a5b6933b78d9264)
REM AIRSS Version 0.9.1 bugfix July 2018 build 013d7b7c2542+ Fri, 06 Jul 2018 19:26:36 +0100
REM compiler GCC version 9.2.1 20190827 (Red Hat 9.2.1-1)
REM options -cpp -mtune=generic -march=x86-64 -g -O0 -fpre-include=/usr/include/finclude/math-vector-fortran.h
REM seed -509645029 369986987 1305062904 -958304975 -1306685445 1237677573 -245924867 -1564287004 1412108114 -457466732 9779361 -1507721990 -1214345694 51253509 1751157050 -1180557664 1651120988 -1814064255 1698527995 893118777 1462696648 996329658 -756805092 1330568768 -1809219476 -126537667 -1188435595 233044654 -1790200024 1915317898 -2146718690 -951101238 -1340630734
REM
CELL 1.54180   15.00000   15.00000   15.00000   90.00000   90.00000   90.00000
LATT -1
SFAC C  
C      1  0.5896950000000  0.3779980000000  0.3620530000000 1.0
C      1  0.4037330000000  0.4080060000000  0.3913580000000 1.0
C      1  0.3579140000000  0.3920960000000  0.5588400000000 1.0
C      1  0.5111320000000  0.3425710000000  0.6778940000000 1.0
C      1  0.6762380000000  0.3212540000000  0.5460290000000 1.0
C      1  0.7276450000000  0.5848770000000  0.4894090000000 1.0
C      1  0.5647950000000  0.5911400000000  0.2665130000000 1.0
C      1  0.3020010000000  0.5818420000000  0.3638250000000 1.0
C      1  0.3067560000000  0.5869850000000  0.6456380000000 1.0
C      1  0.5752960000000  0.5884740000000  0.7128450000000 1.0
C      1  0.5168840000000  0.6965550000000  0.5835300000000 1.0
C      1  0.5724410000000  0.6760810000000  0.4904470000000 1.0
C      1  0.5074700000000  0.6787770000000  0.4063610000000 1.0
C      1  0.4056200000000  0.6802040000000  0.4490450000000 1.0
C      1  0.4086570000000  0.6976830000000  0.5606300000000 1.0
C      1  0.2772000000000  0.5451660000000  0.5421900000000 1.0
C      1  0.4684460000000  0.5485400000000  0.7259900000000 1.0
C      1  0.7099190000000  0.5482110000000  0.5966970000000 1.0
C      1  0.6577580000000  0.5462610000000  0.3213810000000 1.0
C      1  0.3846610000000  0.5523570000000  0.2897770000000 1.0
C      1  0.5661390000000  0.4292720000000  0.4454430000000 1.0
C      1  0.4757020000000  0.4417500000000  0.4586290000000 1.0
C      1  0.4496830000000  0.4309170000000  0.5464570000000 1.0
C      1  0.5303880000000  0.4231590000000  0.6063740000000 1.0
C      1  0.6130550000000  0.4103350000000  0.5370960000000 1.0
C      1  0.2475460000000  0.4323370000000  0.4350720000000 1.0
C      1  0.3603030000000  0.4343160000000  0.7100220000000 1.0
C      1  0.6488900000000  0.4308630000000  0.6865740000000 1.0
C      1  0.7260980000000  0.4322590000000  0.4099110000000 1.0
C      1  0.4848170000000  0.4390690000000  0.2410760000000 1.0
C      1  0.4524030000000  0.2992780000000  0.5670390000000 1.0
C      1  0.5483570000000  0.2943750000000  0.5608570000000 1.0
C      1  0.5718390000000  0.2981170000000  0.4670610000000 1.0
C      1  0.4899890000000  0.3093200000000  0.4158200000000 1.0
C      1  0.4170170000000  0.3064900000000  0.4767260000000 1.0
C      1  0.3745150000000  0.5308970000000  0.5811770000000 1.0
C      1  0.5340810000000  0.5090930000000  0.6491810000000 1.0
C      1  0.6656800000000  0.4927300000000  0.5137290000000 1.0
C      1  0.5613010000000  0.5139870000000  0.3425980000000 1.0
C      1  0.3824440000000  0.5107410000000  0.3895410000000 1.0
C      1  0.5372070000000  0.5854110000000  0.5813760000000 1.0
C      1  0.5967290000000  0.5668500000000  0.5007160000000 1.0
C      1  0.5344810000000  0.5615590000000  0.4220850000000 1.0
C      1  0.4393170000000  0.5716080000000  0.4448640000000 1.0
C      1  0.4410960000000  0.5944590000000  0.5442500000000 1.0
C      1  0.3235710000000  0.6789720000000  0.3975640000000 1.0
C      1  0.3368720000000  0.6891130000000  0.6263470000000 1.0
C      1  0.5668390000000  0.6838730000000  0.6709560000000 1.0
C      1  0.6733370000000  0.6739710000000  0.4800310000000 1.0
C      1  0.5361680000000  0.6823070000000  0.3130690000000 1.0
C      1  0.2600100000000  0.5227370000000  0.4511110000000 1.0
C      1  0.3747110000000  0.5258530000000  0.7133380000000 1.0
C      1  0.6625260000000  0.5234500000000  0.6790530000000 1.0
C      1  0.7176760000000  0.5228970000000  0.3948360000000 1.0
C      1  0.4706350000000  0.5307260000000  0.2467820000000 1.0
C      1  0.6184550000000  0.3308790000000  0.6431850000000 1.0
C      1  0.6691360000000  0.3451960000000  0.4354710000000 1.0
C      1  0.4872010000000  0.3741820000000  0.3227820000000 1.0
C      1  0.3262110000000  0.3678130000000  0.4576190000000 1.0
C      1  0.4033110000000  0.3537620000000  0.6537280000000 1.0
END
