TITL C-986974-580-520 -0.0243139068572187 3375 -339.140660650238 0 0 60 (C5) n - 1
REM
REM in /home/bkarasulu/work/CARBON/AIRSS/Generating-Clusters/REBO/Higher-Symm/Only-C60
REM
REM
REM
REM
REM
REM ./C.cell (a2850807a9bf4ad07a5b6933b78d9264)
REM AIRSS Version 0.9.1 bugfix July 2018 build 013d7b7c2542+ Fri, 06 Jul 2018 19:26:36 +0100
REM compiler GCC version 9.2.1 20190827 (Red Hat 9.2.1-1)
REM options -cpp -mtune=generic -march=x86-64 -g -O0 -fpre-include=/usr/include/finclude/math-vector-fortran.h
REM seed 2116977800 2109981422 1007122416 -186589193 -572644824 2071291532 1032356665 -1545471169 1931263639 -1878226743 -815853739 -1156241880 -1006060567 -565555302 1604894825 -986526788 -812209347 633953935 -1179080100 -1788528783 -1002455552 -1750365409 215275823 -138755233 13513529 425445428 1416888757 1335358209 2025092331 -1144102920 236029171 964461488 -542611769
REM
CELL 1.54180   15.00000   15.00000   15.00000   90.00000   90.00000   90.00000
LATT -1
SFAC C  
C      1  0.5724590000000  0.6833980000000  0.3493500000000 1.0
C      1  0.3481570000000  0.6258110000000  0.3493570000000 1.0
C      1  0.3334990000000  0.3941810000000  0.3494280000000 1.0
C      1  0.5491480000000  0.3088990000000  0.3494690000000 1.0
C      1  0.6968730000000  0.4876770000000  0.3493950000000 1.0
C      1  0.6239670000000  0.3079190000000  0.6141630000000 1.0
C      1  0.7209730000000  0.5585550000000  0.6141520000000 1.0
C      1  0.5126260000000  0.7282850000000  0.6143730000000 1.0
C      1  0.2868280000000  0.5825190000000  0.6142000000000 1.0
C      1  0.3556390000000  0.3227230000000  0.6142100000000 1.0
C      1  0.5800550000000  0.4837510000000  0.6841520000000 1.0
C      1  0.5401600000000  0.5710840000000  0.6840540000000 1.0
C      1  0.4447830000000  0.5601220000000  0.6841520000000 1.0
C      1  0.4257140000000  0.4660270000000  0.6841020000000 1.0
C      1  0.5093270000000  0.4188170000000  0.6840700000000 1.0
C      1  0.4333360000000  0.5557460000000  0.3708360000000 1.0
C      1  0.4263310000000  0.4538130000000  0.3708460000000 1.0
C      1  0.5211240000000  0.4156400000000  0.3708430000000 1.0
C      1  0.5867150000000  0.4940070000000  0.3708200000000 1.0
C      1  0.5324540000000  0.5805940000000  0.3708180000000 1.0
C      1  0.5371250000000  0.5771210000000  0.5511550000000 1.0
C      1  0.4381660000000  0.5591730000000  0.5510710000000 1.0
C      1  0.4247000000000  0.4595220000000  0.5510840000000 1.0
C      1  0.5152870000000  0.4159160000000  0.5511310000000 1.0
C      1  0.5847630000000  0.4885790000000  0.5510350000000 1.0
C      1  0.4259050000000  0.7106460000000  0.5816210000000 1.0
C      1  0.2768380000000  0.4946020000000  0.5813680000000 1.0
C      1  0.4361780000000  0.2860070000000  0.5814530000000 1.0
C      1  0.6837800000000  0.3731810000000  0.5814420000000 1.0
C      1  0.6773530000000  0.6355750000000  0.5814170000000 1.0
C      1  0.7317060000000  0.4023660000000  0.3710420000000 1.0
C      1  0.6643640000000  0.6901680000000  0.3709970000000 1.0
C      1  0.3703380000000  0.7152180000000  0.3711490000000 1.0
C      1  0.2551800000000  0.4427570000000  0.3709990000000 1.0
C      1  0.4787760000000  0.2494030000000  0.3710800000000 1.0
C      1  0.7132060000000  0.5669830000000  0.4302280000000 1.0
C      1  0.5020730000000  0.7234110000000  0.4301820000000 1.0
C      1  0.2882090000000  0.5711660000000  0.4300540000000 1.0
C      1  0.3667810000000  0.3204680000000  0.4303370000000 1.0
C      1  0.6295850000000  0.3178410000000  0.4303270000000 1.0
C      1  0.7097240000000  0.3664750000000  0.4765450000000 1.0
C      1  0.6916560000000  0.6582040000000  0.4765260000000 1.0
C      1  0.4087940000000  0.7312450000000  0.4768300000000 1.0
C      1  0.2518730000000  0.4848500000000  0.4764450000000 1.0
C      1  0.4377490000000  0.2592550000000  0.4765380000000 1.0
C      1  0.5229390000000  0.3340240000000  0.6212800000000 1.0
C      1  0.6649520000000  0.4705220000000  0.6213230000000 1.0
C      1  0.5789830000000  0.6477730000000  0.6214090000000 1.0
C      1  0.3838970000000  0.6207970000000  0.6214300000000 1.0
C      1  0.3492520000000  0.4268650000000  0.6213080000000 1.0
C      1  0.2816910000000  0.3754960000000  0.4817580000000 1.0
C      1  0.5509750000000  0.2539390000000  0.4818040000000 1.0
C      1  0.7498060000000  0.4725100000000  0.4816960000000 1.0
C      1  0.6032440000000  0.7291590000000  0.4816080000000 1.0
C      1  0.3139690000000  0.6691190000000  0.4815580000000 1.0
C      1  0.6385570000000  0.4891950000000  0.4679900000000 1.0
C      1  0.5531020000000  0.6284430000000  0.4679590000000 1.0
C      1  0.3942540000000  0.5902610000000  0.4680090000000 1.0
C      1  0.3815400000000  0.4273020000000  0.4680050000000 1.0
C      1  0.5325620000000  0.3648950000000  0.4680150000000 1.0
END
