TITL C-986976-6631-235 4.24140235758269e-06 3375 -366.754579508638 0 0 60 (C1) n - 1
REM
REM in /home/bkarasulu/work/CARBON/AIRSS/Generating-Clusters/REBO/Higher-Symm/Only-C60
REM
REM
REM
REM
REM
REM ./C.cell (a2850807a9bf4ad07a5b6933b78d9264)
REM AIRSS Version 0.9.1 bugfix July 2018 build 013d7b7c2542+ Fri, 06 Jul 2018 19:26:36 +0100
REM compiler GCC version 9.2.1 20190827 (Red Hat 9.2.1-1)
REM options -cpp -mtune=generic -march=x86-64 -g -O0 -fpre-include=/usr/include/finclude/math-vector-fortran.h
REM seed -1536532262 1442249052 160686172 87997254 129063006 -307900352 1416958547 -1684326014 -972575812 510327867 675641330 -1994679640 -1413792531 1097151040 312285995 -181182137 1954985578 2056980340 -798494860 2011090755 2111559525 1848876407 416270175 -1175741644 593309828 631849295 -190949290 1012900834 2090584451 1735227039 1526376253 -1235731156 -1154625836
REM
CELL 1.54180   15.00000   15.00000   15.00000   90.00000   90.00000   90.00000
LATT -1
SFAC C  
C      1  0.7569830000000  0.4906660000000  0.5581020000000 1.0
C      1  0.3879430000000  0.7296980000000  0.5578540000000 1.0
C      1  0.3555970000000  0.2882350000000  0.5580430000000 1.0
C      1  0.7553650000000  0.4820740000000  0.4524840000000 1.0
C      1  0.3966260000000  0.7326300000000  0.4525040000000 1.0
C      1  0.3497790000000  0.2945430000000  0.4535400000000 1.0
C      1  0.5688950000000  0.4304860000000  0.4095360000000 1.0
C      1  0.5324610000000  0.5944260000000  0.4088870000000 1.0
C      1  0.4114510000000  0.4808890000000  0.4067050000000 1.0
C      1  0.5706320000000  0.4319800000000  0.5894750000000 1.0
C      1  0.5299430000000  0.5948800000000  0.5908660000000 1.0
C      1  0.4117030000000  0.4786320000000  0.5925980000000 1.0
C      1  0.5170460000000  0.3209190000000  0.6952490000000 1.0
C      1  0.6027660000000  0.6303040000000  0.6966870000000 1.0
C      1  0.3437810000000  0.5277600000000  0.6960160000000 1.0
C      1  0.5072480000000  0.3196250000000  0.3073180000000 1.0
C      1  0.6092940000000  0.6248160000000  0.3043740000000 1.0
C      1  0.3460070000000  0.5361230000000  0.3047630000000 1.0
C      1  0.3075890000000  0.5893440000000  0.3764510000000 1.0
C      1  0.5164380000000  0.2586240000000  0.3913200000000 1.0
C      1  0.6751280000000  0.6309330000000  0.3763030000000 1.0
C      1  0.3046600000000  0.5815570000000  0.6253290000000 1.0
C      1  0.5245990000000  0.2596190000000  0.6117260000000 1.0
C      1  0.6698820000000  0.6366290000000  0.6262630000000 1.0
C      1  0.4895520000000  0.7519250000000  0.5452600000000 1.0
C      1  0.2910510000000  0.3693330000000  0.5461210000000 1.0
C      1  0.7269500000000  0.3909770000000  0.5447180000000 1.0
C      1  0.4986570000000  0.7569130000000  0.4425280000000 1.0
C      1  0.2837490000000  0.3746570000000  0.4421310000000 1.0
C      1  0.7269570000000  0.3808110000000  0.4423310000000 1.0
C      1  0.5567080000000  0.6930350000000  0.5800160000000 1.0
C      1  0.3120220000000  0.4552100000000  0.5834050000000 1.0
C      1  0.6425020000000  0.3604630000000  0.5776600000000 1.0
C      1  0.5632750000000  0.6927780000000  0.4139720000000 1.0
C      1  0.3102580000000  0.4606680000000  0.4108510000000 1.0
C      1  0.6392010000000  0.3556100000000  0.4151530000000 1.0
C      1  0.6524640000000  0.7032610000000  0.5491140000000 1.0
C      1  0.2567960000000  0.5329080000000  0.5484330000000 1.0
C      1  0.5991890000000  0.2772790000000  0.5491980000000 1.0
C      1  0.6567920000000  0.7005520000000  0.4515410000000 1.0
C      1  0.2579810000000  0.5378440000000  0.4509380000000 1.0
C      1  0.5951730000000  0.2751450000000  0.4492440000000 1.0
C      1  0.5132980000000  0.4117440000000  0.6783370000000 1.0
C      1  0.5200740000000  0.5767520000000  0.6959290000000 1.0
C      1  0.4515070000000  0.4974470000000  0.6971820000000 1.0
C      1  0.5083670000000  0.4109340000000  0.3221890000000 1.0
C      1  0.5238630000000  0.5753350000000  0.3037190000000 1.0
C      1  0.4518220000000  0.4996700000000  0.3023380000000 1.0
C      1  0.4394590000000  0.5749970000000  0.4489160000000 1.0
C      1  0.4695710000000  0.4062550000000  0.4493200000000 1.0
C      1  0.5971970000000  0.5217160000000  0.4474290000000 1.0
C      1  0.4382070000000  0.5735470000000  0.5513530000000 1.0
C      1  0.4715030000000  0.4057510000000  0.5521410000000 1.0
C      1  0.5965180000000  0.5231620000000  0.5531990000000 1.0
C      1  0.3742160000000  0.6482600000000  0.4149470000000 1.0
C      1  0.4370470000000  0.3130560000000  0.4201510000000 1.0
C      1  0.6931310000000  0.5432570000000  0.4145120000000 1.0
C      1  0.3699620000000  0.6424890000000  0.5886080000000 1.0
C      1  0.4430910000000  0.3116770000000  0.5850360000000 1.0
C      1  0.6900740000000  0.5491900000000  0.5896870000000 1.0
END
