TITL C-986978-6805-889 3.34919187972209e-06 3375 -337.645226604392 0 0 60 (C3) n - 1
REM
REM in /home/bkarasulu/work/CARBON/AIRSS/Generating-Clusters/REBO/Higher-Symm/Only-C60
REM
REM
REM
REM
REM
REM ./C.cell (a2850807a9bf4ad07a5b6933b78d9264)
REM AIRSS Version 0.9.1 bugfix July 2018 build 013d7b7c2542+ Fri, 06 Jul 2018 19:26:36 +0100
REM compiler GCC version 9.2.1 20190827 (Red Hat 9.2.1-1)
REM options -cpp -mtune=generic -march=x86-64 -g -O0 -fpre-include=/usr/include/finclude/math-vector-fortran.h
REM seed 675222565 1621164045 -1730317503 611483694 -1855857640 1886348782 1227091964 -1567805665 -977642757 1471502070 103754231 -661953489 1566047592 -316233678 -1689562684 -859877441 1886815465 1157394124 105051070 1107150181 1577029260 -2068400535 -313431015 843570824 1932161982 -678765458 -2006360575 1110763151 1550281125 -1730410680 1201306797 412874883 906975010
REM
CELL 1.54180   15.00000   15.00000   15.00000   90.00000   90.00000   90.00000
LATT -1
SFAC C  
C      1  0.5620220000000  0.3675990000000  0.7072840000000 1.0
C      1  0.5836610000000  0.6199140000000  0.7072800000000 1.0
C      1  0.3543300000000  0.5124960000000  0.7072860000000 1.0
C      1  0.4375730000000  0.5020670000000  0.4708560000000 1.0
C      1  0.5294220000000  0.4449030000000  0.4708550000000 1.0
C      1  0.5330030000000  0.5530290000000  0.4708530000000 1.0
C      1  0.5235190000000  0.4428680000000  0.6425620000000 1.0
C      1  0.5377250000000  0.5489340000000  0.6425600000000 1.0
C      1  0.4387660000000  0.5082040000000  0.6425630000000 1.0
C      1  0.5469470000000  0.4003090000000  0.5556520000000 1.0
C      1  0.5628640000000  0.5905030000000  0.5556490000000 1.0
C      1  0.3901930000000  0.5091900000000  0.5556540000000 1.0
C      1  0.4935550000000  0.3327690000000  0.3195740000000 1.0
C      1  0.6480410000000  0.5780330000000  0.3195680000000 1.0
C      1  0.3583930000000  0.5891900000000  0.3195740000000 1.0
C      1  0.8209590000000  0.4377990000000  0.4567580000000 1.0
C      1  0.3933860000000  0.8090590000000  0.4567620000000 1.0
C      1  0.2856520000000  0.2531400000000  0.4567720000000 1.0
C      1  0.7763370000000  0.3590670000000  0.4712000000000 1.0
C      1  0.4838820000000  0.8097820000000  0.4712000000000 1.0
C      1  0.2397790000000  0.3311500000000  0.4712120000000 1.0
C      1  0.6803240000000  0.4332680000000  0.5776010000000 1.0
C      1  0.4676340000000  0.6895310000000  0.5776020000000 1.0
C      1  0.3520480000000  0.3772040000000  0.5776090000000 1.0
C      1  0.2748370000000  0.6237470000000  0.4887720000000 1.0
C      1  0.5054120000000  0.2431300000000  0.4887720000000 1.0
C      1  0.7197490000000  0.6331220000000  0.4887620000000 1.0
C      1  0.6856340000000  0.6591260000000  0.3893480000000 1.0
C      1  0.2693710000000  0.5812010000000  0.3893580000000 1.0
C      1  0.5449880000000  0.2596690000000  0.3893560000000 1.0
C      1  0.4314800000000  0.2625000000000  0.3816190000000 1.0
C      1  0.7399350000000  0.5594090000000  0.3816080000000 1.0
C      1  0.3285770000000  0.6780850000000  0.3816160000000 1.0
C      1  0.5096370000000  0.6773400000000  0.6627030000000 1.0
C      1  0.3416080000000  0.4196770000000  0.6627100000000 1.0
C      1  0.6487650000000  0.4029900000000  0.6627030000000 1.0
C      1  0.5576380000000  0.3917400000000  0.3908530000000 1.0
C      1  0.5649320000000  0.6040460000000  0.3908500000000 1.0
C      1  0.3774230000000  0.5042090000000  0.3908550000000 1.0
C      1  0.7094320000000  0.5403360000000  0.5552420000000 1.0
C      1  0.3603540000000  0.6612050000000  0.5552480000000 1.0
C      1  0.4302170000000  0.2984610000000  0.5552520000000 1.0
C      1  0.7703730000000  0.5169330000000  0.4616640000000 1.0
C      1  0.3501480000000  0.7256840000000  0.4616700000000 1.0
C      1  0.3794770000000  0.2573820000000  0.4616760000000 1.0
C      1  0.5203900000000  0.7311190000000  0.5077800000000 1.0
C      1  0.2896510000000  0.4020990000000  0.5077900000000 1.0
C      1  0.6899590000000  0.3667820000000  0.5077810000000 1.0
C      1  0.5443040000000  0.5460820000000  0.2989520000000 1.0
C      1  0.4379310000000  0.5153270000000  0.2989550000000 1.0
C      1  0.5177520000000  0.4385830000000  0.2989540000000 1.0
C      1  0.5633620000000  0.2955210000000  0.5579100000000 1.0
C      1  0.6454050000000  0.6571120000000  0.5579030000000 1.0
C      1  0.2912370000000  0.5473690000000  0.5579130000000 1.0
C      1  0.3363360000000  0.5933180000000  0.6438350000000 1.0
C      1  0.5010230000000  0.3116040000000  0.6438350000000 1.0
C      1  0.6626510000000  0.5950840000000  0.6438280000000 1.0
C      1  0.2907330000000  0.4945880000000  0.4598190000000 1.0
C      1  0.6093190000000  0.3214760000000  0.4598150000000 1.0
C      1  0.5999450000000  0.6839350000000  0.4598100000000 1.0
END
