TITL C-986979-5873-595 -5.26912774733571e-07 3375 -342.436209019902 0 0 60 (C1) n - 1
REM
REM in /home/bkarasulu/work/CARBON/AIRSS/Generating-Clusters/REBO/Higher-Symm/Only-C60
REM
REM
REM
REM
REM
REM ./C.cell (a2850807a9bf4ad07a5b6933b78d9264)
REM AIRSS Version 0.9.1 bugfix July 2018 build 013d7b7c2542+ Fri, 06 Jul 2018 19:26:36 +0100
REM compiler GCC version 9.2.1 20190827 (Red Hat 9.2.1-1)
REM options -cpp -mtune=generic -march=x86-64 -g -O0 -fpre-include=/usr/include/finclude/math-vector-fortran.h
REM seed -929808121 -1346827154 -1381450214 382538845 342537876 925981756 -1607796880 1773434929 -1689131784 1956790898 -471070528 -811948347 2050352012 764328620 358989284 -916298966 -1376242621 1494803234 721528199 -780511122 649247550 -1779531013 92996680 -71086196 981295219 -374144604 2005811514 -530350169 -901826958 461441982 -1504376966 1493782242 -2065752372
REM
CELL 1.54180   15.00000   15.00000   15.00000   90.00000   90.00000   90.00000
LATT -1
SFAC C  
C      1  0.4714320000000  0.3760090000000  0.3290000000000 1.0
C      1  0.4838670000000  0.3834950000000  0.6534870000000 1.0
C      1  0.5129940000000  0.7140290000000  0.4062410000000 1.0
C      1  0.5112310000000  0.7110960000000  0.5947600000000 1.0
C      1  0.3501590000000  0.6692010000000  0.6145780000000 1.0
C      1  0.3527960000000  0.6661490000000  0.3841280000000 1.0
C      1  0.5202180000000  0.3628430000000  0.5471980000000 1.0
C      1  0.5035090000000  0.3694850000000  0.4350860000000 1.0
C      1  0.7237880000000  0.4249300000000  0.3861310000000 1.0
C      1  0.7251290000000  0.4261290000000  0.6066560000000 1.0
C      1  0.6269420000000  0.3044960000000  0.4091450000000 1.0
C      1  0.6392800000000  0.2967090000000  0.5892840000000 1.0
C      1  0.2898180000000  0.6013830000000  0.6303420000000 1.0
C      1  0.2902110000000  0.5989080000000  0.3784410000000 1.0
C      1  0.5457570000000  0.5217950000000  0.6048980000000 1.0
C      1  0.5628260000000  0.5227970000000  0.3987510000000 1.0
C      1  0.6011140000000  0.5073640000000  0.2994350000000 1.0
C      1  0.6049130000000  0.5090110000000  0.7010940000000 1.0
C      1  0.4642520000000  0.5429340000000  0.4052310000000 1.0
C      1  0.4493480000000  0.5443450000000  0.5833670000000 1.0
C      1  0.5437350000000  0.2506600000000  0.5540710000000 1.0
C      1  0.5335730000000  0.2615090000000  0.4522900000000 1.0
C      1  0.5093520000000  0.6440680000000  0.7095130000000 1.0
C      1  0.5080880000000  0.6395840000000  0.2964700000000 1.0
C      1  0.6507490000000  0.5402890000000  0.5720510000000 1.0
C      1  0.6493390000000  0.5247660000000  0.4685660000000 1.0
C      1  0.3958590000000  0.4663720000000  0.4427050000000 1.0
C      1  0.3817190000000  0.4775310000000  0.5420720000000 1.0
C      1  0.5822420000000  0.4333570000000  0.4527980000000 1.0
C      1  0.5964970000000  0.4409850000000  0.5573990000000 1.0
C      1  0.4313460000000  0.6991880000000  0.3287360000000 1.0
C      1  0.4301610000000  0.6942620000000  0.6688290000000 1.0
C      1  0.2587580000000  0.3621800000000  0.5445930000000 1.0
C      1  0.2582560000000  0.3621030000000  0.4532200000000 1.0
C      1  0.4299360000000  0.4807430000000  0.3150660000000 1.0
C      1  0.4416720000000  0.4854510000000  0.6796860000000 1.0
C      1  0.3296090000000  0.3907260000000  0.4004480000000 1.0
C      1  0.3315600000000  0.3973660000000  0.5915010000000 1.0
C      1  0.6928380000000  0.3591090000000  0.4478260000000 1.0
C      1  0.6986940000000  0.3564340000000  0.5464410000000 1.0
C      1  0.6123210000000  0.7033040000000  0.4546680000000 1.0
C      1  0.6123780000000  0.7089610000000  0.5506890000000 1.0
C      1  0.6869270000000  0.4690700000000  0.3139810000000 1.0
C      1  0.6881180000000  0.4700580000000  0.6789160000000 1.0
C      1  0.5421510000000  0.2881050000000  0.3406200000000 1.0
C      1  0.5526330000000  0.2985900000000  0.6572740000000 1.0
C      1  0.2930550000000  0.5119010000000  0.4487900000000 1.0
C      1  0.2802010000000  0.5163760000000  0.5606700000000 1.0
C      1  0.4374310000000  0.6405800000000  0.5476360000000 1.0
C      1  0.4420770000000  0.6389860000000  0.4462160000000 1.0
C      1  0.5988310000000  0.6720390000000  0.3451070000000 1.0
C      1  0.5984340000000  0.6841190000000  0.6623480000000 1.0
C      1  0.3352380000000  0.5096930000000  0.6620790000000 1.0
C      1  0.3265420000000  0.5073420000000  0.3379510000000 1.0
C      1  0.3800260000000  0.3648860000000  0.6606150000000 1.0
C      1  0.3684850000000  0.3549550000000  0.3263540000000 1.0
C      1  0.6750650000000  0.6312410000000  0.6022840000000 1.0
C      1  0.6640120000000  0.6120410000000  0.4128460000000 1.0
C      1  0.5134570000000  0.5508710000000  0.7296550000000 1.0
C      1  0.5090520000000  0.5470930000000  0.2797660000000 1.0
END
