TITL C-986979-5873-569 9.40133916780065e-06 3375 -335.473203704942 0 0 60 (C1) n - 1
REM
REM in /home/bkarasulu/work/CARBON/AIRSS/Generating-Clusters/REBO/Higher-Symm/Only-C60
REM
REM
REM
REM
REM
REM ./C.cell (a2850807a9bf4ad07a5b6933b78d9264)
REM AIRSS Version 0.9.1 bugfix July 2018 build 013d7b7c2542+ Fri, 06 Jul 2018 19:26:36 +0100
REM compiler GCC version 9.2.1 20190827 (Red Hat 9.2.1-1)
REM options -cpp -mtune=generic -march=x86-64 -g -O0 -fpre-include=/usr/include/finclude/math-vector-fortran.h
REM seed -1561048862 -1132028092 -1046216815 1155374974 1076814553 -634716320 -882146539 -1149804450 1383891386 -2095701428 239847002 143079164 -678205175 1743264406 481256422 -243788025 349412552 28985290 -260614290 611753277 -2129575922 451860208 1359707965 1992520283 879253602 -1426740637 340270146 -1120754712 -1012077699 1476086662 -1757791738 1723582662 418773946
REM
CELL 1.54180   15.00000   15.00000   15.00000   90.00000   90.00000   90.00000
LATT -1
SFAC C  
C      1  0.6269460000000  0.3830330000000  0.4847900000000 1.0
C      1  0.6294040000000  0.5535850000000  0.6047740000000 1.0
C      1  0.6266740000000  0.5717150000000  0.4004260000000 1.0
C      1  0.3720200000000  0.3773870000000  0.5145470000000 1.0
C      1  0.3689900000000  0.5480290000000  0.3949030000000 1.0
C      1  0.3709040000000  0.5641860000000  0.6003930000000 1.0
C      1  0.4573350000000  0.4009030000000  0.3062150000000 1.0
C      1  0.4422010000000  0.3779500000000  0.6946470000000 1.0
C      1  0.4600270000000  0.7124560000000  0.5126310000000 1.0
C      1  0.5391640000000  0.4050140000000  0.6909770000000 1.0
C      1  0.5554630000000  0.3757910000000  0.3061080000000 1.0
C      1  0.5569850000000  0.7279490000000  0.4900150000000 1.0
C      1  0.6139380000000  0.7054370000000  0.5626930000000 1.0
C      1  0.6113670000000  0.4505590000000  0.2869680000000 1.0
C      1  0.5999770000000  0.3493370000000  0.6467170000000 1.0
C      1  0.3984320000000  0.7012520000000  0.4430230000000 1.0
C      1  0.3856030000000  0.4526690000000  0.7106590000000 1.0
C      1  0.3968450000000  0.3453720000000  0.3521640000000 1.0
C      1  0.5986330000000  0.2830910000000  0.4981640000000 1.0
C      1  0.6012820000000  0.6044740000000  0.6990770000000 1.0
C      1  0.5976120000000  0.6148080000000  0.3073970000000 1.0
C      1  0.4021590000000  0.2772050000000  0.5017880000000 1.0
C      1  0.3993280000000  0.6049330000000  0.3085830000000 1.0
C      1  0.3995180000000  0.6213100000000  0.6912070000000 1.0
C      1  0.4565750000000  0.6958670000000  0.6870830000000 1.0
C      1  0.4493270000000  0.5638710000000  0.2402450000000 1.0
C      1  0.4510330000000  0.2383250000000  0.5711070000000 1.0
C      1  0.5460840000000  0.6924490000000  0.3088410000000 1.0
C      1  0.5446000000000  0.5639280000000  0.7621680000000 1.0
C      1  0.5517680000000  0.2438080000000  0.4275890000000 1.0
C      1  0.3222140000000  0.6533250000000  0.4618330000000 1.0
C      1  0.3213870000000  0.3849780000000  0.3870020000000 1.0
C      1  0.3116130000000  0.4589540000000  0.6567190000000 1.0
C      1  0.6877950000000  0.6553040000000  0.5414530000000 1.0
C      1  0.6755590000000  0.3889250000000  0.6120910000000 1.0
C      1  0.6843730000000  0.4614030000000  0.3419570000000 1.0
C      1  0.5495770000000  0.6692730000000  0.6337760000000 1.0
C      1  0.5442230000000  0.5285010000000  0.2823430000000 1.0
C      1  0.5436340000000  0.2910340000000  0.5837570000000 1.0
C      1  0.4539780000000  0.6742490000000  0.3612190000000 1.0
C      1  0.4509810000000  0.5315670000000  0.7131390000000 1.0
C      1  0.4570490000000  0.2930090000000  0.4164320000000 1.0
C      1  0.5371300000000  0.3752050000000  0.4139810000000 1.0
C      1  0.5380840000000  0.4999700000000  0.6462760000000 1.0
C      1  0.5380830000000  0.6384960000000  0.4300150000000 1.0
C      1  0.4606370000000  0.3699000000000  0.5872710000000 1.0
C      1  0.4603820000000  0.4951670000000  0.3529930000000 1.0
C      1  0.4619740000000  0.6271100000000  0.5738940000000 1.0
C      1  0.4355720000000  0.5609510000000  0.4850920000000 1.0
C      1  0.4353090000000  0.4506830000000  0.4551610000000 1.0
C      1  0.4362770000000  0.4795530000000  0.5662790000000 1.0
C      1  0.5631340000000  0.5668260000000  0.5153020000000 1.0
C      1  0.5637040000000  0.4558950000000  0.5443980000000 1.0
C      1  0.5612890000000  0.4852340000000  0.4340550000000 1.0
C      1  0.3051090000000  0.5630070000000  0.5109300000000 1.0
C      1  0.3047910000000  0.4728550000000  0.4405560000000 1.0
C      1  0.3055210000000  0.4572570000000  0.5534460000000 1.0
C      1  0.6937140000000  0.5666900000000  0.4887630000000 1.0
C      1  0.6942770000000  0.4765470000000  0.5586100000000 1.0
C      1  0.6924400000000  0.4614400000000  0.4453580000000 1.0
END
