TITL C-986976-6631-67 -2.13147025167222e-06 3375 -339.196807915799 0 0 60 (C3) n - 1
REM
REM in /home/bkarasulu/work/CARBON/AIRSS/Generating-Clusters/REBO/Higher-Symm/Only-C60
REM
REM
REM
REM
REM
REM ./C.cell (a2850807a9bf4ad07a5b6933b78d9264)
REM AIRSS Version 0.9.1 bugfix July 2018 build 013d7b7c2542+ Fri, 06 Jul 2018 19:26:36 +0100
REM compiler GCC version 9.2.1 20190827 (Red Hat 9.2.1-1)
REM options -cpp -mtune=generic -march=x86-64 -g -O0 -fpre-include=/usr/include/finclude/math-vector-fortran.h
REM seed -723292967 -230391657 278151690 1861842446 -1317193256 -645234335 1485934759 1639571082 1099796716 -588729585 -1025948691 -101892486 -230472137 784837571 1614113631 1267245441 744318532 509576825 -2050559446 -1244884331 -687110567 -392020883 -833165516 -495682302 2017885766 -592237057 121542587 811370916 -2073414416 909609209 104097336 11046439 -381889115
REM
CELL 1.54180   15.00000   15.00000   15.00000   90.00000   90.00000   90.00000
LATT -1
SFAC C  
C      1  0.5432910000000  0.3250030000000  0.6294840000000 1.0
C      1  0.3662200000000  0.3250020000000  0.4727470000000 1.0
C      1  0.5904930000000  0.3250040000000  0.3977680000000 1.0
C      1  0.5607230000000  0.2998890000000  0.5249660000000 1.0
C      1  0.4480190000000  0.2998880000000  0.5401020000000 1.0
C      1  0.4912630000000  0.2998880000000  0.4349290000000 1.0
C      1  0.5224110000000  0.6974900000000  0.3558150000000 1.0
C      1  0.6136600000000  0.6974900000000  0.5915030000000 1.0
C      1  0.3639240000000  0.6974880000000  0.5526840000000 1.0
C      1  0.3760030000000  0.5843610000000  0.6972320000000 1.0
C      1  0.3911900000000  0.5843620000000  0.2940010000000 1.0
C      1  0.7328050000000  0.5843640000000  0.5087680000000 1.0
C      1  0.6598390000000  0.3186820000000  0.4874430000000 1.0
C      1  0.4309570000000  0.3186790000000  0.6447010000000 1.0
C      1  0.4092080000000  0.3186800000000  0.3678540000000 1.0
C      1  0.3609110000000  0.6433020000000  0.4753450000000 1.0
C      1  0.5908950000000  0.6433040000000  0.3918750000000 1.0
C      1  0.5481910000000  0.6433030000000  0.6327820000000 1.0
C      1  0.5182140000000  0.4839560000000  0.7076900000000 1.0
C      1  0.3110280000000  0.4839550000000  0.4119290000000 1.0
C      1  0.6707580000000  0.4839580000000  0.3803810000000 1.0
C      1  0.4451790000000  0.7524610000000  0.5357490000000 1.0
C      1  0.4964490000000  0.7524620000000  0.4346520000000 1.0
C      1  0.5583660000000  0.7524620000000  0.5296010000000 1.0
C      1  0.3986740000000  0.3912480000000  0.3088570000000 1.0
C      1  0.7161980000000  0.3912500000000  0.5078190000000 1.0
C      1  0.3851300000000  0.3912460000000  0.6833220000000 1.0
C      1  0.5168070000000  0.5446100000000  0.2779280000000 1.0
C      1  0.6839160000000  0.5446100000000  0.6255920000000 1.0
C      1  0.2992750000000  0.5446070000000  0.5964800000000 1.0
C      1  0.3063570000000  0.3938880000000  0.4048380000000 1.0
C      1  0.6792350000000  0.3938900000000  0.3798790000000 1.0
C      1  0.5144110000000  0.3938880000000  0.7152810000000 1.0
C      1  0.4527720000000  0.4775530000000  0.3445870000000 1.0
C      1  0.6582050000000  0.4775540000000  0.5368060000000 1.0
C      1  0.3890230000000  0.4775510000000  0.6186070000000 1.0
C      1  0.5731690000000  0.3737480000000  0.3020670000000 1.0
C      1  0.6348310000000  0.3737480000000  0.6623320000000 1.0
C      1  0.2920020000000  0.3737450000000  0.5356000000000 1.0
C      1  0.3444680000000  0.5123470000000  0.5012610000000 1.0
C      1  0.5766740000000  0.5123490000000  0.3646750000000 1.0
C      1  0.5788580000000  0.5123480000000  0.6340640000000 1.0
C      1  0.3287500000000  0.6435260000000  0.6271750000000 1.0
C      1  0.4754870000000  0.6435280000000  0.2881070000000 1.0
C      1  0.6957600000000  0.6435290000000  0.5847190000000 1.0
C      1  0.3431770000000  0.4889140000000  0.7217240000000 1.0
C      1  0.3863930000000  0.4889150000000  0.2533250000000 1.0
C      1  0.7704300000000  0.4889180000000  0.5249510000000 1.0
C      1  0.5466030000000  0.4381610000000  0.2584520000000 1.0
C      1  0.6858860000000  0.4381610000000  0.6611330000000 1.0
C      1  0.2675120000000  0.4381580000000  0.5804140000000 1.0
C      1  0.4928400000000  0.5847940000000  0.5635990000000 1.0
C      1  0.4485010000000  0.5847940000000  0.4620010000000 1.0
C      1  0.5586570000000  0.5847950000000  0.4744010000000 1.0
C      1  0.5064880000000  0.4682290000000  0.4362310000000 1.0
C      1  0.5519820000000  0.4682290000000  0.5375030000000 1.0
C      1  0.4415310000000  0.4682290000000  0.5262660000000 1.0
C      1  0.3615560000000  0.5778350000000  0.3880340000000 1.0
C      1  0.6661860000000  0.5778380000000  0.4360880000000 1.0
C      1  0.4722560000000  0.5778350000000  0.6758790000000 1.0
END
