TITL C-986979-5873-367 -0.000561435699209875 3375 -338.919910425524 0 0 60 (C1) n - 1
REM
REM in /home/bkarasulu/work/CARBON/AIRSS/Generating-Clusters/REBO/Higher-Symm/Only-C60
REM
REM
REM
REM
REM
REM ./C.cell (a2850807a9bf4ad07a5b6933b78d9264)
REM AIRSS Version 0.9.1 bugfix July 2018 build 013d7b7c2542+ Fri, 06 Jul 2018 19:26:36 +0100
REM compiler GCC version 9.2.1 20190827 (Red Hat 9.2.1-1)
REM options -cpp -mtune=generic -march=x86-64 -g -O0 -fpre-include=/usr/include/finclude/math-vector-fortran.h
REM seed -1820936614 1440962646 1470213269 296422337 -1132736391 -946786525 -146282367 1528617583 1835110781 -1175175812 762775073 -2062543683 1255433044 -610243168 495749367 -815160817 -394231920 -1505981295 1289104706 -1696356983 321658216 112507768 2147185596 1397324734 -764748026 942336566 2073625008 -262541850 -1591300249 1155605238 1436061056 614196507 -120249115
REM
CELL 1.54180   15.00000   15.00000   15.00000   90.00000   90.00000   90.00000
LATT -1
SFAC C  
C      1  0.6081290000000  0.2762640000000  0.5648350000000 1.0
C      1  0.6027950000000  0.3460410000000  0.3768320000000 1.0
C      1  0.5780990000000  0.5518360000000  0.3036980000000 1.0
C      1  0.5993950000000  0.7065990000000  0.4394370000000 1.0
C      1  0.6083560000000  0.6451790000000  0.6360150000000 1.0
C      1  0.5981830000000  0.4461730000000  0.6883550000000 1.0
C      1  0.5973810000000  0.2630400000000  0.4540430000000 1.0
C      1  0.6257030000000  0.3484600000000  0.6460100000000 1.0
C      1  0.5778850000000  0.5563670000000  0.6932760000000 1.0
C      1  0.5801940000000  0.7080600000000  0.5500750000000 1.0
C      1  0.6167280000000  0.6425590000000  0.3516920000000 1.0
C      1  0.5932330000000  0.4410130000000  0.3150560000000 1.0
C      1  0.7097870000000  0.6793940000000  0.4385030000000 1.0
C      1  0.7162340000000  0.6199710000000  0.6111940000000 1.0
C      1  0.7100780000000  0.4467660000000  0.6750990000000 1.0
C      1  0.7193160000000  0.2992230000000  0.5658040000000 1.0
C      1  0.7179260000000  0.3587530000000  0.3958590000000 1.0
C      1  0.6876780000000  0.5333670000000  0.3264000000000 1.0
C      1  0.6873630000000  0.6781560000000  0.5348820000000 1.0
C      1  0.7274820000000  0.6180210000000  0.3621570000000 1.0
C      1  0.6994150000000  0.4354460000000  0.3405200000000 1.0
C      1  0.6977340000000  0.2975440000000  0.4688660000000 1.0
C      1  0.7401210000000  0.3589910000000  0.6417510000000 1.0
C      1  0.6866720000000  0.5428750000000  0.6675470000000 1.0
C      1  0.4121660000000  0.3214950000000  0.6335400000000 1.0
C      1  0.3979820000000  0.2316080000000  0.4082600000000 1.0
C      1  0.3856250000000  0.4726680000000  0.2711470000000 1.0
C      1  0.3995900000000  0.6820200000000  0.3658640000000 1.0
C      1  0.3804840000000  0.7712580000000  0.5884170000000 1.0
C      1  0.3753920000000  0.5627290000000  0.7563340000000 1.0
C      1  0.3975450000000  0.3168470000000  0.3486480000000 1.0
C      1  0.4080290000000  0.2352360000000  0.5747200000000 1.0
C      1  0.3905860000000  0.4650680000000  0.7210330000000 1.0
C      1  0.3897460000000  0.6859860000000  0.6493900000000 1.0
C      1  0.3917380000000  0.7662210000000  0.4269740000000 1.0
C      1  0.3744480000000  0.5738480000000  0.2463610000000 1.0
C      1  0.4913210000000  0.7226760000000  0.4521950000000 1.0
C      1  0.4958840000000  0.6536940000000  0.6436890000000 1.0
C      1  0.4902370000000  0.4567260000000  0.6850320000000 1.0
C      1  0.5013040000000  0.2863730000000  0.5425490000000 1.0
C      1  0.4929570000000  0.3634610000000  0.3530660000000 1.0
C      1  0.4735770000000  0.5696370000000  0.2910880000000 1.0
C      1  0.4773490000000  0.7312800000000  0.5615240000000 1.0
C      1  0.5049170000000  0.6508900000000  0.3636990000000 1.0
C      1  0.4852580000000  0.4566890000000  0.3032160000000 1.0
C      1  0.4937910000000  0.2823130000000  0.4327470000000 1.0
C      1  0.5142280000000  0.3617580000000  0.6286580000000 1.0
C      1  0.4735350000000  0.5673550000000  0.7096470000000 1.0
C      1  0.3148830000000  0.2877260000000  0.4476990000000 1.0
C      1  0.3086980000000  0.4536070000000  0.3372100000000 1.0
C      1  0.3078590000000  0.6337880000000  0.3809030000000 1.0
C      1  0.3019190000000  0.7087370000000  0.5530920000000 1.0
C      1  0.3000690000000  0.5529970000000  0.6808350000000 1.0
C      1  0.3223150000000  0.3688290000000  0.6118310000000 1.0
C      1  0.3209170000000  0.2883780000000  0.5434020000000 1.0
C      1  0.3140810000000  0.4496940000000  0.6556340000000 1.0
C      1  0.3037110000000  0.6312890000000  0.6272210000000 1.0
C      1  0.3076770000000  0.7073230000000  0.4575450000000 1.0
C      1  0.3002730000000  0.5599760000000  0.3219070000000 1.0
C      1  0.3140210000000  0.3697220000000  0.3770180000000 1.0
END
