TITL C-986974-580-469 -8.62884653983164e-05 3375 -343.191863870513 0 0 60 (C1) n - 1
REM
REM in /home/bkarasulu/work/CARBON/AIRSS/Generating-Clusters/REBO/Higher-Symm/Only-C60
REM
REM
REM
REM
REM
REM ./C.cell (a2850807a9bf4ad07a5b6933b78d9264)
REM AIRSS Version 0.9.1 bugfix July 2018 build 013d7b7c2542+ Fri, 06 Jul 2018 19:26:36 +0100
REM compiler GCC version 9.2.1 20190827 (Red Hat 9.2.1-1)
REM options -cpp -mtune=generic -march=x86-64 -g -O0 -fpre-include=/usr/include/finclude/math-vector-fortran.h
REM seed 716984039 1749990019 -1875330950 38856494 -2031872118 650325358 -2080192328 -1579387182 82256358 -1781503003 1654908376 -1962637910 1446136819 1507731838 -616092341 1245700753 2042879974 43034658 68271561 -1549887979 -1130197517 -1401965210 -1296287372 -699537493 522603103 1695771265 527149838 -1890413217 -2119585550 170382982 326128432 1974808683 1976714833
REM
CELL 1.54180   15.00000   15.00000   15.00000   90.00000   90.00000   90.00000
LATT -1
SFAC C  
C      1  0.3021580000000  0.3294460000000  0.4433190000000 1.0
C      1  0.6053960000000  0.3053020000000  0.4641380000000 1.0
C      1  0.4438020000000  0.7033050000000  0.3804160000000 1.0
C      1  0.6668160000000  0.3282150000000  0.5406970000000 1.0
C      1  0.5895730000000  0.6343020000000  0.7703330000000 1.0
C      1  0.4735500000000  0.2903480000000  0.4651980000000 1.0
C      1  0.3771610000000  0.3857760000000  0.5789150000000 1.0
C      1  0.5564050000000  0.3881650000000  0.7114470000000 1.0
C      1  0.4300050000000  0.5238010000000  0.3064220000000 1.0
C      1  0.2846030000000  0.5058590000000  0.4151300000000 1.0
C      1  0.5692590000000  0.4868350000000  0.4409090000000 1.0
C      1  0.4173230000000  0.5001950000000  0.4165930000000 1.0
C      1  0.3422220000000  0.3033900000000  0.5191710000000 1.0
C      1  0.5479710000000  0.5903890000000  0.4844610000000 1.0
C      1  0.5468460000000  0.6899140000000  0.5397090000000 1.0
C      1  0.4991450000000  0.3347440000000  0.3881320000000 1.0
C      1  0.6049960000000  0.6141400000000  0.6868460000000 1.0
C      1  0.3812420000000  0.6635830000000  0.5931880000000 1.0
C      1  0.3852180000000  0.4993150000000  0.7034510000000 1.0
C      1  0.7358970000000  0.5129700000000  0.6606560000000 1.0
C      1  0.4413340000000  0.5375700000000  0.5890190000000 1.0
C      1  0.6642190000000  0.5300050000000  0.4619670000000 1.0
C      1  0.6986760000000  0.4142010000000  0.4065240000000 1.0
C      1  0.4732040000000  0.7308760000000  0.4645430000000 1.0
C      1  0.6824830000000  0.4917700000000  0.5644990000000 1.0
C      1  0.2663640000000  0.5039750000000  0.5888040000000 1.0
C      1  0.3603400000000  0.6126120000000  0.5143770000000 1.0
C      1  0.5237160000000  0.3071520000000  0.6386880000000 1.0
C      1  0.6236180000000  0.5508950000000  0.3125210000000 1.0
C      1  0.4738730000000  0.4567770000000  0.7244170000000 1.0
C      1  0.3960060000000  0.5975380000000  0.6678060000000 1.0
C      1  0.3277560000000  0.4043550000000  0.3980330000000 1.0
C      1  0.7172040000000  0.6091040000000  0.6165080000000 1.0
C      1  0.6056140000000  0.5240970000000  0.6420990000000 1.0
C      1  0.6275910000000  0.6808080000000  0.6083170000000 1.0
C      1  0.2900140000000  0.5472670000000  0.5078710000000 1.0
C      1  0.4394550000000  0.5887750000000  0.4664560000000 1.0
C      1  0.5162450000000  0.4844420000000  0.6291000000000 1.0
C      1  0.7077570000000  0.4065520000000  0.5084360000000 1.0
C      1  0.3282160000000  0.4523870000000  0.6402970000000 1.0
C      1  0.7377020000000  0.5197820000000  0.3914620000000 1.0
C      1  0.5294670000000  0.4001540000000  0.5786150000000 1.0
C      1  0.6573640000000  0.4333460000000  0.6829960000000 1.0
C      1  0.4225110000000  0.3922070000000  0.3390080000000 1.0
C      1  0.5633810000000  0.3974960000000  0.4930040000000 1.0
C      1  0.6021230000000  0.3659000000000  0.3695260000000 1.0
C      1  0.4009330000000  0.4751660000000  0.5234490000000 1.0
C      1  0.6351440000000  0.4648090000000  0.3272370000000 1.0
C      1  0.3468580000000  0.4278880000000  0.2689100000000 1.0
C      1  0.6537230000000  0.6146010000000  0.5224120000000 1.0
C      1  0.4472440000000  0.7281980000000  0.5695590000000 1.0
C      1  0.3084800000000  0.5928290000000  0.3476330000000 1.0
C      1  0.6331900000000  0.3357130000000  0.6315590000000 1.0
C      1  0.2974870000000  0.4967770000000  0.3021690000000 1.0
C      1  0.4994950000000  0.6642660000000  0.3116860000000 1.0
C      1  0.5896750000000  0.6353400000000  0.3167460000000 1.0
C      1  0.5068100000000  0.4647770000000  0.3624660000000 1.0
C      1  0.4467860000000  0.6005480000000  0.2630690000000 1.0
C      1  0.3540220000000  0.6704240000000  0.3697750000000 1.0
C      1  0.4443270000000  0.2986290000000  0.5693060000000 1.0
END
