TITL C-986978-6805-163 0.0314892103429001 3375 -336.683384901681 0 0 60 (C1) n - 1
REM
REM in /home/bkarasulu/work/CARBON/AIRSS/Generating-Clusters/REBO/Higher-Symm/Only-C60
REM
REM
REM
REM
REM
REM ./C.cell (a2850807a9bf4ad07a5b6933b78d9264)
REM AIRSS Version 0.9.1 bugfix July 2018 build 013d7b7c2542+ Fri, 06 Jul 2018 19:26:36 +0100
REM compiler GCC version 9.2.1 20190827 (Red Hat 9.2.1-1)
REM options -cpp -mtune=generic -march=x86-64 -g -O0 -fpre-include=/usr/include/finclude/math-vector-fortran.h
REM seed 1823041886 -1588975772 217555421 122105778 783665315 189190339 1822562626 -649684605 -508350092 1412303248 1489529891 -1352954885 -1185169735 -1884541949 -1979197241 -1501027065 -127934874 -157524948 -1639222091 -1796309318 746758385 1776941218 1539592317 -425335658 1720272008 -670916939 -323152967 -1518311022 623910565 -12586347 1822026457 -1339376225 1203510445
REM
CELL 1.54180   15.00000   15.00000   15.00000   90.00000   90.00000   90.00000
LATT -1
SFAC C  
C      1  0.2767050000000  0.4462160000000  0.3050090000000 1.0
C      1  0.3391480000000  0.3696120000000  0.5331210000000 1.0
C      1  0.3573760000000  0.4244850000000  0.4087510000000 1.0
C      1  0.7155710000000  0.4397660000000  0.6249930000000 1.0
C      1  0.4144280000000  0.2895510000000  0.5243470000000 1.0
C      1  0.4311680000000  0.3603840000000  0.4373260000000 1.0
C      1  0.6642110000000  0.3656860000000  0.6269890000000 1.0
C      1  0.5996550000000  0.7289850000000  0.5992570000000 1.0
C      1  0.5512320000000  0.6604590000000  0.4420660000000 1.0
C      1  0.7182000000000  0.4465610000000  0.4496110000000 1.0
C      1  0.6695300000000  0.6238410000000  0.3422170000000 1.0
C      1  0.3135270000000  0.3814230000000  0.6273560000000 1.0
C      1  0.5135650000000  0.5897280000000  0.6544830000000 1.0
C      1  0.5038610000000  0.5872750000000  0.5415170000000 1.0
C      1  0.3424040000000  0.6175010000000  0.4464350000000 1.0
C      1  0.5417920000000  0.3303860000000  0.6952740000000 1.0
C      1  0.3580960000000  0.5385730000000  0.5813960000000 1.0
C      1  0.5142950000000  0.6548300000000  0.3425240000000 1.0
C      1  0.6080830000000  0.4244860000000  0.4388860000000 1.0
C      1  0.4434690000000  0.4021440000000  0.6422880000000 1.0
C      1  0.7315050000000  0.5286270000000  0.4914540000000 1.0
C      1  0.2361970000000  0.5828240000000  0.3685440000000 1.0
C      1  0.3880030000000  0.6288650000000  0.5919550000000 1.0
C      1  0.7163450000000  0.3489260000000  0.4529600000000 1.0
C      1  0.5846380000000  0.3234740000000  0.5694740000000 1.0
C      1  0.6715640000000  0.6034590000000  0.4447140000000 1.0
C      1  0.4729250000000  0.4886760000000  0.3611170000000 1.0
C      1  0.5447470000000  0.3088530000000  0.3926570000000 1.0
C      1  0.5683370000000  0.4062890000000  0.7159640000000 1.0
C      1  0.6151420000000  0.3156460000000  0.4710110000000 1.0
C      1  0.5419830000000  0.4693130000000  0.2785850000000 1.0
C      1  0.4790400000000  0.2991760000000  0.6059010000000 1.0
C      1  0.5178480000000  0.7003710000000  0.5392370000000 1.0
C      1  0.5297000000000  0.4186340000000  0.5817400000000 1.0
C      1  0.1955670000000  0.5118420000000  0.4434570000000 1.0
C      1  0.3507890000000  0.5049470000000  0.7475990000000 1.0
C      1  0.4269590000000  0.6579590000000  0.3906190000000 1.0
C      1  0.5753820000000  0.5449670000000  0.2368960000000 1.0
C      1  0.5881720000000  0.6226710000000  0.2902280000000 1.0
C      1  0.5019140000000  0.4319080000000  0.4781490000000 1.0
C      1  0.7347230000000  0.5248860000000  0.5871340000000 1.0
C      1  0.5790810000000  0.5016240000000  0.6850340000000 1.0
C      1  0.4635620000000  0.2544670000000  0.4280360000000 1.0
C      1  0.5797450000000  0.5102970000000  0.5738700000000 1.0
C      1  0.5033860000000  0.5564640000000  0.4314900000000 1.0
C      1  0.5998870000000  0.5281010000000  0.4709690000000 1.0
C      1  0.3636980000000  0.4709780000000  0.6627270000000 1.0
C      1  0.2068800000000  0.4542150000000  0.3500730000000 1.0
C      1  0.6379750000000  0.5929060000000  0.6990580000000 1.0
C      1  0.4184420000000  0.6811570000000  0.5015610000000 1.0
C      1  0.7123300000000  0.6030520000000  0.6385630000000 1.0
C      1  0.5719920000000  0.6712330000000  0.6840600000000 1.0
C      1  0.3973110000000  0.4653090000000  0.5098540000000 1.0
C      1  0.7042060000000  0.6868220000000  0.5927540000000 1.0
C      1  0.2729780000000  0.4354580000000  0.4728510000000 1.0
C      1  0.5234930000000  0.3869240000000  0.3438430000000 1.0
C      1  0.6442740000000  0.6875380000000  0.5011280000000 1.0
C      1  0.3749870000000  0.4912190000000  0.3290650000000 1.0
C      1  0.3072710000000  0.5743060000000  0.3253900000000 1.0
C      1  0.2907050000000  0.5437240000000  0.4964330000000 1.0
END
