TITL C-986978-6805-756 7.82973990628409e-06 3375 -351.202282576224 0 0 60 (C1) n - 1
REM
REM in /home/bkarasulu/work/CARBON/AIRSS/Generating-Clusters/REBO/Higher-Symm/Only-C60
REM
REM
REM
REM
REM
REM ./C.cell (a2850807a9bf4ad07a5b6933b78d9264)
REM AIRSS Version 0.9.1 bugfix July 2018 build 013d7b7c2542+ Fri, 06 Jul 2018 19:26:36 +0100
REM compiler GCC version 9.2.1 20190827 (Red Hat 9.2.1-1)
REM options -cpp -mtune=generic -march=x86-64 -g -O0 -fpre-include=/usr/include/finclude/math-vector-fortran.h
REM seed -1373933523 1574675869 -459950416 -807441340 2128761282 1891003091 1049987126 1238783411 -26083515 1424897679 -868617401 1696978087 -662625466 620901012 842633410 -1678245073 2083748172 -908163367 -932537729 -761540346 -1648459118 -1564212549 -285550979 1792450932 2092903095 -1116729284 -1042684371 -230522955 820763865 -11370665 -139958071 1752934551 -1711758749
REM
CELL 1.54180   15.00000   15.00000   15.00000   90.00000   90.00000   90.00000
LATT -1
SFAC C  
C      1  0.4183790000000  0.8044940000000  0.4938840000000 1.0
C      1  0.7394310000000  0.6677900000000  0.5065310000000 1.0
C      1  0.7487950000000  0.3178750000000  0.5043800000000 1.0
C      1  0.4045080000000  0.2201280000000  0.5002510000000 1.0
C      1  0.1807030000000  0.5247050000000  0.5018010000000 1.0
C      1  0.5839880000000  0.8000480000000  0.4934220000000 1.0
C      1  0.2533970000000  0.6781510000000  0.5081620000000 1.0
C      1  0.2674230000000  0.3236160000000  0.5040970000000 1.0
C      1  0.6155580000000  0.2119500000000  0.4945300000000 1.0
C      1  0.8118840000000  0.5181030000000  0.5012230000000 1.0
C      1  0.2197280000000  0.5519260000000  0.4177510000000 1.0
C      1  0.4524410000000  0.7830280000000  0.4059610000000 1.0
C      1  0.7425020000000  0.6340490000000  0.4164040000000 1.0
C      1  0.7093050000000  0.3152980000000  0.4167760000000 1.0
C      1  0.3904890000000  0.2694180000000  0.4193580000000 1.0
C      1  0.7808990000000  0.5460660000000  0.4141950000000 1.0
C      1  0.5489280000000  0.7812460000000  0.4053910000000 1.0
C      1  0.2539310000000  0.6416220000000  0.4191420000000 1.0
C      1  0.3137890000000  0.3259150000000  0.4209540000000 1.0
C      1  0.6308860000000  0.2608730000000  0.4142540000000 1.0
C      1  0.7415560000000  0.4825420000000  0.5649070000000 1.0
C      1  0.5668160000000  0.2383100000000  0.5852800000000 1.0
C      1  0.2859670000000  0.3881620000000  0.5861120000000 1.0
C      1  0.3337910000000  0.6527990000000  0.5671230000000 1.0
C      1  0.5822930000000  0.7219040000000  0.5576670000000 1.0
C      1  0.2446320000000  0.4891300000000  0.5745080000000 1.0
C      1  0.4577200000000  0.2545610000000  0.5874580000000 1.0
C      1  0.7024000000000  0.3807280000000  0.5741340000000 1.0
C      1  0.6570310000000  0.6435530000000  0.5623790000000 1.0
C      1  0.4131260000000  0.7269450000000  0.5589720000000 1.0
C      1  0.4478010000000  0.3486170000000  0.6500160000000 1.0
C      1  0.3324260000000  0.4969520000000  0.6467410000000 1.0
C      1  0.4485740000000  0.6497390000000  0.6347510000000 1.0
C      1  0.6154950000000  0.5709110000000  0.6381210000000 1.0
C      1  0.6162590000000  0.3931760000000  0.6460530000000 1.0
C      1  0.5480820000000  0.3308390000000  0.6484010000000 1.0
C      1  0.6564450000000  0.4869750000000  0.6401470000000 1.0
C      1  0.5442840000000  0.6458730000000  0.6332970000000 1.0
C      1  0.3737040000000  0.5800190000000  0.6429510000000 1.0
C      1  0.3768570000000  0.4044010000000  0.6497670000000 1.0
C      1  0.3904000000000  0.7345520000000  0.3528950000000 1.0
C      1  0.6823600000000  0.6771380000000  0.3569760000000 1.0
C      1  0.7313490000000  0.3876200000000  0.3600930000000 1.0
C      1  0.4648740000000  0.2754900000000  0.3618880000000 1.0
C      1  0.2541380000000  0.4817460000000  0.3644260000000 1.0
C      1  0.6091170000000  0.7314160000000  0.3513080000000 1.0
C      1  0.3156650000000  0.6827410000000  0.3600320000000 1.0
C      1  0.2910290000000  0.3987710000000  0.3653700000000 1.0
C      1  0.5554190000000  0.2723470000000  0.3589840000000 1.0
C      1  0.7580590000000  0.4744910000000  0.3566340000000 1.0
C      1  0.3782340000000  0.3975220000000  0.5164220000000 1.0
C      1  0.3812420000000  0.5661680000000  0.5106560000000 1.0
C      1  0.5397650000000  0.6341310000000  0.5009490000000 1.0
C      1  0.6441820000000  0.4801400000000  0.5079760000000 1.0
C      1  0.5444300000000  0.3252050000000  0.5155110000000 1.0
C      1  0.6072020000000  0.3896120000000  0.5131470000000 1.0
C      1  0.6040010000000  0.5605880000000  0.5058180000000 1.0
C      1  0.4485860000000  0.6364930000000  0.5024830000000 1.0
C      1  0.3393870000000  0.4866670000000  0.5144040000000 1.0
C      1  0.4483340000000  0.3447270000000  0.5167760000000 1.0
END
