TITL C-986972-3822-85 -9.95537163902554e-06 3375 -340.135614342105 0 0 60 (C3i) n - 1
REM
REM in /home/bkarasulu/work/CARBON/AIRSS/Generating-Clusters/REBO/Higher-Symm/Only-C60
REM
REM
REM
REM
REM
REM ./C.cell (a2850807a9bf4ad07a5b6933b78d9264)
REM AIRSS Version 0.9.1 bugfix July 2018 build 013d7b7c2542+ Fri, 06 Jul 2018 19:26:36 +0100
REM compiler GCC version 9.2.1 20190827 (Red Hat 9.2.1-1)
REM options -cpp -mtune=generic -march=x86-64 -g -O0 -fpre-include=/usr/include/finclude/math-vector-fortran.h
REM seed -85608161 -1130038920 -1503520076 2120393807 -707842118 1738559160 612560121 -1582200521 -1784577120 -361891324 -267326561 -284690189 1253096047 1099923393 -241105769 -410209209 -565266902 -680742617 -29460694 36168405 -422033433 -59307604 -1814740530 2012383736 459193656 880037413 1649827598 -1441545175 -621407554 -1896659041 -1190254673 -1542573990 1435308754
REM
CELL 1.54180   15.00000   15.00000   15.00000   90.00000   90.00000   90.00000
LATT -1
SFAC C  
C      1  0.6023910000000  0.5251340000000  0.4841950000000 1.0
C      1  0.5729600000000  0.4238960000000  0.5158280000000 1.0
C      1  0.4705760000000  0.3987620000000  0.4841730000000 1.0
C      1  0.3976100000000  0.4748650000000  0.5158040000000 1.0
C      1  0.4270420000000  0.5761040000000  0.4841720000000 1.0
C      1  0.5294250000000  0.6012370000000  0.5158280000000 1.0
C      1  0.3805350000000  0.2624810000000  0.4108800000000 1.0
C      1  0.2345470000000  0.4847080000000  0.5890550000000 1.0
C      1  0.3540530000000  0.7222370000000  0.4108920000000 1.0
C      1  0.6194680000000  0.7375180000000  0.5891220000000 1.0
C      1  0.7654510000000  0.5152900000000  0.4109400000000 1.0
C      1  0.6459470000000  0.2777660000000  0.5891120000000 1.0
C      1  0.6171560000000  0.4478850000000  0.3266580000000 1.0
C      1  0.5134010000000  0.3724960000000  0.6733550000000 1.0
C      1  0.3963180000000  0.4246290000000  0.3266270000000 1.0
C      1  0.3828400000000  0.5521190000000  0.6733400000000 1.0
C      1  0.4865980000000  0.6275110000000  0.3266470000000 1.0
C      1  0.6036810000000  0.5753750000000  0.6733740000000 1.0
C      1  0.7425170000000  0.5699760000000  0.5732070000000 1.0
C      1  0.6818770000000  0.3249560000000  0.4268480000000 1.0
C      1  0.4393300000000  0.2549750000000  0.5731580000000 1.0
C      1  0.2574870000000  0.4300230000000  0.4267880000000 1.0
C      1  0.3181230000000  0.6750380000000  0.5731530000000 1.0
C      1  0.5606690000000  0.7450250000000  0.4268460000000 1.0
C      1  0.5490230000000  0.2419870000000  0.5591520000000 1.0
C      1  0.3010810000000  0.3285320000000  0.4408150000000 1.0
C      1  0.2520300000000  0.5865400000000  0.5591140000000 1.0
C      1  0.4509760000000  0.7580140000000  0.4408550000000 1.0
C      1  0.6989210000000  0.6714660000000  0.5591830000000 1.0
C      1  0.7479680000000  0.4134580000000  0.4408800000000 1.0
C      1  0.4658100000000  0.6511390000000  0.4102180000000 1.0
C      1  0.6137720000000  0.6051840000000  0.5898030000000 1.0
C      1  0.6479990000000  0.4540570000000  0.4102350000000 1.0
C      1  0.5341910000000  0.3488640000000  0.5897850000000 1.0
C      1  0.3862290000000  0.3948140000000  0.4101970000000 1.0
C      1  0.3519980000000  0.5459430000000  0.5897620000000 1.0
C      1  0.4618700000000  0.2884040000000  0.4708490000000 1.0
C      1  0.2976810000000  0.4272250000000  0.5291080000000 1.0
C      1  0.3358240000000  0.6388240000000  0.4708400000000 1.0
C      1  0.5381310000000  0.7115950000000  0.5291550000000 1.0
C      1  0.7023200000000  0.5727730000000  0.4708900000000 1.0
C      1  0.6641770000000  0.3611750000000  0.5291590000000 1.0
C      1  0.2991170000000  0.3222380000000  0.5518370000000 1.0
C      1  0.2456260000000  0.5850840000000  0.4480910000000 1.0
C      1  0.4464860000000  0.7628390000000  0.5518770000000 1.0
C      1  0.7008820000000  0.6777610000000  0.4481610000000 1.0
C      1  0.7543760000000  0.4149150000000  0.5519040000000 1.0
C      1  0.5535150000000  0.2371570000000  0.4481300000000 1.0
C      1  0.3740990000000  0.7393260000000  0.5995860000000 1.0
C      1  0.6443390000000  0.7286910000000  0.4004350000000 1.0
C      1  0.7702010000000  0.4893500000000  0.5996290000000 1.0
C      1  0.6259020000000  0.2606660000000  0.4004190000000 1.0
C      1  0.3556590000000  0.2713080000000  0.5995660000000 1.0
C      1  0.2298050000000  0.5106480000000  0.4003650000000 1.0
C      1  0.4440620000000  0.5272680000000  0.7374650000000 1.0
C      1  0.4956990000000  0.5620600000000  0.2625290000000 1.0
C      1  0.5515340000000  0.5347720000000  0.7374820000000 1.0
C      1  0.5559350000000  0.4727390000000  0.2625340000000 1.0
C      1  0.5042970000000  0.4379470000000  0.7374710000000 1.0
C      1  0.4484630000000  0.4652340000000  0.2625190000000 1.0
END
