TITL C-986974-580-701 -1.20169375645882e-05 3375 -339.950230201446 0 0 60 (C1) n - 1
REM
REM in /home/bkarasulu/work/CARBON/AIRSS/Generating-Clusters/REBO/Higher-Symm/Only-C60
REM
REM
REM
REM
REM
REM ./C.cell (a2850807a9bf4ad07a5b6933b78d9264)
REM AIRSS Version 0.9.1 bugfix July 2018 build 013d7b7c2542+ Fri, 06 Jul 2018 19:26:36 +0100
REM compiler GCC version 9.2.1 20190827 (Red Hat 9.2.1-1)
REM options -cpp -mtune=generic -march=x86-64 -g -O0 -fpre-include=/usr/include/finclude/math-vector-fortran.h
REM seed -1343368182 -677317831 -1475555203 -1796689041 -647701354 -798724958 70594987 154620149 -419550211 2119068459 461952938 184001172 -1776909533 228754922 -434201168 1810916601 551206444 -1141613246 1480861746 702394385 1336578259 -1698597999 -558013645 302428852 -1347921674 868943076 -695658386 732111655 585615733 -1514823591 1788846315 -230088878 -1969131468
REM
CELL 1.54180   15.00000   15.00000   15.00000   90.00000   90.00000   90.00000
LATT -1
SFAC C  
C      1  0.4685890000000  0.3400450000000  0.6716050000000 1.0
C      1  0.5271240000000  0.2343490000000  0.4192930000000 1.0
C      1  0.3505750000000  0.4637350000000  0.3921230000000 1.0
C      1  0.4453930000000  0.3137330000000  0.3509080000000 1.0
C      1  0.4282380000000  0.6055850000000  0.3197500000000 1.0
C      1  0.5663080000000  0.3509560000000  0.5823540000000 1.0
C      1  0.3927150000000  0.3801950000000  0.7091200000000 1.0
C      1  0.4712550000000  0.3066820000000  0.5645170000000 1.0
C      1  0.4663230000000  0.7231610000000  0.6766240000000 1.0
C      1  0.4844330000000  0.2402730000000  0.4896930000000 1.0
C      1  0.3688050000000  0.3362070000000  0.4248480000000 1.0
C      1  0.4604510000000  0.4677630000000  0.6353980000000 1.0
C      1  0.5498160000000  0.2962730000000  0.3345280000000 1.0
C      1  0.7082890000000  0.3239720000000  0.5126810000000 1.0
C      1  0.2850320000000  0.5501020000000  0.4271040000000 1.0
C      1  0.5368980000000  0.5037640000000  0.7122270000000 1.0
C      1  0.7165100000000  0.4826640000000  0.5647520000000 1.0
C      1  0.6499170000000  0.2907140000000  0.5644120000000 1.0
C      1  0.5244270000000  0.4775550000000  0.4187880000000 1.0
C      1  0.5388300000000  0.7025120000000  0.5132630000000 1.0
C      1  0.7080620000000  0.5730450000000  0.6161360000000 1.0
C      1  0.3181120000000  0.5072920000000  0.5282710000000 1.0
C      1  0.4816280000000  0.5092580000000  0.3261110000000 1.0
C      1  0.6366600000000  0.5587080000000  0.7035160000000 1.0
C      1  0.2488780000000  0.4429410000000  0.4390290000000 1.0
C      1  0.5610910000000  0.3961850000000  0.6834820000000 1.0
C      1  0.6431800000000  0.4567680000000  0.2796890000000 1.0
C      1  0.5515650000000  0.5811890000000  0.5660610000000 1.0
C      1  0.5377650000000  0.5991530000000  0.2895290000000 1.0
C      1  0.4702570000000  0.6265060000000  0.5355030000000 1.0
C      1  0.3992200000000  0.5747000000000  0.4902940000000 1.0
C      1  0.4235760000000  0.7078840000000  0.3699470000000 1.0
C      1  0.5823290000000  0.6821850000000  0.4308980000000 1.0
C      1  0.6440490000000  0.4615180000000  0.6468680000000 1.0
C      1  0.5571850000000  0.3844770000000  0.2637140000000 1.0
C      1  0.3295340000000  0.3966040000000  0.5046350000000 1.0
C      1  0.3541920000000  0.5963100000000  0.6895930000000 1.0
C      1  0.6230300000000  0.5466610000000  0.2586950000000 1.0
C      1  0.6326170000000  0.6307620000000  0.5914930000000 1.0
C      1  0.4784610000000  0.4373400000000  0.2638940000000 1.0
C      1  0.4290690000000  0.4079010000000  0.5524630000000 1.0
C      1  0.2970220000000  0.5267050000000  0.6229500000000 1.0
C      1  0.6261250000000  0.5173270000000  0.4137080000000 1.0
C      1  0.6928420000000  0.4377570000000  0.3799900000000 1.0
C      1  0.4407860000000  0.6402530000000  0.7398760000000 1.0
C      1  0.3793950000000  0.6897880000000  0.6345860000000 1.0
C      1  0.6386500000000  0.6051630000000  0.4307250000000 1.0
C      1  0.5815580000000  0.4264530000000  0.4993990000000 1.0
C      1  0.6897560000000  0.4232760000000  0.4834380000000 1.0
C      1  0.3735060000000  0.3867830000000  0.3254600000000 1.0
C      1  0.3592580000000  0.6222370000000  0.4029660000000 1.0
C      1  0.5554570000000  0.4834870000000  0.5828970000000 1.0
C      1  0.3817250000000  0.7386790000000  0.4634280000000 1.0
C      1  0.5541070000000  0.7011320000000  0.6241360000000 1.0
C      1  0.3708320000000  0.4852580000000  0.6909460000000 1.0
C      1  0.4300210000000  0.4738870000000  0.4640340000000 1.0
C      1  0.3621010000000  0.7190040000000  0.5482080000000 1.0
C      1  0.5421630000000  0.6168400000000  0.7001730000000 1.0
C      1  0.5277080000000  0.6862180000000  0.3535280000000 1.0
C      1  0.6466030000000  0.3521220000000  0.3257510000000 1.0
END
