TITL C-986975-4297-421 8.29355247189431e-06 3375 -331.386038495443 0 0 60 (S4) n - 1
REM
REM in /home/bkarasulu/work/CARBON/AIRSS/Generating-Clusters/REBO/Higher-Symm/Only-C60
REM
REM
REM
REM
REM
REM ./C.cell (a2850807a9bf4ad07a5b6933b78d9264)
REM AIRSS Version 0.9.1 bugfix July 2018 build 013d7b7c2542+ Fri, 06 Jul 2018 19:26:36 +0100
REM compiler GCC version 9.2.1 20190827 (Red Hat 9.2.1-1)
REM options -cpp -mtune=generic -march=x86-64 -g -O0 -fpre-include=/usr/include/finclude/math-vector-fortran.h
REM seed 1610705405 499337469 -1053874157 -626366314 1066068642 1406302237 1841779230 -863726958 165682853 -1904889587 1365912534 -680378981 1674322090 -1687116798 -1169031243 -1588980656 1361146734 1693672917 556669711 102199442 -1039710118 -299731258 -1508179214 2021149219 -690964095 -125145944 -940037767 -1800710314 1585190651 2105962503 1291230947 1742638259 -1411953601
REM
CELL 1.54180   15.00000   15.00000   15.00000   90.00000   90.00000   90.00000
LATT -1
SFAC C  
C      1  0.5899510000000  0.6925960000000  0.3664570000000 1.0
C      1  0.6335430000000  0.3074040000000  0.5899510000000 1.0
C      1  0.4100490000000  0.6925960000000  0.6335430000000 1.0
C      1  0.3664570000000  0.3074040000000  0.4100490000000 1.0
C      1  0.3485180000000  0.3677540000000  0.5775510000000 1.0
C      1  0.4224490000000  0.6322460000000  0.3485180000000 1.0
C      1  0.6514820000000  0.3677540000000  0.4224490000000 1.0
C      1  0.5775510000000  0.6322460000000  0.6514820000000 1.0
C      1  0.4210830000000  0.2477310000000  0.5692790000000 1.0
C      1  0.4307210000000  0.7522690000000  0.4210830000000 1.0
C      1  0.5789170000000  0.2477310000000  0.4307210000000 1.0
C      1  0.5692790000000  0.7522690000000  0.5789170000000 1.0
C      1  0.5672200000000  0.4800520000000  0.5583310000000 1.0
C      1  0.4416690000000  0.5199480000000  0.5672200000000 1.0
C      1  0.4327800000000  0.4800520000000  0.4416690000000 1.0
C      1  0.5583310000000  0.5199480000000  0.4327800000000 1.0
C      1  0.3847570000000  0.7313340000000  0.5443710000000 1.0
C      1  0.4556290000000  0.2686660000000  0.3847570000000 1.0
C      1  0.6152430000000  0.7313340000000  0.4556290000000 1.0
C      1  0.5443710000000  0.2686660000000  0.6152430000000 1.0
C      1  0.6005500000000  0.3845050000000  0.6490020000000 1.0
C      1  0.3509980000000  0.6154950000000  0.6005500000000 1.0
C      1  0.3994500000000  0.3845050000000  0.3509980000000 1.0
C      1  0.6490020000000  0.6154950000000  0.3994500000000 1.0
C      1  0.6757470000000  0.4587650000000  0.4291510000000 1.0
C      1  0.5708490000000  0.5412350000000  0.6757470000000 1.0
C      1  0.3242530000000  0.4587650000000  0.5708490000000 1.0
C      1  0.4291510000000  0.5412350000000  0.3242530000000 1.0
C      1  0.5470330000000  0.6786590000000  0.5171600000000 1.0
C      1  0.4828400000000  0.3213410000000  0.5470330000000 1.0
C      1  0.4529670000000  0.6786590000000  0.4828400000000 1.0
C      1  0.5171600000000  0.3213410000000  0.4529670000000 1.0
C      1  0.3478000000000  0.6493840000000  0.4067150000000 1.0
C      1  0.5932850000000  0.3506160000000  0.3478000000000 1.0
C      1  0.6522000000000  0.6493840000000  0.5932850000000 1.0
C      1  0.4067150000000  0.3506160000000  0.6522000000000 1.0
C      1  0.5023920000000  0.6814280000000  0.3344460000000 1.0
C      1  0.6655540000000  0.3185720000000  0.5023920000000 1.0
C      1  0.4976080000000  0.6814280000000  0.6655540000000 1.0
C      1  0.3344460000000  0.3185720000000  0.4976080000000 1.0
C      1  0.4973900000000  0.3991140000000  0.6946920000000 1.0
C      1  0.3053080000000  0.6008860000000  0.4973900000000 1.0
C      1  0.5026100000000  0.3991140000000  0.3053080000000 1.0
C      1  0.6946920000000  0.6008860000000  0.5026100000000 1.0
C      1  0.4806020000000  0.4993320000000  0.6916620000000 1.0
C      1  0.3083380000000  0.5006680000000  0.4806020000000 1.0
C      1  0.5193980000000  0.4993320000000  0.3083380000000 1.0
C      1  0.6916620000000  0.5006680000000  0.5193980000000 1.0
C      1  0.2988300000000  0.7079910000000  0.5180750000000 1.0
C      1  0.4819250000000  0.2920090000000  0.2988300000000 1.0
C      1  0.7011700000000  0.7079910000000  0.4819250000000 1.0
C      1  0.5180750000000  0.2920090000000  0.7011700000000 1.0
C      1  0.6232000000000  0.5226070000000  0.3500140000000 1.0
C      1  0.6499860000000  0.4773930000000  0.6232000000000 1.0
C      1  0.3768000000000  0.5226070000000  0.6499860000000 1.0
C      1  0.3500140000000  0.4773930000000  0.3768000000000 1.0
C      1  0.4353450000000  0.5747560000000  0.4845540000000 1.0
C      1  0.5154460000000  0.4252440000000  0.4353450000000 1.0
C      1  0.5646550000000  0.5747560000000  0.5154460000000 1.0
C      1  0.4845540000000  0.4252440000000  0.5646550000000 1.0
END
