TITL C-986976-6631-869 0.00548881488953306 3375 -352.608835998607 0 0 60 (C1) n - 1
REM
REM in /home/bkarasulu/work/CARBON/AIRSS/Generating-Clusters/REBO/Higher-Symm/Only-C60
REM
REM
REM
REM
REM
REM ./C.cell (a2850807a9bf4ad07a5b6933b78d9264)
REM AIRSS Version 0.9.1 bugfix July 2018 build 013d7b7c2542+ Fri, 06 Jul 2018 19:26:36 +0100
REM compiler GCC version 9.2.1 20190827 (Red Hat 9.2.1-1)
REM options -cpp -mtune=generic -march=x86-64 -g -O0 -fpre-include=/usr/include/finclude/math-vector-fortran.h
REM seed 939674585 -1552258698 -1161709444 2038488261 1463417299 47061131 -1425295932 1660520500 680868528 -1173366827 1683813401 697868155 920764303 403256204 1854174620 -691232430 -2120504482 -1931155900 2088826543 1716482567 -816544665 1914308392 422188534 339243936 -1089126614 -767721652 -1499293727 1639860840 1267593517 841360423 1874243468 1144619708 2035536338
REM
CELL 1.54180   15.00000   15.00000   15.00000   90.00000   90.00000   90.00000
LATT -1
SFAC C  
C      1  0.5279680000000  0.6592260000000  0.2912220000000 1.0
C      1  0.5295540000000  0.3493210000000  0.2838960000000 1.0
C      1  0.5287850000000  0.2482540000000  0.5758910000000 1.0
C      1  0.5285930000000  0.4943870000000  0.7628960000000 1.0
C      1  0.5297020000000  0.7488280000000  0.5861800000000 1.0
C      1  0.6708450000000  0.3259700000000  0.5844660000000 1.0
C      1  0.6707050000000  0.5268820000000  0.6916330000000 1.0
C      1  0.6712460000000  0.6900470000000  0.5341590000000 1.0
C      1  0.6705910000000  0.5910940000000  0.3289270000000 1.0
C      1  0.6712020000000  0.3659570000000  0.3607620000000 1.0
C      1  0.4832080000000  0.5623230000000  0.4339730000000 1.0
C      1  0.4828840000000  0.4567570000000  0.4199920000000 1.0
C      1  0.4829160000000  0.4108610000000  0.5162930000000 1.0
C      1  0.4827800000000  0.4878880000000  0.5902170000000 1.0
C      1  0.4828210000000  0.5813360000000  0.5391010000000 1.0
C      1  0.3896060000000  0.4130130000000  0.7111580000000 1.0
C      1  0.3898020000000  0.6797590000000  0.6482530000000 1.0
C      1  0.3892570000000  0.6947090000000  0.3829230000000 1.0
C      1  0.3899860000000  0.4430800000000  0.2754630000000 1.0
C      1  0.3896640000000  0.2700300000000  0.4827420000000 1.0
C      1  0.5943040000000  0.5647390000000  0.7361570000000 1.0
C      1  0.5955330000000  0.7446430000000  0.5116570000000 1.0
C      1  0.5939880000000  0.5868000000000  0.2708440000000 1.0
C      1  0.5951990000000  0.3088350000000  0.3469420000000 1.0
C      1  0.5946930000000  0.2951550000000  0.6343800000000 1.0
C      1  0.3611310000000  0.5287860000000  0.3089760000000 1.0
C      1  0.3609360000000  0.3296520000000  0.4116830000000 1.0
C      1  0.3610190000000  0.3626980000000  0.6332490000000 1.0
C      1  0.3606300000000  0.5903070000000  0.6706430000000 1.0
C      1  0.3610080000000  0.6878720000000  0.4767140000000 1.0
C      1  0.4809220000000  0.7181000000000  0.3609880000000 1.0
C      1  0.4823720000000  0.4323770000000  0.2485110000000 1.0
C      1  0.4819320000000  0.2407490000000  0.4854450000000 1.0
C      1  0.4813450000000  0.4061380000000  0.7417840000000 1.0
C      1  0.4825740000000  0.7026300000000  0.6634710000000 1.0
C      1  0.3741140000000  0.5902770000000  0.5028130000000 1.0
C      1  0.3744240000000  0.5318310000000  0.4129050000000 1.0
C      1  0.3743000000000  0.4275860000000  0.4430570000000 1.0
C      1  0.3741590000000  0.4238970000000  0.5508770000000 1.0
C      1  0.3742460000000  0.5251400000000  0.5891860000000 1.0
C      1  0.3531380000000  0.6279600000000  0.3231120000000 1.0
C      1  0.3539500000000  0.3645810000000  0.3189540000000 1.0
C      1  0.3530850000000  0.2859480000000  0.5709180000000 1.0
C      1  0.3540430000000  0.5023880000000  0.7189130000000 1.0
C      1  0.3533180000000  0.7215700000000  0.5681960000000 1.0
C      1  0.6489050000000  0.4514210000000  0.4240700000000 1.0
C      1  0.6490210000000  0.4129160000000  0.5228140000000 1.0
C      1  0.6488730000000  0.4947150000000  0.5900090000000 1.0
C      1  0.6489450000000  0.5837400000000  0.5327020000000 1.0
C      1  0.6490630000000  0.5571120000000  0.4301420000000 1.0
C      1  0.5545080000000  0.5022450000000  0.2650030000000 1.0
C      1  0.5553240000000  0.2774210000000  0.4252170000000 1.0
C      1  0.5549800000000  0.3599590000000  0.6886290000000 1.0
C      1  0.5545960000000  0.6362770000000  0.6911760000000 1.0
C      1  0.5556220000000  0.7240100000000  0.4298820000000 1.0
C      1  0.5584910000000  0.4362200000000  0.3575390000000 1.0
C      1  0.5582680000000  0.3450870000000  0.5165220000000 1.0
C      1  0.5582990000000  0.4676570000000  0.6525340000000 1.0
C      1  0.5582190000000  0.6351150000000  0.5775240000000 1.0
C      1  0.5584080000000  0.6157210000000  0.3957150000000 1.0
END
