TITL C-986974-580-871 1.21528028604709e-05 3375 -364.045144233998 0 0 60 (Ci) n - 1
REM
REM in /home/bkarasulu/work/CARBON/AIRSS/Generating-Clusters/REBO/Higher-Symm/Only-C60
REM
REM
REM
REM
REM
REM ./C.cell (a2850807a9bf4ad07a5b6933b78d9264)
REM AIRSS Version 0.9.1 bugfix July 2018 build 013d7b7c2542+ Fri, 06 Jul 2018 19:26:36 +0100
REM compiler GCC version 9.2.1 20190827 (Red Hat 9.2.1-1)
REM options -cpp -mtune=generic -march=x86-64 -g -O0 -fpre-include=/usr/include/finclude/math-vector-fortran.h
REM seed 1147704379 -1132115462 963772440 865302262 1196931531 712704191 -1756372001 1281946551 405446803 -1532251800 791204270 -1671519411 283441023 1014823515 2038201660 -1417076383 -437748634 -915787351 -346705869 1815537879 635808307 -563497659 2041643942 -1961038721 1974719970 -68860432 -715503799 -529934878 1138981814 1842464856 810166268 -1454899480 1588654316
REM
CELL 1.54180   15.00000   15.00000   15.00000   90.00000   90.00000   90.00000
LATT -1
SFAC C  
C      1  0.3417170000000  0.4114110000000  0.6932890000000 1.0
C      1  0.6567670000000  0.5918360000000  0.6975580000000 1.0
C      1  0.3432330000000  0.4081640000000  0.3024420000000 1.0
C      1  0.6582830000000  0.5885890000000  0.3067110000000 1.0
C      1  0.7716090000000  0.4239960000000  0.4528040000000 1.0
C      1  0.2220860000000  0.5656070000000  0.4442630000000 1.0
C      1  0.7779140000000  0.4343930000000  0.5557360000000 1.0
C      1  0.2283910000000  0.5760040000000  0.5471960000000 1.0
C      1  0.4828120000000  0.3531970000000  0.5892650000000 1.0
C      1  0.5181050000000  0.6467810000000  0.5891090000000 1.0
C      1  0.4818950000000  0.3532190000000  0.4108910000000 1.0
C      1  0.5171890000000  0.6468030000000  0.4107350000000 1.0
C      1  0.7058710000000  0.4936280000000  0.5837980000000 1.0
C      1  0.2949910000000  0.5123280000000  0.5792000000000 1.0
C      1  0.7050090000000  0.4876720000000  0.4208000000000 1.0
C      1  0.2941290000000  0.5063720000000  0.4162020000000 1.0
C      1  0.2696830000000  0.6582390000000  0.4514750000000 1.0
C      1  0.7286130000000  0.3304000000000  0.4403870000000 1.0
C      1  0.2713870000000  0.6696000000000  0.5596120000000 1.0
C      1  0.7303170000000  0.3417610000000  0.5485250000000 1.0
C      1  0.3863650000000  0.5365040000000  0.5458760000000 1.0
C      1  0.6145940000000  0.4650160000000  0.5498620000000 1.0
C      1  0.3854060000000  0.5349840000000  0.4501380000000 1.0
C      1  0.6136350000000  0.4634960000000  0.4541240000000 1.0
C      1  0.3644130000000  0.5964610000000  0.3192140000000 1.0
C      1  0.6304840000000  0.4007420000000  0.3170640000000 1.0
C      1  0.3695160000000  0.5992580000000  0.6829360000000 1.0
C      1  0.6355870000000  0.4035400000000  0.6807860000000 1.0
C      1  0.3656560000000  0.4963140000000  0.7279390000000 1.0
C      1  0.6357670000000  0.5051060000000  0.7302450000000 1.0
C      1  0.3642330000000  0.4948940000000  0.2697550000000 1.0
C      1  0.6343440000000  0.5036860000000  0.2720610000000 1.0
C      1  0.6840280000000  0.6577240000000  0.5487390000000 1.0
C      1  0.3163090000000  0.3460150000000  0.5442970000000 1.0
C      1  0.6836920000000  0.6539850000000  0.4557030000000 1.0
C      1  0.3159710000000  0.3422760000000  0.4512610000000 1.0
C      1  0.4308420000000  0.6811500000000  0.4525990000000 1.0
C      1  0.5676510000000  0.3164200000000  0.4501380000000 1.0
C      1  0.4323490000000  0.6835800000000  0.5498620000000 1.0
C      1  0.5691580000000  0.3188500000000  0.5474010000000 1.0
C      1  0.5397980000000  0.4667430000000  0.6997470000000 1.0
C      1  0.4626640000000  0.5312600000000  0.6965870000000 1.0
C      1  0.5373360000000  0.4687400000000  0.3034120000000 1.0
C      1  0.4602020000000  0.5332570000000  0.3002530000000 1.0
C      1  0.3523440000000  0.6565920000000  0.3988690000000 1.0
C      1  0.6441930000000  0.3368870000000  0.3919330000000 1.0
C      1  0.3558070000000  0.6631130000000  0.6080670000000 1.0
C      1  0.6476560000000  0.3434080000000  0.6011310000000 1.0
C      1  0.7160020000000  0.5840390000000  0.6141870000000 1.0
C      1  0.2839240000000  0.4214460000000  0.6088190000000 1.0
C      1  0.7160760000000  0.5785540000000  0.3911810000000 1.0
C      1  0.2839980000000  0.4159610000000  0.3858130000000 1.0
C      1  0.5369900000000  0.4372670000000  0.4035030000000 1.0
C      1  0.4625620000000  0.5625450000000  0.4011800000000 1.0
C      1  0.5374380000000  0.4374540000000  0.5988210000000 1.0
C      1  0.4630100000000  0.5627330000000  0.5964970000000 1.0
C      1  0.3930710000000  0.3475390000000  0.6184080000000 1.0
C      1  0.6059230000000  0.6566120000000  0.6218460000000 1.0
C      1  0.3940770000000  0.3433880000000  0.3781540000000 1.0
C      1  0.6069290000000  0.6524610000000  0.3815920000000 1.0
END
