TITL C-986972-3822-1 2.24490656267704e-05 3375 -347.259216422513 0 0 60 (S4) n - 1
REM
REM in /home/bkarasulu/work/CARBON/AIRSS/Generating-Clusters/REBO/Higher-Symm/Only-C60
REM
REM
REM
REM
REM
REM ./C.cell (a2850807a9bf4ad07a5b6933b78d9264)
REM AIRSS Version 0.9.1 bugfix July 2018 build 013d7b7c2542+ Fri, 06 Jul 2018 19:26:36 +0100
REM compiler GCC version 9.2.1 20190827 (Red Hat 9.2.1-1)
REM options -cpp -mtune=generic -march=x86-64 -g -O0 -fpre-include=/usr/include/finclude/math-vector-fortran.h
REM seed 918618973 1872796202 328119568 -1625699128 484925696 2062587514 -1123629024 1791978010 -500851331 -467685126 -2083326717 1083944710 748816961 -1694602084 -322552300 -200034198 821932075 485414065 -922071346 142343600 526186450 1166195170 1183769647 -2105488071 907353168 -1455698349 1938281224 -665775766 1566162110 550867786 1971685420 65897494 -48963695
REM
CELL 1.54180   15.00000   15.00000   15.00000   90.00000   90.00000   90.00000
LATT -1
SFAC C  
C      1  0.4455140000000  0.3162580000000  0.3913040000000 1.0
C      1  0.3162590000000  0.5544860000000  0.6086970000000 1.0
C      1  0.5544850000000  0.6837410000000  0.3913020000000 1.0
C      1  0.6837410000000  0.4455150000000  0.6086970000000 1.0
C      1  0.4335630000000  0.4955860000000  0.4052560000000 1.0
C      1  0.4955870000000  0.5664370000000  0.5947440000000 1.0
C      1  0.5664370000000  0.5044120000000  0.4052560000000 1.0
C      1  0.5044130000000  0.4335640000000  0.5947450000000 1.0
C      1  0.5478780000000  0.6600830000000  0.5025870000000 1.0
C      1  0.6600830000000  0.4521220000000  0.4974120000000 1.0
C      1  0.4521220000000  0.3399170000000  0.5025890000000 1.0
C      1  0.3399170000000  0.5478780000000  0.4974120000000 1.0
C      1  0.6462520000000  0.4837640000000  0.3460470000000 1.0
C      1  0.4837650000000  0.3537490000000  0.6539540000000 1.0
C      1  0.3537480000000  0.5162340000000  0.3460470000000 1.0
C      1  0.5162350000000  0.6462530000000  0.6539520000000 1.0
C      1  0.5638900000000  0.4119480000000  0.5008040000000 1.0
C      1  0.4119480000000  0.4361100000000  0.4991970000000 1.0
C      1  0.4361100000000  0.5880520000000  0.5008020000000 1.0
C      1  0.5880520000000  0.5638900000000  0.4991970000000 1.0
C      1  0.5998460000000  0.7679890000000  0.4447390000000 1.0
C      1  0.7679880000000  0.4001520000000  0.5552600000000 1.0
C      1  0.4001530000000  0.2320100000000  0.4447430000000 1.0
C      1  0.2320110000000  0.5998480000000  0.5552580000000 1.0
C      1  0.7092020000000  0.4432240000000  0.4030320000000 1.0
C      1  0.4432250000000  0.2907980000000  0.5969700000000 1.0
C      1  0.2907980000000  0.5567750000000  0.4030310000000 1.0
C      1  0.5567740000000  0.7092030000000  0.5969670000000 1.0
C      1  0.4133240000000  0.4971720000000  0.5951480000000 1.0
C      1  0.4971710000000  0.5866750000000  0.4048520000000 1.0
C      1  0.5866760000000  0.5028290000000  0.5951480000000 1.0
C      1  0.5028290000000  0.4133240000000  0.4048530000000 1.0
C      1  0.6250840000000  0.5128290000000  0.7612470000000 1.0
C      1  0.5128280000000  0.3749150000000  0.2387540000000 1.0
C      1  0.3749170000000  0.4871740000000  0.7612470000000 1.0
C      1  0.4871720000000  0.6250820000000  0.2387520000000 1.0
C      1  0.5337830000000  0.5346420000000  0.7747460000000 1.0
C      1  0.5346400000000  0.4662160000000  0.2252540000000 1.0
C      1  0.4662180000000  0.4653610000000  0.7747460000000 1.0
C      1  0.4653600000000  0.5337810000000  0.2252540000000 1.0
C      1  0.2217750000000  0.5988230000000  0.4634340000000 1.0
C      1  0.5988210000000  0.7782260000000  0.5365640000000 1.0
C      1  0.7782240000000  0.4011760000000  0.4634350000000 1.0
C      1  0.4011770000000  0.2217750000000  0.5365680000000 1.0
C      1  0.5551130000000  0.3077980000000  0.4661100000000 1.0
C      1  0.3077980000000  0.4448870000000  0.5338910000000 1.0
C      1  0.4448870000000  0.6922020000000  0.4661080000000 1.0
C      1  0.6922020000000  0.5551130000000  0.5338910000000 1.0
C      1  0.6886720000000  0.5139880000000  0.6939240000000 1.0
C      1  0.5139870000000  0.3113270000000  0.3060770000000 1.0
C      1  0.3113290000000  0.4860150000000  0.6939240000000 1.0
C      1  0.4860130000000  0.6886710000000  0.3060750000000 1.0
C      1  0.4895870000000  0.3770530000000  0.7451410000000 1.0
C      1  0.3770520000000  0.5104130000000  0.2548590000000 1.0
C      1  0.5104140000000  0.6229500000000  0.7451400000000 1.0
C      1  0.6229480000000  0.4895850000000  0.2548590000000 1.0
C      1  0.7209040000000  0.5729030000000  0.6183830000000 1.0
C      1  0.5729020000000  0.2790960000000  0.3816180000000 1.0
C      1  0.2790970000000  0.4270990000000  0.6183840000000 1.0
C      1  0.4270970000000  0.7209030000000  0.3816150000000 1.0
END
