TITL C-986975-4297-242 4.3187182329892e-06 3375 -333.554432358729 0 0 60 (C3) n - 1
REM
REM in /home/bkarasulu/work/CARBON/AIRSS/Generating-Clusters/REBO/Higher-Symm/Only-C60
REM
REM
REM
REM
REM
REM ./C.cell (a2850807a9bf4ad07a5b6933b78d9264)
REM AIRSS Version 0.9.1 bugfix July 2018 build 013d7b7c2542+ Fri, 06 Jul 2018 19:26:36 +0100
REM compiler GCC version 9.2.1 20190827 (Red Hat 9.2.1-1)
REM options -cpp -mtune=generic -march=x86-64 -g -O0 -fpre-include=/usr/include/finclude/math-vector-fortran.h
REM seed -360126572 -1270152814 368800352 -825721105 1762332898 -1190494322 1588137232 -1992337952 1593063179 1669269508 1979781061 -1111487083 1195738155 -1392411010 1765642292 964450848 -1966112486 -658461276 -1580258381 1211065365 1118883131 780306500 -1318166553 -1754463715 1197883285 -1125648293 -1563210997 1209676286 997134937 -550709692 -122549494 -1173207648 -496538799
REM
CELL 1.54180   15.00000   15.00000   15.00000   90.00000   90.00000   90.00000
LATT -1
SFAC C  
C      1  0.6791110000000  0.6389620000000  0.3685420000000 1.0
C      1  0.6790330000000  0.5443850000000  0.6861440000000 1.0
C      1  0.6790750000000  0.3166220000000  0.4454370000000 1.0
C      1  0.3426670000000  0.6338190000000  0.3769940000000 1.0
C      1  0.3425930000000  0.5395990000000  0.6773310000000 1.0
C      1  0.3426330000000  0.3266090000000  0.4455660000000 1.0
C      1  0.6580050000000  0.6241020000000  0.6139480000000 1.0
C      1  0.6580630000000  0.5365860000000  0.3355980000000 1.0
C      1  0.6580020000000  0.3392860000000  0.5505630000000 1.0
C      1  0.3200470000000  0.6319530000000  0.6212570000000 1.0
C      1  0.3201090000000  0.5390870000000  0.3250430000000 1.0
C      1  0.3200430000000  0.3289910000000  0.5535750000000 1.0
C      1  0.2716520000000  0.5881220000000  0.5353660000000 1.0
C      1  0.2716360000000  0.4252860000000  0.5585410000000 1.0
C      1  0.2716750000000  0.4866330000000  0.4059330000000 1.0
C      1  0.7216160000000  0.5873150000000  0.5326990000000 1.0
C      1  0.7215990000000  0.4280490000000  0.5593540000000 1.0
C      1  0.7216380000000  0.4845980000000  0.4080990000000 1.0
C      1  0.2797260000000  0.5789630000000  0.4448660000000 1.0
C      1  0.2797120000000  0.4128350000000  0.4591170000000 1.0
C      1  0.2796870000000  0.5082410000000  0.5958630000000 1.0
C      1  0.7258870000000  0.5784820000000  0.4419260000000 1.0
C      1  0.7258720000000  0.4104010000000  0.4611360000000 1.0
C      1  0.7258470000000  0.5110780000000  0.5970930000000 1.0
C      1  0.3598910000000  0.7295210000000  0.6125160000000 1.0
C      1  0.3598570000000  0.2877850000000  0.6424580000000 1.0
C      1  0.3599610000000  0.4827200000000  0.2449300000000 1.0
C      1  0.6378190000000  0.7273140000000  0.5952090000000 1.0
C      1  0.6377810000000  0.3039040000000  0.6493090000000 1.0
C      1  0.6378810000000  0.4687570000000  0.2555770000000 1.0
C      1  0.3618290000000  0.7323960000000  0.4110240000000 1.0
C      1  0.3618190000000  0.3067850000000  0.3431860000000 1.0
C      1  0.3617360000000  0.4608420000000  0.7456950000000 1.0
C      1  0.6402400000000  0.7345920000000  0.3897360000000 1.0
C      1  0.6402220000000  0.2871710000000  0.3520110000000 1.0
C      1  0.6401410000000  0.4782110000000  0.7583490000000 1.0
C      1  0.4490190000000  0.4496150000000  0.2751510000000 1.0
C      1  0.4489680000000  0.7199120000000  0.5687720000000 1.0
C      1  0.4489240000000  0.3304820000000  0.6560440000000 1.0
C      1  0.5536370000000  0.4214040000000  0.2811370000000 1.0
C      1  0.5535960000000  0.7288460000000  0.5413880000000 1.0
C      1  0.5535410000000  0.3497410000000  0.6775130000000 1.0
C      1  0.4472200000000  0.4175250000000  0.7180490000000 1.0
C      1  0.4472960000000  0.7300870000000  0.4623870000000 1.0
C      1  0.4473070000000  0.3523960000000  0.3195290000000 1.0
C      1  0.5520700000000  0.4456330000000  0.7250730000000 1.0
C      1  0.5521530000000  0.7220870000000  0.4345620000000 1.0
C      1  0.5521510000000  0.3322690000000  0.3404010000000 1.0
C      1  0.4556400000000  0.5226190000000  0.6750000000000 1.0
C      1  0.4556840000000  0.3371320000000  0.4320710000000 1.0
C      1  0.4557110000000  0.6402570000000  0.3929000000000 1.0
C      1  0.5663300000000  0.5453600000000  0.6706650000000 1.0
C      1  0.5663660000000  0.3295280000000  0.4539770000000 1.0
C      1  0.5664020000000  0.6251000000000  0.3754060000000 1.0
C      1  0.4333130000000  0.5449520000000  0.3364990000000 1.0
C      1  0.4332530000000  0.3359470000000  0.5428010000000 1.0
C      1  0.4332530000000  0.6191120000000  0.6206550000000 1.0
C      1  0.5443930000000  0.5224960000000  0.3329010000000 1.0
C      1  0.5443280000000  0.3440260000000  0.5640800000000 1.0
C      1  0.5443380000000  0.6334700000000  0.6030510000000 1.0
END
