TITL C-986979-5873-1114 0.0411312830250564 3375 -326.28823226622 0 0 60 (C1) n - 1
REM
REM in /home/bkarasulu/work/CARBON/AIRSS/Generating-Clusters/REBO/Higher-Symm/Only-C60
REM
REM
REM
REM
REM
REM ./C.cell (a2850807a9bf4ad07a5b6933b78d9264)
REM AIRSS Version 0.9.1 bugfix July 2018 build 013d7b7c2542+ Fri, 06 Jul 2018 19:26:36 +0100
REM compiler GCC version 9.2.1 20190827 (Red Hat 9.2.1-1)
REM options -cpp -mtune=generic -march=x86-64 -g -O0 -fpre-include=/usr/include/finclude/math-vector-fortran.h
REM seed 1607040682 -1675045312 -969828881 437261983 949760129 177094754 -229577387 1587868201 -209248838 -399130000 -1239868227 773653038 738342607 1829849215 446232856 205740512 -218188553 1398659935 583367551 522977961 -568868894 -73319929 -533030573 -1780558698 -37831543 -1599763451 830829444 697868848 -1416979781 -1218707065 -2018412948 190627812 -395059656
REM
CELL 1.54180   15.00000   15.00000   15.00000   90.00000   90.00000   90.00000
LATT -1
SFAC C  
C      1  0.3286770000000  0.5928480000000  0.2468650000000 1.0
C      1  0.2980860000000  0.4878270000000  0.2494340000000 1.0
C      1  0.3414820000000  0.3875670000000  0.2395780000000 1.0
C      1  0.4335720000000  0.3283450000000  0.2294970000000 1.0
C      1  0.5431750000000  0.3235400000000  0.2266900000000 1.0
C      1  0.6411620000000  0.3726040000000  0.2337360000000 1.0
C      1  0.6956930000000  0.4669470000000  0.2512370000000 1.0
C      1  0.6661980000000  0.5699060000000  0.2525220000000 1.0
C      1  0.5802000000000  0.6246930000000  0.2592290000000 1.0
C      1  0.5074850000000  0.6463370000000  0.2038410000000 1.0
C      1  0.4224340000000  0.6436650000000  0.2307680000000 1.0
C      1  0.5764160000000  0.3779540000000  0.7087950000000 1.0
C      1  0.6265120000000  0.4277330000000  0.6401360000000 1.0
C      1  0.6539650000000  0.5211530000000  0.6400060000000 1.0
C      1  0.6087890000000  0.5902190000000  0.6891380000000 1.0
C      1  0.5656720000000  0.6650520000000  0.6329550000000 1.0
C      1  0.4711560000000  0.6877360000000  0.6680270000000 1.0
C      1  0.3877830000000  0.6334560000000  0.6404860000000 1.0
C      1  0.3852590000000  0.5465960000000  0.6944810000000 1.0
C      1  0.3636420000000  0.4656670000000  0.6489040000000 1.0
C      1  0.4134190000000  0.3830900000000  0.6478290000000 1.0
C      1  0.4820550000000  0.3573100000000  0.7122240000000 1.0
C      1  0.2853090000000  0.4669510000000  0.6016520000000 1.0
C      1  0.3929660000000  0.3223090000000  0.5826720000000 1.0
C      1  0.4522770000000  0.3136060000000  0.7868670000000 1.0
C      1  0.6274690000000  0.3401130000000  0.7748890000000 1.0
C      1  0.6630810000000  0.3755550000000  0.5739930000000 1.0
C      1  0.7222220000000  0.5451030000000  0.5847680000000 1.0
C      1  0.5535510000000  0.5543010000000  0.7558310000000 1.0
C      1  0.6206550000000  0.7422440000000  0.6328810000000 1.0
C      1  0.4597670000000  0.7602080000000  0.7176130000000 1.0
C      1  0.3086710000000  0.6837440000000  0.6580420000000 1.0
C      1  0.4051270000000  0.5513120000000  0.7847370000000 1.0
C      1  0.4755860000000  0.6351540000000  0.3997090000000 1.0
C      1  0.4002670000000  0.6214900000000  0.3385410000000 1.0
C      1  0.3251020000000  0.5408210000000  0.3483350000000 1.0
C      1  0.3243640000000  0.4306960000000  0.3451460000000 1.0
C      1  0.3874900000000  0.3419000000000  0.3340320000000 1.0
C      1  0.4897640000000  0.3039020000000  0.3266400000000 1.0
C      1  0.5973630000000  0.3230850000000  0.3279760000000 1.0
C      1  0.6783400000000  0.3954670000000  0.3400440000000 1.0
C      1  0.6978560000000  0.5018740000000  0.3605850000000 1.0
C      1  0.6567950000000  0.5940740000000  0.3632910000000 1.0
C      1  0.5600470000000  0.6337150000000  0.3602480000000 1.0
C      1  0.3651080000000  0.3799000000000  0.4614880000000 1.0
C      1  0.4416230000000  0.3329350000000  0.4554470000000 1.0
C      1  0.5312460000000  0.3401510000000  0.4523450000000 1.0
C      1  0.6002870000000  0.3973360000000  0.4585370000000 1.0
C      1  0.6297460000000  0.4796560000000  0.4787650000000 1.0
C      1  0.6150120000000  0.5633530000000  0.5076760000000 1.0
C      1  0.5542430000000  0.6267350000000  0.5391820000000 1.0
C      1  0.4713490000000  0.6328130000000  0.4932360000000 1.0
C      1  0.3934280000000  0.6102810000000  0.5412960000000 1.0
C      1  0.3370780000000  0.5447800000000  0.5059570000000 1.0
C      1  0.3281940000000  0.4605540000000  0.4757460000000 1.0
C      1  0.4969340000000  0.4865130000000  0.5380360000000 1.0
C      1  0.4934970000000  0.4924120000000  0.4492390000000 1.0
C      1  0.5021330000000  0.4886570000000  0.7184160000000 1.0
C      1  0.4891060000000  0.4966240000000  0.3619570000000 1.0
C      1  0.4994030000000  0.4825580000000  0.6271900000000 1.0
END
