TITL C-986974-580-714 2.64995678572193e-05 3375 -349.86116063977 0 0 60 (Td) n - 1
REM
REM in /home/bkarasulu/work/CARBON/AIRSS/Generating-Clusters/REBO/Higher-Symm/Only-C60
REM
REM
REM
REM
REM
REM ./C.cell (a2850807a9bf4ad07a5b6933b78d9264)
REM AIRSS Version 0.9.1 bugfix July 2018 build 013d7b7c2542+ Fri, 06 Jul 2018 19:26:36 +0100
REM compiler GCC version 9.2.1 20190827 (Red Hat 9.2.1-1)
REM options -cpp -mtune=generic -march=x86-64 -g -O0 -fpre-include=/usr/include/finclude/math-vector-fortran.h
REM seed -1875213056 334657133 172533106 -451262913 1524706835 -499483312 1420045840 -1433453428 -956601824 2123760590 1370484066 661509847 -1427868762 226450491 -903373135 734685281 -1171007034 -2040501760 1107050327 1224810232 -1629901250 766499929 1818611150 -712051672 1250902205 -2066028393 42921271 2106537697 1938390491 204652928 -315481573 -40360697 624307725
REM
CELL 1.54180   15.00000   15.00000   15.00000   90.00000   90.00000   90.00000
LATT -1
SFAC C  
C      1  0.4224870000000  0.4968530000000  0.6493870000000 1.0
C      1  0.6493870000000  0.4224870000000  0.4968530000000 1.0
C      1  0.4968530000000  0.6493870000000  0.4224870000000 1.0
C      1  0.5775130000000  0.5031470000000  0.6493870000000 1.0
C      1  0.5775130000000  0.4968530000000  0.3506130000000 1.0
C      1  0.4224870000000  0.5031470000000  0.3506130000000 1.0
C      1  0.3506130000000  0.5775130000000  0.4968530000000 1.0
C      1  0.3506130000000  0.4224870000000  0.5031470000000 1.0
C      1  0.6493870000000  0.5775130000000  0.5031470000000 1.0
C      1  0.5031470000000  0.3506130000000  0.4224870000000 1.0
C      1  0.5031470000000  0.6493870000000  0.5775130000000 1.0
C      1  0.4968530000000  0.3506130000000  0.5775130000000 1.0
C      1  0.4968530000000  0.4224870000000  0.6493870000000 1.0
C      1  0.4224870000000  0.6493870000000  0.4968530000000 1.0
C      1  0.6493870000000  0.4968530000000  0.4224870000000 1.0
C      1  0.5031470000000  0.5775130000000  0.6493870000000 1.0
C      1  0.4968530000000  0.5775130000000  0.3506130000000 1.0
C      1  0.5031470000000  0.4224870000000  0.3506130000000 1.0
C      1  0.5775130000000  0.3506130000000  0.4968530000000 1.0
C      1  0.4224870000000  0.3506130000000  0.5031470000000 1.0
C      1  0.5775130000000  0.6493870000000  0.5031470000000 1.0
C      1  0.3506130000000  0.5031470000000  0.4224870000000 1.0
C      1  0.6493870000000  0.5031470000000  0.5775130000000 1.0
C      1  0.3506130000000  0.4968530000000  0.5775130000000 1.0
C      1  0.2665040000000  0.3787370000000  0.4491390000000 1.0
C      1  0.4491390000000  0.2665040000000  0.3787370000000 1.0
C      1  0.3787370000000  0.4491390000000  0.2665040000000 1.0
C      1  0.7334960000000  0.6212630000000  0.4491390000000 1.0
C      1  0.7334960000000  0.3787370000000  0.5508610000000 1.0
C      1  0.2665040000000  0.6212630000000  0.5508610000000 1.0
C      1  0.5508610000000  0.7334960000000  0.3787370000000 1.0
C      1  0.5508610000000  0.2665040000000  0.6212630000000 1.0
C      1  0.4491390000000  0.7334960000000  0.6212630000000 1.0
C      1  0.6212630000000  0.5508610000000  0.2665040000000 1.0
C      1  0.6212630000000  0.4491390000000  0.7334960000000 1.0
C      1  0.3787370000000  0.5508610000000  0.7334960000000 1.0
C      1  0.3787370000000  0.2665040000000  0.4491390000000 1.0
C      1  0.2665040000000  0.4491390000000  0.3787370000000 1.0
C      1  0.4491390000000  0.3787370000000  0.2665040000000 1.0
C      1  0.6212630000000  0.7334960000000  0.4491390000000 1.0
C      1  0.3787370000000  0.7334960000000  0.5508610000000 1.0
C      1  0.6212630000000  0.2665040000000  0.5508610000000 1.0
C      1  0.7334960000000  0.5508610000000  0.3787370000000 1.0
C      1  0.2665040000000  0.5508610000000  0.6212630000000 1.0
C      1  0.7334960000000  0.4491390000000  0.6212630000000 1.0
C      1  0.5508610000000  0.6212630000000  0.2665040000000 1.0
C      1  0.4491390000000  0.6212630000000  0.7334960000000 1.0
C      1  0.5508610000000  0.3787370000000  0.7334960000000 1.0
C      1  0.2854680000000  0.2854680000000  0.4373160000000 1.0
C      1  0.4373160000000  0.2854680000000  0.2854680000000 1.0
C      1  0.7145320000000  0.5626840000000  0.2854680000000 1.0
C      1  0.2854680000000  0.5626840000000  0.7145320000000 1.0
C      1  0.7145320000000  0.7145320000000  0.4373160000000 1.0
C      1  0.7145320000000  0.2854680000000  0.5626840000000 1.0
C      1  0.2854680000000  0.7145320000000  0.5626840000000 1.0
C      1  0.5626840000000  0.7145320000000  0.2854680000000 1.0
C      1  0.5626840000000  0.2854680000000  0.7145320000000 1.0
C      1  0.4373160000000  0.7145320000000  0.7145320000000 1.0
C      1  0.2854680000000  0.4373160000000  0.2854680000000 1.0
C      1  0.7145320000000  0.4373160000000  0.7145320000000 1.0
END
