TITL C-986973-6940-87 -5.16041299601889e-06 3375 -329.76622248553 0 0 60 (C2) n - 1
REM
REM in /home/bkarasulu/work/CARBON/AIRSS/Generating-Clusters/REBO/Higher-Symm/Only-C60
REM
REM
REM
REM
REM
REM ./C.cell (a2850807a9bf4ad07a5b6933b78d9264)
REM AIRSS Version 0.9.1 bugfix July 2018 build 013d7b7c2542+ Fri, 06 Jul 2018 19:26:36 +0100
REM compiler GCC version 9.2.1 20190827 (Red Hat 9.2.1-1)
REM options -cpp -mtune=generic -march=x86-64 -g -O0 -fpre-include=/usr/include/finclude/math-vector-fortran.h
REM seed -1433428119 302414362 -1620257678 157340109 630253941 -1194124436 1057823884 -765541691 180165818 -1731171403 640577934 -214342729 -1546648239 805906792 1480348762 323800332 492682277 1602644552 835926626 -1721058489 -729584918 1973740978 -631161616 1680268147 -862399732 294979918 -1965322599 1337426129 -1667485545 921858959 -952787561 1495901757 1664950373
REM
CELL 1.54180   15.00000   15.00000   15.00000   90.00000   90.00000   90.00000
LATT -1
SFAC C  
C      1  0.6959460000000  0.4694300000000  0.3994340000000 1.0
C      1  0.4674480000000  0.3244390000000  0.3699980000000 1.0
C      1  0.3040500000000  0.5305750000000  0.3994310000000 1.0
C      1  0.5325510000000  0.6755610000000  0.3699950000000 1.0
C      1  0.3445670000000  0.7185690000000  0.3452640000000 1.0
C      1  0.7350460000000  0.6434970000000  0.3700660000000 1.0
C      1  0.6554340000000  0.2814370000000  0.3452620000000 1.0
C      1  0.2649550000000  0.3565040000000  0.3700640000000 1.0
C      1  0.7343600000000  0.5530130000000  0.5409570000000 1.0
C      1  0.5577760000000  0.2757780000000  0.5054380000000 1.0
C      1  0.2656360000000  0.4469900000000  0.5409520000000 1.0
C      1  0.4422280000000  0.7242210000000  0.5054390000000 1.0
C      1  0.2562260000000  0.5479460000000  0.5695930000000 1.0
C      1  0.5411570000000  0.7426920000000  0.5369140000000 1.0
C      1  0.7437740000000  0.4520560000000  0.5695950000000 1.0
C      1  0.4588480000000  0.2573000000000  0.5369150000000 1.0
C      1  0.6505540000000  0.3289420000000  0.6254190000000 1.0
C      1  0.3625350000000  0.3446300000000  0.6171410000000 1.0
C      1  0.3494470000000  0.6710600000000  0.6254190000000 1.0
C      1  0.6374690000000  0.6553640000000  0.6171370000000 1.0
C      1  0.7143900000000  0.3594270000000  0.3755140000000 1.0
C      1  0.3549140000000  0.3122250000000  0.3565250000000 1.0
C      1  0.2856090000000  0.6405800000000  0.3755150000000 1.0
C      1  0.6450860000000  0.6877730000000  0.3565210000000 1.0
C      1  0.3773810000000  0.4087840000000  0.4173710000000 1.0
C      1  0.3871240000000  0.6280400000000  0.4317930000000 1.0
C      1  0.6226180000000  0.5912100000000  0.4173610000000 1.0
C      1  0.6128750000000  0.3719620000000  0.4317930000000 1.0
C      1  0.4391670000000  0.5525920000000  0.5285370000000 1.0
C      1  0.5430320000000  0.5498440000000  0.5241930000000 1.0
C      1  0.5608330000000  0.4474080000000  0.5285390000000 1.0
C      1  0.4569670000000  0.4501540000000  0.5241950000000 1.0
C      1  0.4880520000000  0.6635840000000  0.5863910000000 1.0
C      1  0.6620100000000  0.5086750000000  0.6117080000000 1.0
C      1  0.5119490000000  0.3364120000000  0.5863920000000 1.0
C      1  0.3379880000000  0.4913220000000  0.6117050000000 1.0
C      1  0.7253520000000  0.5609720000000  0.4405430000000 1.0
C      1  0.5578780000000  0.2870790000000  0.3982680000000 1.0
C      1  0.2746490000000  0.4390330000000  0.4405380000000 1.0
C      1  0.4421230000000  0.7129230000000  0.3982680000000 1.0
C      1  0.5235510000000  0.5622630000000  0.3767440000000 1.0
C      1  0.5828940000000  0.4670330000000  0.3879690000000 1.0
C      1  0.4764450000000  0.4377370000000  0.3767490000000 1.0
C      1  0.4171030000000  0.5329700000000  0.3879660000000 1.0
C      1  0.6104040000000  0.6300830000000  0.5230680000000 1.0
C      1  0.6393470000000  0.3764410000000  0.5366010000000 1.0
C      1  0.3896020000000  0.3699100000000  0.5230720000000 1.0
C      1  0.3606530000000  0.6235600000000  0.5366000000000 1.0
C      1  0.4817800000000  0.5858710000000  0.6603760000000 1.0
C      1  0.5656390000000  0.5105150000000  0.6601630000000 1.0
C      1  0.5182170000000  0.4141270000000  0.6603760000000 1.0
C      1  0.4343590000000  0.4894840000000  0.6601620000000 1.0
C      1  0.5969490000000  0.3470080000000  0.6880550000000 1.0
C      1  0.3889400000000  0.3907880000000  0.6823720000000 1.0
C      1  0.4030510000000  0.6529920000000  0.6880550000000 1.0
C      1  0.6110570000000  0.6092130000000  0.6823700000000 1.0
C      1  0.4015220000000  0.2835940000000  0.4533900000000 1.0
C      1  0.2667900000000  0.6020790000000  0.4802110000000 1.0
C      1  0.5984800000000  0.7163990000000  0.4533880000000 1.0
C      1  0.7332100000000  0.3979250000000  0.4802120000000 1.0
END
