TITL C-986978-6805-1095 0.0136823082979057 3375 -338.246579801474 0 0 60 (C1) n - 1
REM
REM in /home/bkarasulu/work/CARBON/AIRSS/Generating-Clusters/REBO/Higher-Symm/Only-C60
REM
REM
REM
REM
REM
REM ./C.cell (a2850807a9bf4ad07a5b6933b78d9264)
REM AIRSS Version 0.9.1 bugfix July 2018 build 013d7b7c2542+ Fri, 06 Jul 2018 19:26:36 +0100
REM compiler GCC version 9.2.1 20190827 (Red Hat 9.2.1-1)
REM options -cpp -mtune=generic -march=x86-64 -g -O0 -fpre-include=/usr/include/finclude/math-vector-fortran.h
REM seed 1204860202 -12924957 -2107632284 -1185546856 -2073290769 -445764657 -2145956213 1627233104 241944827 -2081903656 -600361473 -1516302698 936063034 1025059994 -1591989134 1795631714 -12110564 -1715526376 -1711904480 -1999675114 283330092 -1628484349 -735629099 1351868955 1689360797 -834495768 685855611 1454124558 1133778322 -1861281712 -752021082 -1287105094 1560790461
REM
CELL 1.54180   15.00000   15.00000   15.00000   90.00000   90.00000   90.00000
LATT -1
SFAC C  
C      1  0.4630980000000  0.7351550000000  0.4906700000000 1.0
C      1  0.5955450000000  0.4474800000000  0.3155770000000 1.0
C      1  0.4072900000000  0.6675490000000  0.3224130000000 1.0
C      1  0.5163820000000  0.5726380000000  0.1984820000000 1.0
C      1  0.3862810000000  0.4264320000000  0.5584380000000 1.0
C      1  0.5658890000000  0.7383180000000  0.4262400000000 1.0
C      1  0.6976640000000  0.5017790000000  0.4094170000000 1.0
C      1  0.5173000000000  0.2992810000000  0.5685800000000 1.0
C      1  0.6403640000000  0.4108300000000  0.6776650000000 1.0
C      1  0.4920660000000  0.4026270000000  0.5458550000000 1.0
C      1  0.6777700000000  0.5120010000000  0.6559140000000 1.0
C      1  0.6625040000000  0.3393220000000  0.4870660000000 1.0
C      1  0.6864730000000  0.4494980000000  0.5652360000000 1.0
C      1  0.4719630000000  0.6948620000000  0.3882180000000 1.0
C      1  0.5539820000000  0.5391190000000  0.5309730000000 1.0
C      1  0.5879900000000  0.7505860000000  0.5343010000000 1.0
C      1  0.4420420000000  0.6171910000000  0.2275000000000 1.0
C      1  0.4635420000000  0.5297940000000  0.4633160000000 1.0
C      1  0.5013100000000  0.7032400000000  0.5875210000000 1.0
C      1  0.5041010000000  0.6070040000000  0.6078070000000 1.0
C      1  0.2661590000000  0.4913480000000  0.4634490000000 1.0
C      1  0.5838000000000  0.4328990000000  0.4046620000000 1.0
C      1  0.5729410000000  0.5276640000000  0.2596530000000 1.0
C      1  0.4038050000000  0.4689830000000  0.3029010000000 1.0
C      1  0.3762290000000  0.5302050000000  0.5274560000000 1.0
C      1  0.3363220000000  0.3448650000000  0.4966550000000 1.0
C      1  0.4127050000000  0.5625630000000  0.6217060000000 1.0
C      1  0.4947010000000  0.4010110000000  0.4374280000000 1.0
C      1  0.4074470000000  0.4974150000000  0.6912840000000 1.0
C      1  0.6276260000000  0.4804920000000  0.4916560000000 1.0
C      1  0.4125460000000  0.4537240000000  0.4001740000000 1.0
C      1  0.7104190000000  0.3986880000000  0.4277750000000 1.0
C      1  0.2596430000000  0.3662330000000  0.6894890000000 1.0
C      1  0.3710330000000  0.5586900000000  0.2840300000000 1.0
C      1  0.5935780000000  0.2921020000000  0.6445550000000 1.0
C      1  0.4284350000000  0.4105900000000  0.2421630000000 1.0
C      1  0.5480140000000  0.3632180000000  0.7224630000000 1.0
C      1  0.3527640000000  0.3436740000000  0.6283600000000 1.0
C      1  0.3042720000000  0.5920970000000  0.4675780000000 1.0
C      1  0.5613030000000  0.7812270000000  0.6345760000000 1.0
C      1  0.5962330000000  0.5746180000000  0.6521890000000 1.0
C      1  0.5910140000000  0.6408250000000  0.5115310000000 1.0
C      1  0.5267050000000  0.6109360000000  0.4230260000000 1.0
C      1  0.3634750000000  0.7433440000000  0.5081930000000 1.0
C      1  0.6497820000000  0.6621360000000  0.4179560000000 1.0
C      1  0.3022320000000  0.6867050000000  0.5089640000000 1.0
C      1  0.5762770000000  0.3028310000000  0.4752850000000 1.0
C      1  0.4943810000000  0.2672500000000  0.6943270000000 1.0
C      1  0.4760620000000  0.2924750000000  0.4427020000000 1.0
C      1  0.3243220000000  0.4247820000000  0.4406880000000 1.0
C      1  0.6789730000000  0.3418850000000  0.5952440000000 1.0
C      1  0.7034110000000  0.5941320000000  0.3900830000000 1.0
C      1  0.4026170000000  0.2738480000000  0.5018580000000 1.0
C      1  0.5492920000000  0.4493260000000  0.6211050000000 1.0
C      1  0.5798840000000  0.5766510000000  0.3439290000000 1.0
C      1  0.3369540000000  0.4373290000000  0.6899050000000 1.0
C      1  0.3248070000000  0.6105000000000  0.3682400000000 1.0
C      1  0.4906620000000  0.4570240000000  0.7075830000000 1.0
C      1  0.7548420000000  0.5450850000000  0.6949620000000 1.0
C      1  0.4207790000000  0.2659190000000  0.6130250000000 1.0
END
