TITL C-986972-3822-128 1.31165212987386e-05 3375 -328.050959254441 0 0 60 (T23) n - 1
REM
REM in /home/bkarasulu/work/CARBON/AIRSS/Generating-Clusters/REBO/Higher-Symm/Only-C60
REM
REM
REM
REM
REM
REM ./C.cell (a2850807a9bf4ad07a5b6933b78d9264)
REM AIRSS Version 0.9.1 bugfix July 2018 build 013d7b7c2542+ Fri, 06 Jul 2018 19:26:36 +0100
REM compiler GCC version 9.2.1 20190827 (Red Hat 9.2.1-1)
REM options -cpp -mtune=generic -march=x86-64 -g -O0 -fpre-include=/usr/include/finclude/math-vector-fortran.h
REM seed 1705078366 1096693403 -41123126 966711295 1934366725 1956225075 -377652664 -630140336 -528541465 561715725 1719758710 967807734 -1541112705 -699694192 617149091 2030832713 1016026650 -1303917161 -1554386758 -611755194 249904231 2072665052 -78359158 -1822902951 2145584937 -782905804 676270533 407914929 -1421303203 -189311925 142773528 -645625735 1552471190
REM
CELL 1.54180   15.00000   15.00000   15.00000   90.00000   90.00000   90.00000
LATT -1
SFAC C  
C      1  0.4538140000000  0.3152960000000  0.4523840000000 1.0
C      1  0.3152960000000  0.4523740000000  0.4538190000000 1.0
C      1  0.4523730000000  0.4538090000000  0.3153020000000 1.0
C      1  0.5461840000000  0.6847010000000  0.4523690000000 1.0
C      1  0.4538150000000  0.6847040000000  0.5476180000000 1.0
C      1  0.5461870000000  0.3153000000000  0.5476290000000 1.0
C      1  0.6847000000000  0.5476220000000  0.4538100000000 1.0
C      1  0.3153000000000  0.5476240000000  0.5461870000000 1.0
C      1  0.6847040000000  0.4523780000000  0.5461840000000 1.0
C      1  0.5476190000000  0.5461810000000  0.3152940000000 1.0
C      1  0.4523810000000  0.5461900000000  0.6847010000000 1.0
C      1  0.5476280000000  0.4538190000000  0.6847040000000 1.0
C      1  0.4401760000000  0.3137330000000  0.5535260000000 1.0
C      1  0.3137340000000  0.4464830000000  0.5598310000000 1.0
C      1  0.4464870000000  0.4401790000000  0.6862710000000 1.0
C      1  0.5598270000000  0.6862690000000  0.5535100000000 1.0
C      1  0.4401720000000  0.6862660000000  0.4464770000000 1.0
C      1  0.5598250000000  0.3137310000000  0.4464880000000 1.0
C      1  0.6862700000000  0.5535200000000  0.5598210000000 1.0
C      1  0.3137310000000  0.5535150000000  0.4401750000000 1.0
C      1  0.6862670000000  0.4464810000000  0.4401730000000 1.0
C      1  0.5535220000000  0.5598310000000  0.6862650000000 1.0
C      1  0.4464780000000  0.5598210000000  0.3137300000000 1.0
C      1  0.5535140000000  0.4401690000000  0.3137340000000 1.0
C      1  0.4142890000000  0.6837520000000  0.3493510000000 1.0
C      1  0.6837540000000  0.3493540000000  0.4142950000000 1.0
C      1  0.3493610000000  0.4142980000000  0.6837620000000 1.0
C      1  0.5857040000000  0.3162400000000  0.3493610000000 1.0
C      1  0.4142960000000  0.3162480000000  0.6506520000000 1.0
C      1  0.5857090000000  0.6837600000000  0.6506360000000 1.0
C      1  0.3162420000000  0.6506410000000  0.4142910000000 1.0
C      1  0.6837580000000  0.6506470000000  0.5856990000000 1.0
C      1  0.3162470000000  0.3493580000000  0.5857150000000 1.0
C      1  0.6506480000000  0.5857130000000  0.6837500000000 1.0
C      1  0.3493520000000  0.5857010000000  0.3162430000000 1.0
C      1  0.6506400000000  0.4142880000000  0.3162450000000 1.0
C      1  0.4231850000000  0.6740010000000  0.6439520000000 1.0
C      1  0.6739990000000  0.3560470000000  0.5768200000000 1.0
C      1  0.3560400000000  0.4231770000000  0.3260110000000 1.0
C      1  0.5768220000000  0.3260090000000  0.6439610000000 1.0
C      1  0.4231790000000  0.3259990000000  0.3560520000000 1.0
C      1  0.5768140000000  0.6739930000000  0.3560350000000 1.0
C      1  0.3260050000000  0.6439580000000  0.5768160000000 1.0
C      1  0.6739930000000  0.6439540000000  0.4231740000000 1.0
C      1  0.3260010000000  0.3560400000000  0.4231900000000 1.0
C      1  0.6439530000000  0.5768140000000  0.3259970000000 1.0
C      1  0.3560480000000  0.5768230000000  0.6739950000000 1.0
C      1  0.6439620000000  0.4231870000000  0.6739980000000 1.0
C      1  0.7001670000000  0.5016430000000  0.6889930000000 1.0
C      1  0.5016400000000  0.6890020000000  0.7001560000000 1.0
C      1  0.6889950000000  0.7001630000000  0.5016260000000 1.0
C      1  0.2998420000000  0.4983690000000  0.6889990000000 1.0
C      1  0.7001580000000  0.4983590000000  0.3109990000000 1.0
C      1  0.2998340000000  0.5016300000000  0.3110080000000 1.0
C      1  0.4983680000000  0.3110100000000  0.7001690000000 1.0
C      1  0.5016320000000  0.3109980000000  0.2998450000000 1.0
C      1  0.4983590000000  0.6889910000000  0.2998310000000 1.0
C      1  0.3110030000000  0.2998370000000  0.5016470000000 1.0
C      1  0.6889970000000  0.2998380000000  0.4983670000000 1.0
C      1  0.3110030000000  0.7001620000000  0.4983610000000 1.0
END
