TITL C-986975-4297-766 5.79209754765348e-05 3375 -339.30013873731 0 0 60 (C2) n - 1
REM
REM in /home/bkarasulu/work/CARBON/AIRSS/Generating-Clusters/REBO/Higher-Symm/Only-C60
REM
REM
REM
REM
REM
REM ./C.cell (a2850807a9bf4ad07a5b6933b78d9264)
REM AIRSS Version 0.9.1 bugfix July 2018 build 013d7b7c2542+ Fri, 06 Jul 2018 19:26:36 +0100
REM compiler GCC version 9.2.1 20190827 (Red Hat 9.2.1-1)
REM options -cpp -mtune=generic -march=x86-64 -g -O0 -fpre-include=/usr/include/finclude/math-vector-fortran.h
REM seed -520907766 -614509620 1042276843 -840625784 919469386 -500413005 2122973661 -542852873 952848224 1148813932 -718641108 1540783875 1627805469 -1455697007 -1495453375 768385674 -281909237 -2090386708 -1948350567 -1224927270 333498569 -841848716 932240285 -1940499921 -1911282483 260634935 493626507 492418328 -470765719 1567008555 463295138 -1229022330 -1573316305
REM
CELL 1.54180   15.00000   15.00000   15.00000   90.00000   90.00000   90.00000
LATT -1
SFAC C  
C      1  0.2313200000000  0.4787620000000  0.4835660000000 1.0
C      1  0.6485100000000  0.2745200000000  0.5462770000000 1.0
C      1  0.5880010000000  0.7112980000000  0.4653520000000 1.0
C      1  0.7686800000000  0.4787770000000  0.5164350000000 1.0
C      1  0.3515050000000  0.2745100000000  0.4537280000000 1.0
C      1  0.4119860000000  0.7112940000000  0.5346440000000 1.0
C      1  0.2806520000000  0.6221960000000  0.3799030000000 1.0
C      1  0.5318880000000  0.2905610000000  0.3695670000000 1.0
C      1  0.6766510000000  0.6396950000000  0.3215770000000 1.0
C      1  0.7193400000000  0.6222110000000  0.6200960000000 1.0
C      1  0.4681270000000  0.2905610000000  0.6304350000000 1.0
C      1  0.3233410000000  0.6396880000000  0.6784210000000 1.0
C      1  0.5156220000000  0.2260910000000  0.4355030000000 1.0
C      1  0.7287840000000  0.6570280000000  0.3988080000000 1.0
C      1  0.2697540000000  0.6502510000000  0.4686810000000 1.0
C      1  0.4843970000000  0.2260900000000  0.5645010000000 1.0
C      1  0.2712070000000  0.6570180000000  0.6011900000000 1.0
C      1  0.7302370000000  0.6502640000000  0.5313170000000 1.0
C      1  0.5568090000000  0.3761670000000  0.3420780000000 1.0
C      1  0.5879800000000  0.6079980000000  0.3296220000000 1.0
C      1  0.3224210000000  0.5508090000000  0.3337000000000 1.0
C      1  0.4431970000000  0.3761650000000  0.6579220000000 1.0
C      1  0.4120140000000  0.6079960000000  0.6703770000000 1.0
C      1  0.6775760000000  0.5508210000000  0.6662990000000 1.0
C      1  0.6832690000000  0.7178310000000  0.4684800000000 1.0
C      1  0.2487680000000  0.5712960000000  0.5400340000000 1.0
C      1  0.5787960000000  0.2185790000000  0.5188580000000 1.0
C      1  0.3167180000000  0.7178210000000  0.5315170000000 1.0
C      1  0.7512260000000  0.5713110000000  0.4599640000000 1.0
C      1  0.4212230000000  0.2185750000000  0.4811460000000 1.0
C      1  0.5595240000000  0.3287040000000  0.7197010000000 1.0
C      1  0.5676560000000  0.6541150000000  0.6490110000000 1.0
C      1  0.2989680000000  0.4432520000000  0.6443330000000 1.0
C      1  0.4404850000000  0.3286960000000  0.2803030000000 1.0
C      1  0.4323350000000  0.6541100000000  0.3509870000000 1.0
C      1  0.7010340000000  0.4432630000000  0.3556670000000 1.0
C      1  0.5022510000000  0.4632630000000  0.6199480000000 1.0
C      1  0.6076750000000  0.5007070000000  0.6016910000000 1.0
C      1  0.4269770000000  0.5424180000000  0.5893800000000 1.0
C      1  0.4977500000000  0.4632610000000  0.3800520000000 1.0
C      1  0.3923240000000  0.5007000000000  0.3983100000000 1.0
C      1  0.5730190000000  0.5424220000000  0.4106200000000 1.0
C      1  0.4249330000000  0.3790790000000  0.3558210000000 1.0
C      1  0.6666240000000  0.5001660000000  0.4349470000000 1.0
C      1  0.4092680000000  0.6008100000000  0.4207800000000 1.0
C      1  0.5750730000000  0.3790860000000  0.6441830000000 1.0
C      1  0.3333750000000  0.5001570000000  0.5650530000000 1.0
C      1  0.5907260000000  0.6008160000000  0.5792190000000 1.0
C      1  0.5492210000000  0.6156640000000  0.4883360000000 1.0
C      1  0.3363190000000  0.4469120000000  0.4693890000000 1.0
C      1  0.6376020000000  0.3618440000000  0.5771560000000 1.0
C      1  0.4507720000000  0.6156610000000  0.5116620000000 1.0
C      1  0.6636830000000  0.4469220000000  0.5306110000000 1.0
C      1  0.3624050000000  0.3618350000000  0.4228480000000 1.0
C      1  0.3093640000000  0.5234950000000  0.2470930000000 1.0
C      1  0.6422370000000  0.3932480000000  0.3085500000000 1.0
C      1  0.5100630000000  0.6532330000000  0.3028550000000 1.0
C      1  0.6906380000000  0.5235050000000  0.7529040000000 1.0
C      1  0.3577690000000  0.3932400000000  0.6914490000000 1.0
C      1  0.4899280000000  0.6532350000000  0.6971430000000 1.0
END
