TITL C-986979-5873-138 -8.06714763598938e-06 3375 -333.950749846534 0 0 60 (C3h) n - 1
REM
REM in /home/bkarasulu/work/CARBON/AIRSS/Generating-Clusters/REBO/Higher-Symm/Only-C60
REM
REM
REM
REM
REM
REM ./C.cell (a2850807a9bf4ad07a5b6933b78d9264)
REM AIRSS Version 0.9.1 bugfix July 2018 build 013d7b7c2542+ Fri, 06 Jul 2018 19:26:36 +0100
REM compiler GCC version 9.2.1 20190827 (Red Hat 9.2.1-1)
REM options -cpp -mtune=generic -march=x86-64 -g -O0 -fpre-include=/usr/include/finclude/math-vector-fortran.h
REM seed 69423222 1524523466 1824765169 -1857630719 -2036707135 512733484 -284990894 -527946076 -1577447203 919955907 2063832635 -130018966 -2027342175 1973712463 -860862573 154256651 579365946 1171509277 1663472290 48979860 -2105350719 1667272211 1007509649 1849474990 -1240512104 -1832708117 1362854828 -1208858865 -1867988337 -669752446 1813659595 530068401 -1504848280
REM
CELL 1.54180   15.00000   15.00000   15.00000   90.00000   90.00000   90.00000
LATT -1
SFAC C  
C      1  0.5199810000000  0.3885890000000  0.6813770000000 1.0
C      1  0.3329320000000  0.3885890000000  0.4266160000000 1.0
C      1  0.6470870000000  0.3885890000000  0.3920070000000 1.0
C      1  0.5199810000000  0.6114110000000  0.6813770000000 1.0
C      1  0.3329320000000  0.6114110000000  0.4266160000000 1.0
C      1  0.6470870000000  0.6114110000000  0.3920070000000 1.0
C      1  0.5712600000000  0.6795260000000  0.6316870000000 1.0
C      1  0.3503250000000  0.6795260000000  0.4958700000000 1.0
C      1  0.5784140000000  0.6795260000000  0.3724430000000 1.0
C      1  0.5712600000000  0.3204740000000  0.6316870000000 1.0
C      1  0.3503250000000  0.3204740000000  0.4958700000000 1.0
C      1  0.5784140000000  0.3204740000000  0.3724430000000 1.0
C      1  0.2916640000000  0.5419830000000  0.5320330000000 1.0
C      1  0.5764260000000  0.5419830000000  0.3035590000000 1.0
C      1  0.6319100000000  0.5419830000000  0.6644070000000 1.0
C      1  0.2916640000000  0.4580170000000  0.5320330000000 1.0
C      1  0.5764260000000  0.4580170000000  0.3035590000000 1.0
C      1  0.6319100000000  0.4580170000000  0.6644070000000 1.0
C      1  0.3719240000000  0.3530950000000  0.3261200000000 1.0
C      1  0.7146220000000  0.3530950000000  0.4760230000000 1.0
C      1  0.4134530000000  0.3530950000000  0.6978570000000 1.0
C      1  0.3719240000000  0.6469050000000  0.3261200000000 1.0
C      1  0.7146220000000  0.6469050000000  0.4760230000000 1.0
C      1  0.4134530000000  0.6469050000000  0.6978570000000 1.0
C      1  0.3542280000000  0.4093090000000  0.5943020000000 1.0
C      1  0.4912180000000  0.4093090000000  0.3266070000000 1.0
C      1  0.6545540000000  0.4093090000000  0.5790910000000 1.0
C      1  0.3542280000000  0.5906910000000  0.5943020000000 1.0
C      1  0.4912180000000  0.5906910000000  0.3266070000000 1.0
C      1  0.6545540000000  0.5906910000000  0.5790910000000 1.0
C      1  0.4659160000000  0.6918220000000  0.3710280000000 1.0
C      1  0.6287350000000  0.6918220000000  0.5349680000000 1.0
C      1  0.4053490000000  0.6918220000000  0.5940040000000 1.0
C      1  0.4659160000000  0.3081780000000  0.3710280000000 1.0
C      1  0.6287350000000  0.3081780000000  0.5349680000000 1.0
C      1  0.4053490000000  0.3081780000000  0.5940040000000 1.0
C      1  0.4207590000000  0.5453450000000  0.3989060000000 1.0
C      1  0.6271710000000  0.5453450000000  0.4819220000000 1.0
C      1  0.4520710000000  0.5453450000000  0.6191720000000 1.0
C      1  0.4207590000000  0.4546550000000  0.3989060000000 1.0
C      1  0.6271710000000  0.4546550000000  0.4819220000000 1.0
C      1  0.4520710000000  0.4546550000000  0.6191720000000 1.0
C      1  0.4413410000000  0.7278780000000  0.4709700000000 1.0
C      1  0.5544700000000  0.7278770000000  0.4637150000000 1.0
C      1  0.5041890000000  0.7278770000000  0.5653150000000 1.0
C      1  0.4413410000000  0.2721220000000  0.4709700000000 1.0
C      1  0.5544700000000  0.2721230000000  0.4637150000000 1.0
C      1  0.5041890000000  0.2721230000000  0.5653150000000 1.0
C      1  0.4012030000000  0.4462750000000  0.2676100000000 1.0
C      1  0.7506540000000  0.4462750000000  0.5306340000000 1.0
C      1  0.3481430000000  0.4462750000000  0.7017560000000 1.0
C      1  0.4012030000000  0.5537250000000  0.2676100000000 1.0
C      1  0.7506540000000  0.5537250000000  0.5306340000000 1.0
C      1  0.3481430000000  0.5537250000000  0.7017560000000 1.0
C      1  0.7423440000000  0.5532100000000  0.4160890000000 1.0
C      1  0.4514970000000  0.5532100000000  0.7518320000000 1.0
C      1  0.3061590000000  0.5532100000000  0.3320790000000 1.0
C      1  0.7423440000000  0.4467900000000  0.4160890000000 1.0
C      1  0.4514970000000  0.4467900000000  0.7518320000000 1.0
C      1  0.3061590000000  0.4467900000000  0.3320790000000 1.0
END
