TITL C-986975-4297-837 4.0484851394937e-08 3375 -345.764615127194 0 0 60 (C1) n - 1
REM
REM in /home/bkarasulu/work/CARBON/AIRSS/Generating-Clusters/REBO/Higher-Symm/Only-C60
REM
REM
REM
REM
REM
REM ./C.cell (a2850807a9bf4ad07a5b6933b78d9264)
REM AIRSS Version 0.9.1 bugfix July 2018 build 013d7b7c2542+ Fri, 06 Jul 2018 19:26:36 +0100
REM compiler GCC version 9.2.1 20190827 (Red Hat 9.2.1-1)
REM options -cpp -mtune=generic -march=x86-64 -g -O0 -fpre-include=/usr/include/finclude/math-vector-fortran.h
REM seed 1556455701 -27405839 1891997574 -194099681 -1416332487 191860640 -156996052 1279194992 153257442 145123812 30860867 1880874674 -1274307790 927595051 1233366948 -526493152 -1583937162 561570754 262114405 1074391656 1677421048 -1829248016 2050813899 -1560919431 1806205493 -1351286748 -836614463 153272625 -670968873 1465156653 -878955328 -28104971 -2115033284
REM
CELL 1.54180   15.00000   15.00000   15.00000   90.00000   90.00000   90.00000
LATT -1
SFAC C  
C      1  0.3210650000000  0.4435730000000  0.6885070000000 1.0
C      1  0.3213230000000  0.4336100000000  0.3093310000000 1.0
C      1  0.4058980000000  0.3149830000000  0.6123520000000 1.0
C      1  0.4016380000000  0.3250570000000  0.3837690000000 1.0
C      1  0.6434580000000  0.5382750000000  0.3048850000000 1.0
C      1  0.6482370000000  0.5381030000000  0.6962060000000 1.0
C      1  0.7277170000000  0.4776410000000  0.4545670000000 1.0
C      1  0.7276390000000  0.4759690000000  0.5504860000000 1.0
C      1  0.3182360000000  0.3232450000000  0.4539550000000 1.0
C      1  0.3179910000000  0.3243060000000  0.5486480000000 1.0
C      1  0.5798620000000  0.7064550000000  0.6056680000000 1.0
C      1  0.5751810000000  0.6984260000000  0.4014510000000 1.0
C      1  0.4676720000000  0.4056260000000  0.2605890000000 1.0
C      1  0.4637600000000  0.3985290000000  0.7371610000000 1.0
C      1  0.5609400000000  0.4734500000000  0.6867670000000 1.0
C      1  0.5542860000000  0.4780880000000  0.3313610000000 1.0
C      1  0.4851970000000  0.7010400000000  0.5530740000000 1.0
C      1  0.4792380000000  0.6872980000000  0.4528330000000 1.0
C      1  0.7010600000000  0.5646430000000  0.6119170000000 1.0
C      1  0.7131310000000  0.5689930000000  0.3888340000000 1.0
C      1  0.5932000000000  0.3599160000000  0.4540170000000 1.0
C      1  0.5942720000000  0.3597160000000  0.5529770000000 1.0
C      1  0.5615330000000  0.3126340000000  0.3543510000000 1.0
C      1  0.5642470000000  0.3081020000000  0.6501810000000 1.0
C      1  0.4309830000000  0.5447530000000  0.6434670000000 1.0
C      1  0.4164110000000  0.5544680000000  0.3318430000000 1.0
C      1  0.6179590000000  0.5498020000000  0.4338470000000 1.0
C      1  0.6245140000000  0.5584510000000  0.5363060000000 1.0
C      1  0.6923010000000  0.3997680000000  0.4149470000000 1.0
C      1  0.6952670000000  0.3963160000000  0.5894930000000 1.0
C      1  0.4613760000000  0.5913560000000  0.5432880000000 1.0
C      1  0.4565520000000  0.5785000000000  0.4303640000000 1.0
C      1  0.4116460000000  0.4731520000000  0.7065000000000 1.0
C      1  0.4035900000000  0.4740290000000  0.2809470000000 1.0
C      1  0.6619620000000  0.3349950000000  0.6641740000000 1.0
C      1  0.6582820000000  0.3403020000000  0.3401170000000 1.0
C      1  0.3525710000000  0.7078910000000  0.5423080000000 1.0
C      1  0.3484090000000  0.7108350000000  0.4606110000000 1.0
C      1  0.5346820000000  0.5174010000000  0.5643830000000 1.0
C      1  0.5276580000000  0.5147550000000  0.4566220000000 1.0
C      1  0.3422100000000  0.5881870000000  0.5997760000000 1.0
C      1  0.3323270000000  0.5924500000000  0.3876540000000 1.0
C      1  0.5061080000000  0.6581710000000  0.3277670000000 1.0
C      1  0.5123880000000  0.6570210000000  0.6741030000000 1.0
C      1  0.6597280000000  0.6585630000000  0.5615190000000 1.0
C      1  0.6599650000000  0.6518880000000  0.4481190000000 1.0
C      1  0.4755320000000  0.3212920000000  0.6802270000000 1.0
C      1  0.4747020000000  0.3294080000000  0.3202410000000 1.0
C      1  0.4019070000000  0.6811080000000  0.3680680000000 1.0
C      1  0.4082470000000  0.6746810000000  0.6322950000000 1.0
C      1  0.4226990000000  0.4050680000000  0.4551200000000 1.0
C      1  0.4216400000000  0.4067600000000  0.5541350000000 1.0
C      1  0.3005010000000  0.5246590000000  0.4489890000000 1.0
C      1  0.2998480000000  0.5248390000000  0.5434520000000 1.0
C      1  0.5482510000000  0.5784220000000  0.7097880000000 1.0
C      1  0.5416350000000  0.5780930000000  0.2926500000000 1.0
C      1  0.3149430000000  0.4306460000000  0.5861670000000 1.0
C      1  0.3201400000000  0.4284760000000  0.4116470000000 1.0
C      1  0.5172890000000  0.4226930000000  0.4147890000000 1.0
C      1  0.5190000000000  0.4231230000000  0.6003910000000 1.0
END
