TITL C-986975-4297-1089 0.30242210845751 3375 -311.40050561723 0 0 60 (C1) n - 1
REM
REM in /home/bkarasulu/work/CARBON/AIRSS/Generating-Clusters/REBO/Higher-Symm/Only-C60
REM
REM
REM
REM
REM
REM ./C.cell (a2850807a9bf4ad07a5b6933b78d9264)
REM AIRSS Version 0.9.1 bugfix July 2018 build 013d7b7c2542+ Fri, 06 Jul 2018 19:26:36 +0100
REM compiler GCC version 9.2.1 20190827 (Red Hat 9.2.1-1)
REM options -cpp -mtune=generic -march=x86-64 -g -O0 -fpre-include=/usr/include/finclude/math-vector-fortran.h
REM seed -1291258899 1111422866 1618797523 -893935785 988689896 -1511258108 831573542 2097950676 1945920592 -2057264702 -1694075503 347697932 379372663 965958513 -1905651728 -1688493508 676430284 759842386 369167866 1271005720 2054603567 -70027501 -1485725389 -1429042936 1956684741 1915673941 870969744 465553958 -1968672332 -1219773782 -1138844262 -168492987 640164908
REM
CELL 1.54180   15.00000   15.00000   15.00000   90.00000   90.00000   90.00000
LATT -1
SFAC C  
C      1  0.3392610000000  0.3430640000000  0.6337640000000 1.0
C      1  0.3393190000000  0.6926420000000  0.5657860000000 1.0
C      1  0.3390750000000  0.4600560000000  0.2999650000000 1.0
C      1  0.4794330000000  0.3380390000000  0.5333710000000 1.0
C      1  0.4815280000000  0.6114510000000  0.6244880000000 1.0
C      1  0.4810840000000  0.5523560000000  0.3421890000000 1.0
C      1  0.5020620000000  0.6682260000000  0.5444040000000 1.0
C      1  0.5018680000000  0.4546620000000  0.3322630000000 1.0
C      1  0.4985110000000  0.3795830000000  0.6230180000000 1.0
C      1  0.3801130000000  0.4552220000000  0.2254890000000 1.0
C      1  0.3811480000000  0.2826490000000  0.6767100000000 1.0
C      1  0.3798650000000  0.7600540000000  0.5984020000000 1.0
C      1  0.3084170000000  0.5970280000000  0.5328510000000 1.0
C      1  0.3069600000000  0.4787490000000  0.3991250000000 1.0
C      1  0.3079270000000  0.4197710000000  0.5685590000000 1.0
C      1  0.6854650000000  0.5959160000000  0.3488620000000 1.0
C      1  0.6855570000000  0.3208070000000  0.4920210000000 1.0
C      1  0.6848500000000  0.5823760000000  0.6586860000000 1.0
C      1  0.5885970000000  0.4453770000000  0.2617780000000 1.0
C      1  0.5858080000000  0.3228970000000  0.6650470000000 1.0
C      1  0.5889050000000  0.7337770000000  0.5712980000000 1.0
C      1  0.5306990000000  0.6453650000000  0.6962760000000 1.0
C      1  0.5300270000000  0.5977070000000  0.2766950000000 1.0
C      1  0.5289850000000  0.2590130000000  0.5280540000000 1.0
C      1  0.3368530000000  0.3061010000000  0.4380740000000 1.0
C      1  0.3361020000000  0.5460300000000  0.7020490000000 1.0
C      1  0.3365560000000  0.6488590000000  0.3634190000000 1.0
C      1  0.5719670000000  0.4102880000000  0.7287890000000 1.0
C      1  0.5740090000000  0.7435930000000  0.4629660000000 1.0
C      1  0.5740040000000  0.3466050000000  0.3071830000000 1.0
C      1  0.6263610000000  0.6759930000000  0.6582990000000 1.0
C      1  0.6256190000000  0.5495810000000  0.2686870000000 1.0
C      1  0.6250360000000  0.2764470000000  0.5728150000000 1.0
C      1  0.6325530000000  0.5015410000000  0.3719260000000 1.0
C      1  0.6343500000000  0.3895990000000  0.5617460000000 1.0
C      1  0.6325040000000  0.6101620000000  0.5653490000000 1.0
C      1  0.4847920000000  0.5845160000000  0.4313480000000 1.0
C      1  0.4839740000000  0.3984940000000  0.4604200000000 1.0
C      1  0.4844260000000  0.5172680000000  0.6077480000000 1.0
C      1  0.4012560000000  0.2884980000000  0.3870900000000 1.0
C      1  0.4009190000000  0.5095400000000  0.7413920000000 1.0
C      1  0.4007340000000  0.7022940000000  0.3731420000000 1.0
C      1  0.4013570000000  0.4194050000000  0.4111260000000 1.0
C      1  0.3989910000000  0.4668960000000  0.6153220000000 1.0
C      1  0.4022400000000  0.6161010000000  0.4745450000000 1.0
C      1  0.5752180000000  0.4253210000000  0.4136580000000 1.0
C      1  0.5750570000000  0.4616760000000  0.6067500000000 1.0
C      1  0.5754310000000  0.6121580000000  0.4784050000000 1.0
C      1  0.6382600000000  0.3404370000000  0.3934030000000 1.0
C      1  0.6375500000000  0.4870920000000  0.6910680000000 1.0
C      1  0.6384960000000  0.6719070000000  0.4149270000000 1.0
C      1  0.7493320000000  0.4909050000000  0.6713170000000 1.0
C      1  0.7501670000000  0.6523480000000  0.4217990000000 1.0
C      1  0.7500330000000  0.3557620000000  0.4065400000000 1.0
C      1  0.3007080000000  0.5726380000000  0.4257150000000 1.0
C      1  0.3004790000000  0.3974380000000  0.4736380000000 1.0
C      1  0.3044480000000  0.5266940000000  0.6004610000000 1.0
C      1  0.4687540000000  0.7156250000000  0.4470320000000 1.0
C      1  0.4688690000000  0.3464320000000  0.3389690000000 1.0
C      1  0.4671340000000  0.4389670000000  0.7137790000000 1.0
END
