TITL C-986976-6631-445 -1.84866590342333e-06 3375 -351.774203645032 0 0 60 (D2) n - 1
REM
REM in /home/bkarasulu/work/CARBON/AIRSS/Generating-Clusters/REBO/Higher-Symm/Only-C60
REM
REM
REM
REM
REM
REM ./C.cell (a2850807a9bf4ad07a5b6933b78d9264)
REM AIRSS Version 0.9.1 bugfix July 2018 build 013d7b7c2542+ Fri, 06 Jul 2018 19:26:36 +0100
REM compiler GCC version 9.2.1 20190827 (Red Hat 9.2.1-1)
REM options -cpp -mtune=generic -march=x86-64 -g -O0 -fpre-include=/usr/include/finclude/math-vector-fortran.h
REM seed -1980206405 -568916939 -1795474786 536002332 -1547609998 -1226273867 1837266686 1302933768 -1222551167 -712044490 -192790681 -1581952023 1639273197 -1586690884 1469221749 1342674243 -307891882 744980964 731870534 1745383541 1236175743 363128382 101265602 1213688333 916168206 243229914 187166409 1452289799 620039077 391941295 1667194254 223773293 -1491595522
REM
CELL 1.54180   15.00000   15.00000   15.00000   90.00000   90.00000   90.00000
LATT -1
SFAC C  
C      1  0.7368650000000  0.4525090000000  0.5106110000000 1.0
C      1  0.2631350000000  0.5474910000000  0.5106110000000 1.0
C      1  0.7368650000000  0.5474910000000  0.4893890000000 1.0
C      1  0.2631350000000  0.4525090000000  0.4893890000000 1.0
C      1  0.6893260000000  0.4268940000000  0.5899830000000 1.0
C      1  0.3106740000000  0.5731060000000  0.5899830000000 1.0
C      1  0.6893260000000  0.5731060000000  0.4100170000000 1.0
C      1  0.3106740000000  0.4268940000000  0.4100170000000 1.0
C      1  0.5869420000000  0.4502920000000  0.4069720000000 1.0
C      1  0.4130580000000  0.5497080000000  0.4069720000000 1.0
C      1  0.5869420000000  0.5497080000000  0.5930280000000 1.0
C      1  0.4130580000000  0.4502920000000  0.5930280000000 1.0
C      1  0.4009370000000  0.6405270000000  0.5900310000000 1.0
C      1  0.5990630000000  0.3594730000000  0.5900310000000 1.0
C      1  0.4009370000000  0.3594730000000  0.4099690000000 1.0
C      1  0.5990630000000  0.6405270000000  0.4099690000000 1.0
C      1  0.4454350000000  0.2829530000000  0.4622810000000 1.0
C      1  0.5545650000000  0.7170470000000  0.4622810000000 1.0
C      1  0.4454350000000  0.7170470000000  0.5377190000000 1.0
C      1  0.5545650000000  0.2829530000000  0.5377190000000 1.0
C      1  0.4261320000000  0.3149300000000  0.7281420000000 1.0
C      1  0.5738680000000  0.6850700000000  0.7281420000000 1.0
C      1  0.4261320000000  0.6850700000000  0.2718580000000 1.0
C      1  0.5738680000000  0.3149300000000  0.2718580000000 1.0
C      1  0.5462120000000  0.2650790000000  0.4255140000000 1.0
C      1  0.4537880000000  0.7349210000000  0.4255140000000 1.0
C      1  0.5462120000000  0.7349210000000  0.5744860000000 1.0
C      1  0.4537880000000  0.2650790000000  0.5744860000000 1.0
C      1  0.5481860000000  0.5001870000000  0.2902920000000 1.0
C      1  0.4518140000000  0.4998130000000  0.2902920000000 1.0
C      1  0.5481860000000  0.4998130000000  0.7097080000000 1.0
C      1  0.4518140000000  0.5001870000000  0.7097080000000 1.0
C      1  0.5564380000000  0.6290350000000  0.5344270000000 1.0
C      1  0.4435620000000  0.3709650000000  0.5344270000000 1.0
C      1  0.5564380000000  0.3709650000000  0.4655730000000 1.0
C      1  0.4435620000000  0.6290350000000  0.4655730000000 1.0
C      1  0.7434320000000  0.4003380000000  0.4308260000000 1.0
C      1  0.2565680000000  0.5996620000000  0.4308260000000 1.0
C      1  0.7434320000000  0.5996620000000  0.5691740000000 1.0
C      1  0.2565680000000  0.4003380000000  0.5691740000000 1.0
C      1  0.5709100000000  0.4578560000000  0.5384440000000 1.0
C      1  0.4290900000000  0.5421440000000  0.5384440000000 1.0
C      1  0.5709100000000  0.5421440000000  0.4615560000000 1.0
C      1  0.4290900000000  0.4578560000000  0.4615560000000 1.0
C      1  0.6817530000000  0.5853790000000  0.6332380000000 1.0
C      1  0.3182470000000  0.4146210000000  0.6332380000000 1.0
C      1  0.6817530000000  0.4146210000000  0.3667620000000 1.0
C      1  0.3182470000000  0.5853790000000  0.3667620000000 1.0
C      1  0.3944390000000  0.4395220000000  0.3342480000000 1.0
C      1  0.6055610000000  0.5604780000000  0.3342480000000 1.0
C      1  0.3944390000000  0.5604780000000  0.6657520000000 1.0
C      1  0.6055610000000  0.4395220000000  0.6657520000000 1.0
C      1  0.4388660000000  0.7460060000000  0.3273670000000 1.0
C      1  0.5611340000000  0.2539940000000  0.3273670000000 1.0
C      1  0.4388660000000  0.2539940000000  0.6726330000000 1.0
C      1  0.5611340000000  0.7460060000000  0.6726330000000 1.0
C      1  0.5977710000000  0.4090510000000  0.2946460000000 1.0
C      1  0.4022290000000  0.5909490000000  0.2946460000000 1.0
C      1  0.5977710000000  0.5909490000000  0.7053540000000 1.0
C      1  0.4022290000000  0.4090510000000  0.7053540000000 1.0
END
