TITL C-986974-580-492 9.05420334777597e-06 3375 -326.438206381981 0 0 60 (C1) n - 1
REM
REM in /home/bkarasulu/work/CARBON/AIRSS/Generating-Clusters/REBO/Higher-Symm/Only-C60
REM
REM
REM
REM
REM
REM ./C.cell (a2850807a9bf4ad07a5b6933b78d9264)
REM AIRSS Version 0.9.1 bugfix July 2018 build 013d7b7c2542+ Fri, 06 Jul 2018 19:26:36 +0100
REM compiler GCC version 9.2.1 20190827 (Red Hat 9.2.1-1)
REM options -cpp -mtune=generic -march=x86-64 -g -O0 -fpre-include=/usr/include/finclude/math-vector-fortran.h
REM seed 145454398 1082093969 414585937 833939365 -1463829869 1616679130 948836635 -1365559063 -1382393786 271478731 1843271940 -391864017 -1055660424 -202107669 -77821026 -1256809442 -123186122 68547189 1354184361 -1617418720 -1133233948 1211869019 -727757711 -10991885 -1182188774 -1280820240 -1851491416 -975042848 2023882371 1365977083 -1639700995 -968986334 -8447548
REM
CELL 1.54180   15.00000   15.00000   15.00000   90.00000   90.00000   90.00000
LATT -1
SFAC C  
C      1  0.5432210000000  0.7380720000000  0.5659190000000 1.0
C      1  0.7382640000000  0.5509850000000  0.5343000000000 1.0
C      1  0.5476810000000  0.5306370000000  0.7384060000000 1.0
C      1  0.5326660000000  0.2713910000000  0.4515340000000 1.0
C      1  0.4261460000000  0.7535100000000  0.4320090000000 1.0
C      1  0.4363080000000  0.2556550000000  0.5434910000000 1.0
C      1  0.7472810000000  0.4582580000000  0.4389470000000 1.0
C      1  0.2658110000000  0.5668200000000  0.4489350000000 1.0
C      1  0.2583840000000  0.4425170000000  0.5771050000000 1.0
C      1  0.5580810000000  0.4371290000000  0.2611860000000 1.0
C      1  0.4618460000000  0.5295660000000  0.2611770000000 1.0
C      1  0.4514700000000  0.4385470000000  0.7438860000000 1.0
C      1  0.4359580000000  0.7477300000000  0.5455400000000 1.0
C      1  0.2572850000000  0.5551110000000  0.5579780000000 1.0
C      1  0.4362670000000  0.5460090000000  0.7301430000000 1.0
C      1  0.4259690000000  0.2588500000000  0.4300400000000 1.0
C      1  0.5320980000000  0.7413930000000  0.4534940000000 1.0
C      1  0.5430490000000  0.2620250000000  0.5631980000000 1.0
C      1  0.2696040000000  0.4560480000000  0.4698230000000 1.0
C      1  0.7517710000000  0.5717580000000  0.4279950000000 1.0
C      1  0.7410060000000  0.4389440000000  0.5459180000000 1.0
C      1  0.4453390000000  0.4221810000000  0.2535640000000 1.0
C      1  0.5731490000000  0.5451920000000  0.2665460000000 1.0
C      1  0.5640230000000  0.4242350000000  0.7552950000000 1.0
C      1  0.5585790000000  0.6510080000000  0.4082210000000 1.0
C      1  0.6476590000000  0.4010650000000  0.5636250000000 1.0
C      1  0.4070970000000  0.5573730000000  0.6318130000000 1.0
C      1  0.5588550000000  0.3548180000000  0.6035380000000 1.0
C      1  0.4480310000000  0.6470700000000  0.5838130000000 1.0
C      1  0.4462230000000  0.3608370000000  0.4050950000000 1.0
C      1  0.6519300000000  0.6071810000000  0.4504510000000 1.0
C      1  0.3636320000000  0.4171330000000  0.4481120000000 1.0
C      1  0.3575460000000  0.5937020000000  0.5412510000000 1.0
C      1  0.4050630000000  0.4497210000000  0.3509200000000 1.0
C      1  0.6026820000000  0.5628200000000  0.3633570000000 1.0
C      1  0.6016340000000  0.4421800000000  0.6553230000000 1.0
C      1  0.4509990000000  0.6544830000000  0.3940200000000 1.0
C      1  0.3588080000000  0.4087100000000  0.5563630000000 1.0
C      1  0.5952350000000  0.5500970000000  0.6465010000000 1.0
C      1  0.4504320000000  0.3538590000000  0.5894490000000 1.0
C      1  0.5564300000000  0.6412980000000  0.5999300000000 1.0
C      1  0.5532770000000  0.3694650000000  0.4170030000000 1.0
C      1  0.3617240000000  0.6030720000000  0.4338230000000 1.0
C      1  0.6473860000000  0.4155600000000  0.4543390000000 1.0
C      1  0.6442370000000  0.5925140000000  0.5570440000000 1.0
C      1  0.5939250000000  0.4554140000000  0.3624650000000 1.0
C      1  0.4136420000000  0.5583160000000  0.3497460000000 1.0
C      1  0.4175480000000  0.4485670000000  0.6416510000000 1.0
C      1  0.5148070000000  0.3580020000000  0.2020640000000 1.0
C      1  0.3616260000000  0.8094310000000  0.4976200000000 1.0
C      1  0.6047830000000  0.2036670000000  0.4964740000000 1.0
C      1  0.4962210000000  0.6074150000000  0.7956990000000 1.0
C      1  0.4932360000000  0.3650700000000  0.8108980000000 1.0
C      1  0.5126220000000  0.6010820000000  0.1967960000000 1.0
C      1  0.3625570000000  0.1968650000000  0.4912060000000 1.0
C      1  0.2044160000000  0.4976120000000  0.3932550000000 1.0
C      1  0.6045640000000  0.8034710000000  0.5057920000000 1.0
C      1  0.1982420000000  0.5097440000000  0.6359630000000 1.0
C      1  0.8038510000000  0.5027140000000  0.6063110000000 1.0
C      1  0.8078270000000  0.5061050000000  0.3636420000000 1.0
END
