TITL C-986976-6631-1189 1.10209186666151e-06 3375 -356.192235508323 0 0 60 (T23) n - 1
REM
REM in /home/bkarasulu/work/CARBON/AIRSS/Generating-Clusters/REBO/Higher-Symm/Only-C60
REM
REM
REM
REM
REM
REM ./C.cell (a2850807a9bf4ad07a5b6933b78d9264)
REM AIRSS Version 0.9.1 bugfix July 2018 build 013d7b7c2542+ Fri, 06 Jul 2018 19:26:36 +0100
REM compiler GCC version 9.2.1 20190827 (Red Hat 9.2.1-1)
REM options -cpp -mtune=generic -march=x86-64 -g -O0 -fpre-include=/usr/include/finclude/math-vector-fortran.h
REM seed 1869224142 594381353 579509861 -860349901 901410547 -776904152 -1615605159 -321416008 -1264324384 -845706702 1232075949 469754039 -53076123 848436642 1353886511 1299182401 44510234 -740990219 -971496125 -5210198 -253792590 -570445304 -229781803 894555099 43362363 -607036403 2121848467 -2019693326 -121780615 336466419 -868612998 -785468402 909676172
REM
CELL 1.54180   15.00000   15.00000   15.00000   90.00000   90.00000   90.00000
LATT -1
SFAC C  
C      1  0.3573700000000  0.4218520000000  0.2845110000000 1.0
C      1  0.2845000000000  0.3573850000000  0.4218530000000 1.0
C      1  0.4218370000000  0.2845110000000  0.3573810000000 1.0
C      1  0.3573870000000  0.5781550000000  0.7154970000000 1.0
C      1  0.6426170000000  0.5781490000000  0.2845030000000 1.0
C      1  0.6426260000000  0.4218440000000  0.7154890000000 1.0
C      1  0.2845130000000  0.6426260000000  0.5781600000000 1.0
C      1  0.7154950000000  0.6426150000000  0.4218410000000 1.0
C      1  0.7154920000000  0.3573730000000  0.5781460000000 1.0
C      1  0.4218570000000  0.7154930000000  0.6426240000000 1.0
C      1  0.5781540000000  0.7154900000000  0.3573770000000 1.0
C      1  0.5781520000000  0.2845060000000  0.6426180000000 1.0
C      1  0.3437180000000  0.2842730000000  0.4191800000000 1.0
C      1  0.2842610000000  0.4191840000000  0.3437340000000 1.0
C      1  0.4191670000000  0.3437320000000  0.2842720000000 1.0
C      1  0.3437350000000  0.7157350000000  0.5808290000000 1.0
C      1  0.6562710000000  0.2842640000000  0.5808190000000 1.0
C      1  0.6562760000000  0.7157270000000  0.4191720000000 1.0
C      1  0.2842760000000  0.5808280000000  0.6562790000000 1.0
C      1  0.7157340000000  0.4191720000000  0.6562660000000 1.0
C      1  0.7157290000000  0.5808170000000  0.3437210000000 1.0
C      1  0.4191880000000  0.6562730000000  0.7157340000000 1.0
C      1  0.5808250000000  0.3437260000000  0.7157280000000 1.0
C      1  0.5808200000000  0.6562690000000  0.2842670000000 1.0
C      1  0.5719920000000  0.7119280000000  0.4903690000000 1.0
C      1  0.4903790000000  0.5719820000000  0.7119290000000 1.0
C      1  0.7119310000000  0.4903650000000  0.5719780000000 1.0
C      1  0.5719830000000  0.2880680000000  0.5096260000000 1.0
C      1  0.4280070000000  0.2880720000000  0.4903730000000 1.0
C      1  0.4280190000000  0.7119320000000  0.5096310000000 1.0
C      1  0.4903620000000  0.4280200000000  0.2880720000000 1.0
C      1  0.5096340000000  0.4280170000000  0.7119280000000 1.0
C      1  0.5096250000000  0.5719820000000  0.2880720000000 1.0
C      1  0.7119270000000  0.5096230000000  0.4280090000000 1.0
C      1  0.2880730000000  0.5096340000000  0.5719900000000 1.0
C      1  0.2880680000000  0.4903770000000  0.4280230000000 1.0
C      1  0.5860700000000  0.5115080000000  0.7059950000000 1.0
C      1  0.5115170000000  0.7059950000000  0.5860600000000 1.0
C      1  0.7059990000000  0.5860560000000  0.5115030000000 1.0
C      1  0.5860570000000  0.4884870000000  0.2940000000000 1.0
C      1  0.4139300000000  0.5115140000000  0.2940050000000 1.0
C      1  0.4139430000000  0.4884910000000  0.7060000000000 1.0
C      1  0.5115010000000  0.2940040000000  0.4139410000000 1.0
C      1  0.4884940000000  0.7059970000000  0.4139410000000 1.0
C      1  0.4884890000000  0.2940040000000  0.5860580000000 1.0
C      1  0.7059940000000  0.4139330000000  0.4884840000000 1.0
C      1  0.2940050000000  0.5860670000000  0.4884970000000 1.0
C      1  0.2940010000000  0.4139440000000  0.5115160000000 1.0
C      1  0.6412210000000  0.4460450000000  0.3773250000000 1.0
C      1  0.3773300000000  0.6412290000000  0.4460530000000 1.0
C      1  0.3587770000000  0.4460520000000  0.6226750000000 1.0
C      1  0.6226660000000  0.3587710000000  0.4460450000000 1.0
C      1  0.6226760000000  0.6412220000000  0.5539480000000 1.0
C      1  0.4460500000000  0.6226710000000  0.3587790000000 1.0
C      1  0.5539560000000  0.6226670000000  0.6412220000000 1.0
C      1  0.6412310000000  0.5539470000000  0.6226670000000 1.0
C      1  0.4460530000000  0.3773320000000  0.6412240000000 1.0
C      1  0.5539410000000  0.3773310000000  0.3587760000000 1.0
C      1  0.3587710000000  0.5539560000000  0.3773330000000 1.0
C      1  0.3773270000000  0.3587780000000  0.5539540000000 1.0
END
