TITL C-986973-6940-667 2.06975128762028e-05 3375 -333.354839447154 0 0 60 (C1) n - 1
REM
REM in /home/bkarasulu/work/CARBON/AIRSS/Generating-Clusters/REBO/Higher-Symm/Only-C60
REM
REM
REM
REM
REM
REM ./C.cell (a2850807a9bf4ad07a5b6933b78d9264)
REM AIRSS Version 0.9.1 bugfix July 2018 build 013d7b7c2542+ Fri, 06 Jul 2018 19:26:36 +0100
REM compiler GCC version 9.2.1 20190827 (Red Hat 9.2.1-1)
REM options -cpp -mtune=generic -march=x86-64 -g -O0 -fpre-include=/usr/include/finclude/math-vector-fortran.h
REM seed 1708137698 1867002639 -1416885233 1361354782 -1011572516 -1268042552 1128559467 723994473 822064871 -161626169 1175131228 1081383865 -2054023739 953108089 1326237140 1161649002 -975920333 1295122503 -1942651257 -396855841 -1952867868 1318110747 124026392 154657566 -853034549 -291710562 202785991 -1069201201 471264543 -1760015068 297717039 2140806907 -1795929917
REM
CELL 1.54180   15.00000   15.00000   15.00000   90.00000   90.00000   90.00000
LATT -1
SFAC C  
C      1  0.5189010000000  0.6621500000000  0.5071400000000 1.0
C      1  0.6178650000000  0.2984730000000  0.4833080000000 1.0
C      1  0.4760580000000  0.3630070000000  0.5572540000000 1.0
C      1  0.6944020000000  0.3982820000000  0.3580690000000 1.0
C      1  0.6105470000000  0.5429740000000  0.7175180000000 1.0
C      1  0.3527990000000  0.6415140000000  0.4568180000000 1.0
C      1  0.5822440000000  0.3278290000000  0.3996340000000 1.0
C      1  0.4406990000000  0.6782760000000  0.4014640000000 1.0
C      1  0.5671410000000  0.4096430000000  0.3209260000000 1.0
C      1  0.2157110000000  0.5575780000000  0.4303240000000 1.0
C      1  0.3488010000000  0.4386500000000  0.4665670000000 1.0
C      1  0.6897860000000  0.3384500000000  0.5525570000000 1.0
C      1  0.5816040000000  0.4364050000000  0.6879500000000 1.0
C      1  0.5556430000000  0.5319590000000  0.5988910000000 1.0
C      1  0.6305890000000  0.6311470000000  0.6451110000000 1.0
C      1  0.4734200000000  0.4618630000000  0.6087820000000 1.0
C      1  0.2756210000000  0.2837880000000  0.2799200000000 1.0
C      1  0.4569350000000  0.6340440000000  0.7362490000000 1.0
C      1  0.4923080000000  0.3674240000000  0.7041270000000 1.0
C      1  0.7364830000000  0.5155380000000  0.5461300000000 1.0
C      1  0.4870640000000  0.3745030000000  0.3919620000000 1.0
C      1  0.5147580000000  0.5946430000000  0.4243620000000 1.0
C      1  0.7455800000000  0.4255680000000  0.5137390000000 1.0
C      1  0.6091820000000  0.5668500000000  0.5211610000000 1.0
C      1  0.4149220000000  0.6926630000000  0.5306820000000 1.0
C      1  0.5998850000000  0.5286910000000  0.4189830000000 1.0
C      1  0.6699720000000  0.5120560000000  0.6254750000000 1.0
C      1  0.3842570000000  0.4962840000000  0.3518460000000 1.0
C      1  0.4836870000000  0.7604600000000  0.4682570000000 1.0
C      1  0.5138200000000  0.5647760000000  0.2784600000000 1.0
C      1  0.4473050000000  0.4171380000000  0.4718340000000 1.0
C      1  0.2954050000000  0.3536010000000  0.4253950000000 1.0
C      1  0.3849640000000  0.4018410000000  0.3049350000000 1.0
C      1  0.5332120000000  0.5837660000000  0.7781240000000 1.0
C      1  0.7059650000000  0.5917240000000  0.4687930000000 1.0
C      1  0.3270670000000  0.5348480000000  0.4271320000000 1.0
C      1  0.5917360000000  0.7466090000000  0.5025230000000 1.0
C      1  0.2894260000000  0.3760030000000  0.5343930000000 1.0
C      1  0.4869240000000  0.5129490000000  0.4868250000000 1.0
C      1  0.5793620000000  0.3244790000000  0.6607210000000 1.0
C      1  0.4219500000000  0.6527900000000  0.6296160000000 1.0
C      1  0.6847000000000  0.5610760000000  0.3615470000000 1.0
C      1  0.4773600000000  0.4686400000000  0.2987890000000 1.0
C      1  0.5611240000000  0.3067130000000  0.5661300000000 1.0
C      1  0.2547130000000  0.6248720000000  0.4922860000000 1.0
C      1  0.6542600000000  0.4713980000000  0.2952700000000 1.0
C      1  0.3168630000000  0.3430030000000  0.3345310000000 1.0
C      1  0.3674710000000  0.4724540000000  0.6455150000000 1.0
C      1  0.6265550000000  0.4212170000000  0.5837470000000 1.0
C      1  0.3204670000000  0.3834520000000  0.6246280000000 1.0
C      1  0.4140590000000  0.3485920000000  0.6458190000000 1.0
C      1  0.5240860000000  0.6182400000000  0.6498790000000 1.0
C      1  0.4656480000000  0.6355530000000  0.3073840000000 1.0
C      1  0.5767940000000  0.4423050000000  0.4890030000000 1.0
C      1  0.6550560000000  0.6658480000000  0.5398180000000 1.0
C      1  0.6086470000000  0.5686430000000  0.2773110000000 1.0
C      1  0.6746720000000  0.4124130000000  0.4442130000000 1.0
C      1  0.3282480000000  0.5591700000000  0.6184250000000 1.0
C      1  0.2557490000000  0.6064580000000  0.5850220000000 1.0
C      1  0.4295270000000  0.5587220000000  0.5667280000000 1.0
END
