TITL C-986974-580-785 0.0272379605373807 3375 -333.455913633658 0 0 60 (C1) n - 1
REM
REM in /home/bkarasulu/work/CARBON/AIRSS/Generating-Clusters/REBO/Higher-Symm/Only-C60
REM
REM
REM
REM
REM
REM ./C.cell (a2850807a9bf4ad07a5b6933b78d9264)
REM AIRSS Version 0.9.1 bugfix July 2018 build 013d7b7c2542+ Fri, 06 Jul 2018 19:26:36 +0100
REM compiler GCC version 9.2.1 20190827 (Red Hat 9.2.1-1)
REM options -cpp -mtune=generic -march=x86-64 -g -O0 -fpre-include=/usr/include/finclude/math-vector-fortran.h
REM seed 991654001 -2126563906 488343906 1010458456 -712946903 1575813134 -53406290 -1396067473 -349473624 -1699460456 -1868439384 -1178518326 -1351059381 1097747568 -1861239528 544431834 1304174028 318280736 185647909 -1151865261 1426494673 1832304466 -1104458746 -2091335459 2106527078 736810181 44897660 180832056 -1853543159 -220950046 -478179676 435353060 2110792727
REM
CELL 1.54180   15.00000   15.00000   15.00000   90.00000   90.00000   90.00000
LATT -1
SFAC C  
C      1  0.5907430000000  0.4584720000000  0.4479690000000 1.0
C      1  0.5891300000000  0.5411680000000  0.5514660000000 1.0
C      1  0.6004010000000  0.4343070000000  0.5498010000000 1.0
C      1  0.6018770000000  0.5659030000000  0.4501500000000 1.0
C      1  0.4435340000000  0.4574590000000  0.7256970000000 1.0
C      1  0.4433370000000  0.5430730000000  0.2752900000000 1.0
C      1  0.4482080000000  0.4538160000000  0.2763550000000 1.0
C      1  0.4479840000000  0.5467350000000  0.7240030000000 1.0
C      1  0.6952420000000  0.4367400000000  0.6432420000000 1.0
C      1  0.6964140000000  0.5629850000000  0.3566320000000 1.0
C      1  0.6850020000000  0.4649620000000  0.3548520000000 1.0
C      1  0.6836060000000  0.5347460000000  0.6444390000000 1.0
C      1  0.6171500000000  0.3044080000000  0.5628880000000 1.0
C      1  0.6178380000000  0.6957550000000  0.4364160000000 1.0
C      1  0.6221990000000  0.3302190000000  0.4582850000000 1.0
C      1  0.6215290000000  0.6692730000000  0.5405670000000 1.0
C      1  0.3123470000000  0.5485100000000  0.4550240000000 1.0
C      1  0.3115420000000  0.4513150000000  0.5457460000000 1.0
C      1  0.3058960000000  0.5534810000000  0.5680500000000 1.0
C      1  0.3066650000000  0.4463540000000  0.4325670000000 1.0
C      1  0.4889820000000  0.7740190000000  0.5376800000000 1.0
C      1  0.4898340000000  0.2272320000000  0.4627410000000 1.0
C      1  0.4867020000000  0.7744490000000  0.4551000000000 1.0
C      1  0.4870820000000  0.2271260000000  0.5452330000000 1.0
C      1  0.5674320000000  0.3491050000000  0.3756730000000 1.0
C      1  0.5664990000000  0.6507950000000  0.6235220000000 1.0
C      1  0.5591060000000  0.3450950000000  0.6378110000000 1.0
C      1  0.5595140000000  0.6545320000000  0.3620740000000 1.0
C      1  0.4730530000000  0.7038440000000  0.6197980000000 1.0
C      1  0.4730500000000  0.2968800000000  0.3804200000000 1.0
C      1  0.4625950000000  0.7014870000000  0.3768810000000 1.0
C      1  0.4620300000000  0.2990310000000  0.6241340000000 1.0
C      1  0.6946630000000  0.5872720000000  0.5521360000000 1.0
C      1  0.6960510000000  0.4119250000000  0.4469570000000 1.0
C      1  0.7001550000000  0.6207090000000  0.4447500000000 1.0
C      1  0.6993720000000  0.3794120000000  0.5549280000000 1.0
C      1  0.4576160000000  0.6308590000000  0.6971350000000 1.0
C      1  0.4578560000000  0.3695910000000  0.3029910000000 1.0
C      1  0.4445730000000  0.6283220000000  0.3005750000000 1.0
C      1  0.4448800000000  0.3722490000000  0.7003030000000 1.0
C      1  0.5928460000000  0.4445810000000  0.6808990000000 1.0
C      1  0.5941120000000  0.5550990000000  0.3191710000000 1.0
C      1  0.5902700000000  0.4402380000000  0.3177570000000 1.0
C      1  0.5890280000000  0.5595290000000  0.6818850000000 1.0
C      1  0.4084830000000  0.4017400000000  0.4548680000000 1.0
C      1  0.4068180000000  0.5980050000000  0.5429220000000 1.0
C      1  0.4165730000000  0.4079380000000  0.5626050000000 1.0
C      1  0.4171260000000  0.5910980000000  0.4357180000000 1.0
C      1  0.4976710000000  0.4535510000000  0.5889600000000 1.0
C      1  0.4990980000000  0.5461860000000  0.4108380000000 1.0
C      1  0.4887130000000  0.4457770000000  0.4157060000000 1.0
C      1  0.4869400000000  0.5542520000000  0.5833620000000 1.0
C      1  0.2963660000000  0.6437720000000  0.4214560000000 1.0
C      1  0.2956700000000  0.3563290000000  0.5798420000000 1.0
C      1  0.2996580000000  0.6499440000000  0.6014720000000 1.0
C      1  0.2994310000000  0.3497810000000  0.3999040000000 1.0
C      1  0.3781410000000  0.6977630000000  0.4525750000000 1.0
C      1  0.3768060000000  0.3012150000000  0.5488740000000 1.0
C      1  0.3774060000000  0.7059850000000  0.5621370000000 1.0
C      1  0.3771550000000  0.2936030000000  0.4387730000000 1.0
END
