TITL C-986979-5873-782 6.79942926179519e-06 3375 -360.106174802321 0 0 60 (D2) n - 1
REM
REM in /home/bkarasulu/work/CARBON/AIRSS/Generating-Clusters/REBO/Higher-Symm/Only-C60
REM
REM
REM
REM
REM
REM ./C.cell (a2850807a9bf4ad07a5b6933b78d9264)
REM AIRSS Version 0.9.1 bugfix July 2018 build 013d7b7c2542+ Fri, 06 Jul 2018 19:26:36 +0100
REM compiler GCC version 9.2.1 20190827 (Red Hat 9.2.1-1)
REM options -cpp -mtune=generic -march=x86-64 -g -O0 -fpre-include=/usr/include/finclude/math-vector-fortran.h
REM seed 1037270016 1812958772 -735501881 -1896382115 2016224792 536465396 -372082033 1584111005 -1790151424 1755264688 -983603975 1001672182 1439591361 765281356 1257939909 -1451382662 -1851882828 -87832775 -176825969 -1620512148 814384742 704930462 -274372990 1686766464 1262123590 2096620870 592940037 1438280584 -624989473 -2011348256 -1343366067 234634447 538323204
REM
CELL 1.54180   15.00000   15.00000   15.00000   90.00000   90.00000   90.00000
LATT -1
SFAC C  
C      1  0.3842310000000  0.4559980000000  0.4500720000000 1.0
C      1  0.3827250000000  0.4345830000000  0.5589240000000 1.0
C      1  0.3842340000000  0.5440030000000  0.5499320000000 1.0
C      1  0.3827240000000  0.5654170000000  0.4410810000000 1.0
C      1  0.6201760000000  0.4410770000000  0.5654140000000 1.0
C      1  0.6186660000000  0.4500700000000  0.4559940000000 1.0
C      1  0.6201740000000  0.5589220000000  0.4345820000000 1.0
C      1  0.6186680000000  0.5499290000000  0.5440010000000 1.0
C      1  0.5625610000000  0.2901480000000  0.6143980000000 1.0
C      1  0.5629290000000  0.5998670000000  0.6964860000000 1.0
C      1  0.5625580000000  0.7098510000000  0.3856000000000 1.0
C      1  0.5629210000000  0.4001320000000  0.3035120000000 1.0
C      1  0.4399710000000  0.3035150000000  0.4001300000000 1.0
C      1  0.4403360000000  0.6144040000000  0.2901520000000 1.0
C      1  0.4399770000000  0.6964850000000  0.5998730000000 1.0
C      1  0.4403430000000  0.3855970000000  0.7098500000000 1.0
C      1  0.6486850000000  0.4219330000000  0.3558850000000 1.0
C      1  0.6474020000000  0.3437970000000  0.5957860000000 1.0
C      1  0.6486910000000  0.5780660000000  0.6441090000000 1.0
C      1  0.6474000000000  0.6562010000000  0.4042090000000 1.0
C      1  0.3555010000000  0.4042090000000  0.6562030000000 1.0
C      1  0.3542090000000  0.3558900000000  0.4219330000000 1.0
C      1  0.3554960000000  0.5957930000000  0.3438030000000 1.0
C      1  0.3542130000000  0.6441110000000  0.5780720000000 1.0
C      1  0.3095830000000  0.5786110000000  0.6544360000000 1.0
C      1  0.3048280000000  0.6685340000000  0.4097160000000 1.0
C      1  0.3095760000000  0.4213900000000  0.3455710000000 1.0
C      1  0.3048310000000  0.3314680000000  0.5902920000000 1.0
C      1  0.6980670000000  0.5902910000000  0.3314650000000 1.0
C      1  0.6933210000000  0.6544300000000  0.5786100000000 1.0
C      1  0.6980720000000  0.4097080000000  0.6685280000000 1.0
C      1  0.6933170000000  0.3455680000000  0.4213830000000 1.0
C      1  0.6918160000000  0.3233140000000  0.5009520000000 1.0
C      1  0.6967950000000  0.4921050000000  0.6797240000000 1.0
C      1  0.6918180000000  0.6766840000000  0.4990410000000 1.0
C      1  0.6967880000000  0.5078930000000  0.3202690000000 1.0
C      1  0.3061070000000  0.3202730000000  0.5078940000000 1.0
C      1  0.3110790000000  0.5009600000000  0.3233190000000 1.0
C      1  0.3061080000000  0.6797280000000  0.4921130000000 1.0
C      1  0.3110850000000  0.4990420000000  0.6766880000000 1.0
C      1  0.5279200000000  0.5322580000000  0.7511400000000 1.0
C      1  0.5258330000000  0.7567310000000  0.4580930000000 1.0
C      1  0.5279110000000  0.4677420000000  0.2488590000000 1.0
C      1  0.5258330000000  0.2432690000000  0.5419060000000 1.0
C      1  0.4770620000000  0.5419120000000  0.2432700000000 1.0
C      1  0.4749850000000  0.7511400000000  0.5322640000000 1.0
C      1  0.4770710000000  0.4580880000000  0.7567310000000 1.0
C      1  0.4749820000000  0.2488600000000  0.4677370000000 1.0
C      1  0.4656460000000  0.6207100000000  0.4780000000000 1.0
C      1  0.4690030000000  0.4789400000000  0.3888200000000 1.0
C      1  0.4656460000000  0.3792900000000  0.5220010000000 1.0
C      1  0.4690070000000  0.5210600000000  0.6111810000000 1.0
C      1  0.5338950000000  0.6111800000000  0.5210610000000 1.0
C      1  0.5372550000000  0.4779970000000  0.6207090000000 1.0
C      1  0.5338930000000  0.3888200000000  0.4789370000000 1.0
C      1  0.5372510000000  0.5220020000000  0.3792900000000 1.0
C      1  0.5014520000000  0.3215480000000  0.6784490000000 1.0
C      1  0.5014470000000  0.6784520000000  0.3215510000000 1.0
C      1  0.5014460000000  0.3387840000000  0.3387800000000 1.0
C      1  0.5014530000000  0.6612160000000  0.6612200000000 1.0
END
