TITL C-986979-5873-417 -0.00603600860821058 3375 -359.640559171515 0 0 60 (C3) n - 1
REM
REM in /home/bkarasulu/work/CARBON/AIRSS/Generating-Clusters/REBO/Higher-Symm/Only-C60
REM
REM
REM
REM
REM
REM ./C.cell (a2850807a9bf4ad07a5b6933b78d9264)
REM AIRSS Version 0.9.1 bugfix July 2018 build 013d7b7c2542+ Fri, 06 Jul 2018 19:26:36 +0100
REM compiler GCC version 9.2.1 20190827 (Red Hat 9.2.1-1)
REM options -cpp -mtune=generic -march=x86-64 -g -O0 -fpre-include=/usr/include/finclude/math-vector-fortran.h
REM seed 1710553905 969442182 777485783 1542955774 1178093567 927026909 476415664 1689777364 -709541808 -1120028626 569051635 1452620942 -558909615 -1334456340 -966025352 2027124624 35501538 520440105 -170260760 391487088 1895200466 -1268635537 249969566 -820904221 -1067476989 -1971471135 1126412878 1878854560 -1217661175 430090674 -2096420529 -237290214 -1816486020
REM
CELL 1.54180   15.00000   15.00000   15.00000   90.00000   90.00000   90.00000
LATT -1
SFAC C  
C      1  0.4045670000000  0.6822370000000  0.5893330000000 1.0
C      1  0.4047200000000  0.3317200000000  0.6130440000000 1.0
C      1  0.4046760000000  0.4862470000000  0.2978670000000 1.0
C      1  0.5548990000000  0.7056150000000  0.2778470000000 1.0
C      1  0.5548970000000  0.5896800000000  0.7890360000000 1.0
C      1  0.5548900000000  0.2048780000000  0.4330730000000 1.0
C      1  0.6301150000000  0.2492370000000  0.4076720000000 1.0
C      1  0.6300880000000  0.7054320000000  0.3290250000000 1.0
C      1  0.6300660000000  0.5453710000000  0.7633710000000 1.0
C      1  0.5888710000000  0.4619500000000  0.6317640000000 1.0
C      1  0.5888300000000  0.4048720000000  0.4011830000000 1.0
C      1  0.5890660000000  0.6330590000000  0.4671490000000 1.0
C      1  0.6422160000000  0.7216640000000  0.5880210000000 1.0
C      1  0.6422970000000  0.3128420000000  0.6480100000000 1.0
C      1  0.6423460000000  0.4654220000000  0.2639380000000 1.0
C      1  0.3324920000000  0.6546670000000  0.5332460000000 1.0
C      1  0.3324560000000  0.3938940000000  0.6171570000000 1.0
C      1  0.3324780000000  0.4515280000000  0.3495150000000 1.0
C      1  0.4200260000000  0.6113760000000  0.6619480000000 1.0
C      1  0.4199380000000  0.3040930000000  0.5154220000000 1.0
C      1  0.4197220000000  0.5845770000000  0.3226340000000 1.0
C      1  0.5685180000000  0.4298330000000  0.3102630000000 1.0
C      1  0.5684940000000  0.6993880000000  0.5340050000000 1.0
C      1  0.5685240000000  0.3707870000000  0.6555370000000 1.0
C      1  0.5278790000000  0.5549290000000  0.4672450000000 1.0
C      1  0.5277200000000  0.5008490000000  0.5639970000000 1.0
C      1  0.5279600000000  0.4442150000000  0.4689050000000 1.0
C      1  0.6534930000000  0.5169100000000  0.6761500000000 1.0
C      1  0.6534640000000  0.3389910000000  0.4266120000000 1.0
C      1  0.6535710000000  0.6441270000000  0.3972530000000 1.0
C      1  0.2953140000000  0.6712510000000  0.4418310000000 1.0
C      1  0.2953280000000  0.4646550000000  0.6773910000000 1.0
C      1  0.2952610000000  0.3638190000000  0.3803620000000 1.0
C      1  0.7085430000000  0.5157170000000  0.3011990000000 1.0
C      1  0.7084500000000  0.6643460000000  0.6129940000000 1.0
C      1  0.7084630000000  0.3199950000000  0.5858180000000 1.0
C      1  0.4747240000000  0.4199930000000  0.2825300000000 1.0
C      1  0.4747140000000  0.7282700000000  0.5393510000000 1.0
C      1  0.4747830000000  0.3517480000000  0.6780570000000 1.0
C      1  0.4372600000000  0.5769990000000  0.4277420000000 1.0
C      1  0.4372400000000  0.5239860000000  0.6029950000000 1.0
C      1  0.4374250000000  0.3989110000000  0.4694800000000 1.0
C      1  0.7121030000000  0.3486350000000  0.4997570000000 1.0
C      1  0.7120850000000  0.5757830000000  0.3691760000000 1.0
C      1  0.7120880000000  0.5754720000000  0.6311740000000 1.0
C      1  0.3555300000000  0.5632950000000  0.4907050000000 1.0
C      1  0.3555350000000  0.4764900000000  0.5594690000000 1.0
C      1  0.3556500000000  0.4602500000000  0.4498940000000 1.0
C      1  0.4463770000000  0.3990190000000  0.7571200000000 1.0
C      1  0.4464130000000  0.3278280000000  0.2839800000000 1.0
C      1  0.4463350000000  0.7730650000000  0.4589150000000 1.0
C      1  0.3559670000000  0.6664230000000  0.3697110000000 1.0
C      1  0.3560020000000  0.5296880000000  0.7090690000000 1.0
C      1  0.3557790000000  0.3039010000000  0.4211590000000 1.0
C      1  0.4678530000000  0.2362870000000  0.4408120000000 1.0
C      1  0.4678350000000  0.6831040000000  0.3010520000000 1.0
C      1  0.4678280000000  0.5806190000000  0.7580460000000 1.0
C      1  0.4232220000000  0.4889380000000  0.7743040000000 1.0
C      1  0.4232850000000  0.2679710000000  0.3532970000000 1.0
C      1  0.4233300000000  0.7431550000000  0.3723860000000 1.0
END
