TITL C-986979-5873-1108 -0.000607138010089262 3375 -325.810591031265 0 0 60 (S4) n - 1
REM
REM in /home/bkarasulu/work/CARBON/AIRSS/Generating-Clusters/REBO/Higher-Symm/Only-C60
REM
REM
REM
REM
REM
REM ./C.cell (a2850807a9bf4ad07a5b6933b78d9264)
REM AIRSS Version 0.9.1 bugfix July 2018 build 013d7b7c2542+ Fri, 06 Jul 2018 19:26:36 +0100
REM compiler GCC version 9.2.1 20190827 (Red Hat 9.2.1-1)
REM options -cpp -mtune=generic -march=x86-64 -g -O0 -fpre-include=/usr/include/finclude/math-vector-fortran.h
REM seed -267179111 -891848161 1673382410 -1915152907 480547789 -1197216352 -1337981893 1428486797 1382560727 1721187359 1895581176 -2011792097 -1343307658 -1796374351 1130846399 -518232617 -1691950248 115588921 741732075 1333477619 764827029 -1505866052 1910936568 1211520626 -1594089075 -1083956533 -312095315 -1126254661 855557916 265034793 -1045934776 1780531625 -935379861
REM
CELL 1.54180   15.00000   15.00000   15.00000   90.00000   90.00000   90.00000
LATT -1
SFAC C  
C      1  0.6336250000000  0.4579930000000  0.2704070000000 1.0
C      1  0.2704130000000  0.5420020000000  0.3663800000000 1.0
C      1  0.3663770000000  0.4579970000000  0.7295880000000 1.0
C      1  0.7295890000000  0.5420060000000  0.6336270000000 1.0
C      1  0.5006340000000  0.5811470000000  0.4455010000000 1.0
C      1  0.4455020000000  0.4188540000000  0.4993710000000 1.0
C      1  0.4993700000000  0.5811350000000  0.5544980000000 1.0
C      1  0.5545020000000  0.4188650000000  0.5006340000000 1.0
C      1  0.2842200000000  0.5604400000000  0.5454870000000 1.0
C      1  0.5454880000000  0.4395640000000  0.7157800000000 1.0
C      1  0.7157810000000  0.5604380000000  0.4545110000000 1.0
C      1  0.4545080000000  0.4395590000000  0.2842160000000 1.0
C      1  0.5150760000000  0.5481810000000  0.7183330000000 1.0
C      1  0.7183290000000  0.4518210000000  0.4849260000000 1.0
C      1  0.4849260000000  0.5481800000000  0.2816670000000 1.0
C      1  0.2816680000000  0.4518240000000  0.5150730000000 1.0
C      1  0.5228540000000  0.4133930000000  0.3942320000000 1.0
C      1  0.3942320000000  0.5865990000000  0.4771430000000 1.0
C      1  0.4771390000000  0.4134020000000  0.6057690000000 1.0
C      1  0.6057710000000  0.5866050000000  0.5228580000000 1.0
C      1  0.6008950000000  0.5201260000000  0.6567510000000 1.0
C      1  0.6567540000000  0.4798760000000  0.3991050000000 1.0
C      1  0.3991080000000  0.5201220000000  0.3432510000000 1.0
C      1  0.3432510000000  0.4798730000000  0.6008910000000 1.0
C      1  0.4294200000000  0.3336930000000  0.4278840000000 1.0
C      1  0.4278900000000  0.6662960000000  0.5705780000000 1.0
C      1  0.5705740000000  0.3337050000000  0.5721100000000 1.0
C      1  0.5721130000000  0.6663020000000  0.4294230000000 1.0
C      1  0.5486040000000  0.3875860000000  0.2890550000000 1.0
C      1  0.2890520000000  0.6124180000000  0.4514000000000 1.0
C      1  0.4513970000000  0.3875840000000  0.7109480000000 1.0
C      1  0.7109490000000  0.6124160000000  0.5486040000000 1.0
C      1  0.3842660000000  0.3883790000000  0.3473090000000 1.0
C      1  0.3473070000000  0.6116180000000  0.6157290000000 1.0
C      1  0.6157290000000  0.3883820000000  0.6526860000000 1.0
C      1  0.6526900000000  0.6116250000000  0.3842710000000 1.0
C      1  0.5310780000000  0.6347460000000  0.3277560000000 1.0
C      1  0.3277540000000  0.3652570000000  0.4689190000000 1.0
C      1  0.4689210000000  0.6347380000000  0.6722470000000 1.0
C      1  0.6722460000000  0.3652560000000  0.5310790000000 1.0
C      1  0.5471120000000  0.7072630000000  0.5290180000000 1.0
C      1  0.5290170000000  0.2927390000000  0.4528860000000 1.0
C      1  0.4528870000000  0.7072660000000  0.4709770000000 1.0
C      1  0.4709770000000  0.2927330000000  0.5471110000000 1.0
C      1  0.4469350000000  0.5168150000000  0.6081360000000 1.0
C      1  0.6081340000000  0.4831960000000  0.5530700000000 1.0
C      1  0.5530720000000  0.5168090000000  0.3918680000000 1.0
C      1  0.3918660000000  0.4831830000000  0.4469340000000 1.0
C      1  0.6469160000000  0.6202010000000  0.6430090000000 1.0
C      1  0.6430080000000  0.3798020000000  0.3530850000000 1.0
C      1  0.3530850000000  0.6201940000000  0.3569940000000 1.0
C      1  0.3569930000000  0.3798000000000  0.6469180000000 1.0
C      1  0.6209090000000  0.3214170000000  0.4399040000000 1.0
C      1  0.4399020000000  0.6785850000000  0.3790850000000 1.0
C      1  0.3790860000000  0.3214190000000  0.5600950000000 1.0
C      1  0.5600970000000  0.6785830000000  0.6209140000000 1.0
C      1  0.3896580000000  0.5557460000000  0.6999730000000 1.0
C      1  0.6999740000000  0.4442480000000  0.6103430000000 1.0
C      1  0.6103430000000  0.5557470000000  0.3000260000000 1.0
C      1  0.3000260000000  0.4442510000000  0.3896560000000 1.0
END
