TITL C-986979-5873-9 -5.13752430901621e-06 3375 -334.680807803985 0 0 60 (C1) n - 1
REM
REM in /home/bkarasulu/work/CARBON/AIRSS/Generating-Clusters/REBO/Higher-Symm/Only-C60
REM
REM
REM
REM
REM
REM ./C.cell (a2850807a9bf4ad07a5b6933b78d9264)
REM AIRSS Version 0.9.1 bugfix July 2018 build 013d7b7c2542+ Fri, 06 Jul 2018 19:26:36 +0100
REM compiler GCC version 9.2.1 20190827 (Red Hat 9.2.1-1)
REM options -cpp -mtune=generic -march=x86-64 -g -O0 -fpre-include=/usr/include/finclude/math-vector-fortran.h
REM seed 75997038 -1019474132 -816211818 2123190150 -1393986898 1104114580 -1371171042 -1920305917 -377725499 1521098031 1527279273 347378407 -62118778 -1866894401 1460037278 -1972896559 -1138137360 -407218869 -1429413666 813863040 -167250507 976489408 -17834917 -1886542720 -50917757 -1225707069 -1858553494 -672023282 799346802 2027583665 -636644162 -796933611 1638760516
REM
CELL 1.54180   15.00000   15.00000   15.00000   90.00000   90.00000   90.00000
LATT -1
SFAC C  
C      1  0.3062810000000  0.4645280000000  0.4003000000000 1.0
C      1  0.7132540000000  0.4494400000000  0.6030400000000 1.0
C      1  0.4836290000000  0.3575290000000  0.3823840000000 1.0
C      1  0.5194520000000  0.3521190000000  0.5976360000000 1.0
C      1  0.5744940000000  0.4812240000000  0.7012820000000 1.0
C      1  0.4198220000000  0.4892380000000  0.2796280000000 1.0
C      1  0.4204880000000  0.3140550000000  0.5650970000000 1.0
C      1  0.5811350000000  0.3136480000000  0.4163030000000 1.0
C      1  0.5612080000000  0.5256140000000  0.5764170000000 1.0
C      1  0.4634050000000  0.5436280000000  0.4240680000000 1.0
C      1  0.6683200000000  0.5272040000000  0.5526050000000 1.0
C      1  0.3512090000000  0.5427590000000  0.4403240000000 1.0
C      1  0.5578550000000  0.1895100000000  0.5659620000000 1.0
C      1  0.4288950000000  0.2035280000000  0.4054690000000 1.0
C      1  0.3507290000000  0.6612880000000  0.5606990000000 1.0
C      1  0.6631280000000  0.6545260000000  0.4484250000000 1.0
C      1  0.3229110000000  0.6528430000000  0.4523290000000 1.0
C      1  0.6879670000000  0.6357500000000  0.5561790000000 1.0
C      1  0.3380230000000  0.4386720000000  0.3020020000000 1.0
C      1  0.6565260000000  0.4321380000000  0.6938490000000 1.0
C      1  0.5583730000000  0.6624330000000  0.4384470000000 1.0
C      1  0.4522890000000  0.6785810000000  0.5730340000000 1.0
C      1  0.4838790000000  0.6279260000000  0.6454540000000 1.0
C      1  0.5176290000000  0.6332200000000  0.3416970000000 1.0
C      1  0.4026470000000  0.3977460000000  0.6416090000000 1.0
C      1  0.6027160000000  0.4060860000000  0.3521880000000 1.0
C      1  0.3172370000000  0.5546560000000  0.5402690000000 1.0
C      1  0.7077630000000  0.5501670000000  0.4570780000000 1.0
C      1  0.6795060000000  0.4888820000000  0.3647310000000 1.0
C      1  0.3244350000000  0.4805090000000  0.6276680000000 1.0
C      1  0.6533940000000  0.6548320000000  0.6426990000000 1.0
C      1  0.3421880000000  0.6447360000000  0.3551660000000 1.0
C      1  0.3322580000000  0.3062730000000  0.5296990000000 1.0
C      1  0.6667970000000  0.3108600000000  0.4605730000000 1.0
C      1  0.5056350000000  0.4332920000000  0.3056190000000 1.0
C      1  0.5017730000000  0.4255580000000  0.6771410000000 1.0
C      1  0.6754460000000  0.3884740000000  0.5193880000000 1.0
C      1  0.3093900000000  0.3818750000000  0.4701410000000 1.0
C      1  0.5784490000000  0.5507810000000  0.4250060000000 1.0
C      1  0.4483930000000  0.5114230000000  0.5913390000000 1.0
C      1  0.5463440000000  0.5303240000000  0.3208860000000 1.0
C      1  0.4126220000000  0.5654810000000  0.6758930000000 1.0
C      1  0.7012090000000  0.5999790000000  0.3561140000000 1.0
C      1  0.3137990000000  0.5931480000000  0.6451530000000 1.0
C      1  0.6515460000000  0.3481630000000  0.6195880000000 1.0
C      1  0.3304000000000  0.3506260000000  0.3674640000000 1.0
C      1  0.4095940000000  0.2878160000000  0.3720620000000 1.0
C      1  0.5845550000000  0.2677900000000  0.6060630000000 1.0
C      1  0.3766970000000  0.4368370000000  0.5386290000000 1.0
C      1  0.6214880000000  0.4499850000000  0.4550870000000 1.0
C      1  0.4211980000000  0.5825590000000  0.3286700000000 1.0
C      1  0.5768590000000  0.5886130000000  0.6676760000000 1.0
C      1  0.4675700000000  0.9764830000000  0.4435450000000 1.0
C      1  0.4784470000000  0.8918160000000  0.4621080000000 1.0
C      1  0.5010680000000  0.7157610000000  0.5007210000000 1.0
C      1  0.5012990000000  0.3892540000000  0.4907220000000 1.0
C      1  0.4951990000000  0.4833950000000  0.5012430000000 1.0
C      1  0.4988420000000  0.2798680000000  0.4886220000000 1.0
C      1  0.4895000000000  0.8057810000000  0.4809720000000 1.0
C      1  0.4928710000000  0.1735470000000  0.4840860000000 1.0
END
