TITL C-986976-6631-388 -2.74110848186658e-05 3375 -360.776416552663 0 0 60 (C6) n - 1
REM
REM in /home/bkarasulu/work/CARBON/AIRSS/Generating-Clusters/REBO/Higher-Symm/Only-C60
REM
REM
REM
REM
REM
REM ./C.cell (a2850807a9bf4ad07a5b6933b78d9264)
REM AIRSS Version 0.9.1 bugfix July 2018 build 013d7b7c2542+ Fri, 06 Jul 2018 19:26:36 +0100
REM compiler GCC version 9.2.1 20190827 (Red Hat 9.2.1-1)
REM options -cpp -mtune=generic -march=x86-64 -g -O0 -fpre-include=/usr/include/finclude/math-vector-fortran.h
REM seed -1370699821 -804922636 -334100161 87620205 1117473937 961942473 405573599 1789721324 -440196676 -716917610 797802987 1370584204 1284159429 1976516932 437095648 166472967 678547399 -165438817 572171150 -723885291 -1616616422 -457885924 -1573879306 -1878204028 1178545639 614892226 -1835313175 -1354852352 1129388196 730446362 -163552535 126642629 -658026712
REM
CELL 1.54180   15.00000   15.00000   15.00000   90.00000   90.00000   90.00000
LATT -1
SFAC C  
C      1  0.4320500000000  0.6784330000000  0.4674070000000 1.0
C      1  0.6205520000000  0.6480630000000  0.4674070000000 1.0
C      1  0.6885020000000  0.4696300000000  0.4674070000000 1.0
C      1  0.5679500000000  0.3215670000000  0.4674070000000 1.0
C      1  0.3794480000000  0.3519370000000  0.4674070000000 1.0
C      1  0.3114980000000  0.5303700000000  0.4674070000000 1.0
C      1  0.6604990000000  0.4003940000000  0.3235030000000 1.0
C      1  0.4939880000000  0.3112010000000  0.3235030000000 1.0
C      1  0.3334890000000  0.4108070000000  0.3235030000000 1.0
C      1  0.3395010000000  0.5996060000000  0.3235030000000 1.0
C      1  0.5060120000000  0.6887990000000  0.3235030000000 1.0
C      1  0.6665110000000  0.5891930000000  0.3235030000000 1.0
C      1  0.7202570000000  0.4924820000000  0.5720630000000 1.0
C      1  0.6036170000000  0.3054930000000  0.5720620000000 1.0
C      1  0.3833600000000  0.3130110000000  0.5720620000000 1.0
C      1  0.2797430000000  0.5075180000000  0.5720620000000 1.0
C      1  0.3963830000000  0.6945070000000  0.5720620000000 1.0
C      1  0.6166400000000  0.6869890000000  0.5720620000000 1.0
C      1  0.4420650000000  0.4304070000000  0.4598960000000 1.0
C      1  0.4107630000000  0.5153770000000  0.4598960000000 1.0
C      1  0.4686990000000  0.5849700000000  0.4598960000000 1.0
C      1  0.5579350000000  0.5695930000000  0.4598960000000 1.0
C      1  0.5892370000000  0.4846230000000  0.4598960000000 1.0
C      1  0.5313010000000  0.4150300000000  0.4598960000000 1.0
C      1  0.5035300000000  0.6095070000000  0.6472310000000 1.0
C      1  0.5966010000000  0.5516960000000  0.6472310000000 1.0
C      1  0.5930700000000  0.4421890000000  0.6472310000000 1.0
C      1  0.4964690000000  0.3904930000000  0.6472310000000 1.0
C      1  0.4033990000000  0.4483040000000  0.6472310000000 1.0
C      1  0.4069300000000  0.5578110000000  0.6472310000000 1.0
C      1  0.4481460000000  0.2681860000000  0.4899590000000 1.0
C      1  0.2733160000000  0.4290000000000  0.4899590000000 1.0
C      1  0.3251700000000  0.6608140000000  0.4899590000000 1.0
C      1  0.5518540000000  0.7318140000000  0.4899590000000 1.0
C      1  0.7266830000000  0.5710000000000  0.4899590000000 1.0
C      1  0.6748300000000  0.3391860000000  0.4899590000000 1.0
C      1  0.4342490000000  0.5768690000000  0.7558020000000 1.0
C      1  0.5336950000000  0.5953770000000  0.7558020000000 1.0
C      1  0.5994460000000  0.5185080000000  0.7558020000000 1.0
C      1  0.5657510000000  0.4231310000000  0.7558020000000 1.0
C      1  0.4663050000000  0.4046230000000  0.7558020000000 1.0
C      1  0.4005540000000  0.4814920000000  0.7558020000000 1.0
C      1  0.4180300000000  0.5514700000000  0.2961030000000 1.0
C      1  0.5035890000000  0.5967230000000  0.2961030000000 1.0
C      1  0.5855600000000  0.5452530000000  0.2961030000000 1.0
C      1  0.5819700000000  0.4485300000000  0.2961030000000 1.0
C      1  0.4964110000000  0.4032770000000  0.2961030000000 1.0
C      1  0.4144410000000  0.4547470000000  0.2961030000000 1.0
C      1  0.2936550000000  0.6083470000000  0.4019650000000 1.0
C      1  0.4906580000000  0.7328740000000  0.4019650000000 1.0
C      1  0.6970040000000  0.6245270000000  0.4019650000000 1.0
C      1  0.7063450000000  0.3916530000000  0.4019650000000 1.0
C      1  0.5093420000000  0.2671260000000  0.4019650000000 1.0
C      1  0.3029960000000  0.3754730000000  0.4019650000000 1.0
C      1  0.5036210000000  0.6945030000000  0.5860740000000 1.0
C      1  0.6702550000000  0.5941160000000  0.5860740000000 1.0
C      1  0.6666350000000  0.3996130000000  0.5860740000000 1.0
C      1  0.4963790000000  0.3054970000000  0.5860740000000 1.0
C      1  0.3297450000000  0.4058840000000  0.5860740000000 1.0
C      1  0.3333650000000  0.6003870000000  0.5860740000000 1.0
END
