TITL C-986976-6631-807 2.37995797874866e-06 3375 -348.125080677464 0 0 60 (C1) n - 1
REM
REM in /home/bkarasulu/work/CARBON/AIRSS/Generating-Clusters/REBO/Higher-Symm/Only-C60
REM
REM
REM
REM
REM
REM ./C.cell (a2850807a9bf4ad07a5b6933b78d9264)
REM AIRSS Version 0.9.1 bugfix July 2018 build 013d7b7c2542+ Fri, 06 Jul 2018 19:26:36 +0100
REM compiler GCC version 9.2.1 20190827 (Red Hat 9.2.1-1)
REM options -cpp -mtune=generic -march=x86-64 -g -O0 -fpre-include=/usr/include/finclude/math-vector-fortran.h
REM seed -2026405743 1356358094 -60298627 -1294534510 503632642 1315557669 -509816971 142697132 -644381225 1994285586 -523540582 1452838560 -754480110 2072920471 -553269759 -981518529 -1117840433 551783041 1996953854 627246979 -1795637909 1821638503 -488335291 -189741421 -418325413 -1701725216 -1805410402 -58386823 1826932213 -1320269692 -763053614 1145959254 984919454
REM
CELL 1.54180   15.00000   15.00000   15.00000   90.00000   90.00000   90.00000
LATT -1
SFAC C  
C      1  0.3636000000000  0.3758430000000  0.6743280000000 1.0
C      1  0.3666140000000  0.6239860000000  0.6748500000000 1.0
C      1  0.3275850000000  0.5818670000000  0.4280140000000 1.0
C      1  0.3248640000000  0.4160370000000  0.4270360000000 1.0
C      1  0.5926190000000  0.2892230000000  0.5169720000000 1.0
C      1  0.5978940000000  0.7171540000000  0.5186700000000 1.0
C      1  0.4678600000000  0.3405830000000  0.6715870000000 1.0
C      1  0.4695300000000  0.6620220000000  0.6642710000000 1.0
C      1  0.4228370000000  0.6043190000000  0.3375210000000 1.0
C      1  0.4192970000000  0.3911300000000  0.3361610000000 1.0
C      1  0.6324470000000  0.3779180000000  0.6431480000000 1.0
C      1  0.6321300000000  0.6231870000000  0.6426710000000 1.0
C      1  0.6062650000000  0.5967530000000  0.3149310000000 1.0
C      1  0.6085580000000  0.4060910000000  0.3122940000000 1.0
C      1  0.4184240000000  0.6754820000000  0.4011480000000 1.0
C      1  0.4111930000000  0.3185670000000  0.3988650000000 1.0
C      1  0.2435690000000  0.3613160000000  0.4870700000000 1.0
C      1  0.2475750000000  0.6390810000000  0.4875010000000 1.0
C      1  0.5737460000000  0.4377500000000  0.5042510000000 1.0
C      1  0.5782920000000  0.5415710000000  0.5021160000000 1.0
C      1  0.3442510000000  0.5460230000000  0.3292410000000 1.0
C      1  0.3428400000000  0.4523980000000  0.3286830000000 1.0
C      1  0.5105380000000  0.2966550000000  0.4428980000000 1.0
C      1  0.5183780000000  0.6930460000000  0.4462100000000 1.0
C      1  0.3291170000000  0.4521760000000  0.6040710000000 1.0
C      1  0.3310950000000  0.5471730000000  0.6050960000000 1.0
C      1  0.3244120000000  0.3610450000000  0.5480300000000 1.0
C      1  0.3282880000000  0.6380710000000  0.5484210000000 1.0
C      1  0.5093160000000  0.5857640000000  0.4369520000000 1.0
C      1  0.5034810000000  0.4051750000000  0.4380580000000 1.0
C      1  0.6870560000000  0.6222340000000  0.3904850000000 1.0
C      1  0.6889780000000  0.3899180000000  0.3905210000000 1.0
C      1  0.6765810000000  0.4552150000000  0.4779670000000 1.0
C      1  0.6782260000000  0.5596160000000  0.4784030000000 1.0
C      1  0.5778530000000  0.5457690000000  0.6347970000000 1.0
C      1  0.5730770000000  0.4527760000000  0.6358730000000 1.0
C      1  0.5632780000000  0.6990520000000  0.6261760000000 1.0
C      1  0.5573000000000  0.3054340000000  0.6246070000000 1.0
C      1  0.4877820000000  0.7276370000000  0.5496630000000 1.0
C      1  0.4842440000000  0.2682320000000  0.5489920000000 1.0
C      1  0.4450590000000  0.4525560000000  0.6692660000000 1.0
C      1  0.4490840000000  0.5495560000000  0.6666650000000 1.0
C      1  0.4899560000000  0.5732110000000  0.5671900000000 1.0
C      1  0.4845510000000  0.4224530000000  0.5686970000000 1.0
C      1  0.6753410000000  0.3411660000000  0.4921100000000 1.0
C      1  0.6854020000000  0.6702310000000  0.4937530000000 1.0
C      1  0.4006700000000  0.6848630000000  0.5063210000000 1.0
C      1  0.3955630000000  0.3118770000000  0.5063920000000 1.0
C      1  0.7016300000000  0.5501980000000  0.3043020000000 1.0
C      1  0.7025020000000  0.4577980000000  0.3024830000000 1.0
C      1  0.7623840000000  0.4577480000000  0.5874020000000 1.0
C      1  0.7648720000000  0.5481650000000  0.5895320000000 1.0
C      1  0.7108390000000  0.6249320000000  0.5894150000000 1.0
C      1  0.7073740000000  0.3820940000000  0.5849170000000 1.0
C      1  0.2215870000000  0.5457880000000  0.4498860000000 1.0
C      1  0.2200540000000  0.4551810000000  0.4491570000000 1.0
C      1  0.5175250000000  0.5494840000000  0.3378810000000 1.0
C      1  0.5179120000000  0.4441340000000  0.3388790000000 1.0
C      1  0.4150680000000  0.5520450000000  0.4837600000000 1.0
C      1  0.4116350000000  0.4432340000000  0.4834420000000 1.0
END
