TITL C-986979-5873-58 2.42209434939112e-06 3375 -340.170527430333 0 0 60 (C2) n - 1
REM
REM in /home/bkarasulu/work/CARBON/AIRSS/Generating-Clusters/REBO/Higher-Symm/Only-C60
REM
REM
REM
REM
REM
REM ./C.cell (a2850807a9bf4ad07a5b6933b78d9264)
REM AIRSS Version 0.9.1 bugfix July 2018 build 013d7b7c2542+ Fri, 06 Jul 2018 19:26:36 +0100
REM compiler GCC version 9.2.1 20190827 (Red Hat 9.2.1-1)
REM options -cpp -mtune=generic -march=x86-64 -g -O0 -fpre-include=/usr/include/finclude/math-vector-fortran.h
REM seed 187535802 -1826822460 1502283265 408420555 260787182 -328121046 -1290223235 1949061922 -1807790619 -1925238878 -1158843434 90235723 1701169899 968172321 -658759856 1195034470 1636226501 914326676 562719208 2052018897 -1084902642 -1058304474 -1996642233 -1284005305 1338421424 1668631835 1243558057 -1367895848 296306603 694929912 1341328615 -1166342931 53687882
REM
CELL 1.54180   15.00000   15.00000   15.00000   90.00000   90.00000   90.00000
LATT -1
SFAC C  
C      1  0.6465790000000  0.6168100000000  0.6572800000000 1.0
C      1  0.6382010000000  0.3730650000000  0.6094680000000 1.0
C      1  0.6465790000000  0.3831900000000  0.3427200000000 1.0
C      1  0.6382010000000  0.6269340000000  0.3905310000000 1.0
C      1  0.3454890000000  0.6304550000000  0.6437500000000 1.0
C      1  0.3552500000000  0.3891130000000  0.6249710000000 1.0
C      1  0.3454890000000  0.3695450000000  0.3562500000000 1.0
C      1  0.3552500000000  0.6108870000000  0.3750290000000 1.0
C      1  0.3629080000000  0.4042540000000  0.7151860000000 1.0
C      1  0.3881000000000  0.2809460000000  0.3442360000000 1.0
C      1  0.3629080000000  0.5957460000000  0.2848140000000 1.0
C      1  0.3881010000000  0.7190550000000  0.6557640000000 1.0
C      1  0.6364290000000  0.3691880000000  0.7009190000000 1.0
C      1  0.6416840000000  0.2906280000000  0.3332180000000 1.0
C      1  0.6364290000000  0.6308120000000  0.2990810000000 1.0
C      1  0.6416850000000  0.7093720000000  0.6667820000000 1.0
C      1  0.3129740000000  0.4584940000000  0.5516820000000 1.0
C      1  0.3005830000000  0.4277890000000  0.4428200000000 1.0
C      1  0.3129740000000  0.5415060000000  0.4483180000000 1.0
C      1  0.3005830000000  0.5722110000000  0.5571810000000 1.0
C      1  0.6820790000000  0.4526230000000  0.5464840000000 1.0
C      1  0.6896410000000  0.4344700000000  0.4345970000000 1.0
C      1  0.6820790000000  0.5473770000000  0.4535160000000 1.0
C      1  0.6896410000000  0.5655300000000  0.5654030000000 1.0
C      1  0.4120660000000  0.5027110000000  0.5705800000000 1.0
C      1  0.4033800000000  0.3930520000000  0.4733570000000 1.0
C      1  0.4120660000000  0.4972890000000  0.4294210000000 1.0
C      1  0.4033800000000  0.6069480000000  0.5266430000000 1.0
C      1  0.5826790000000  0.4881780000000  0.5727140000000 1.0
C      1  0.5804850000000  0.4078570000000  0.4546310000000 1.0
C      1  0.5826790000000  0.5118220000000  0.4272860000000 1.0
C      1  0.5804850000000  0.5921420000000  0.5453690000000 1.0
C      1  0.4428750000000  0.6049810000000  0.6970810000000 1.0
C      1  0.4392240000000  0.3419240000000  0.5904570000000 1.0
C      1  0.4428750000000  0.3950190000000  0.3029190000000 1.0
C      1  0.4392240000000  0.6580760000000  0.4095430000000 1.0
C      1  0.5527080000000  0.5777080000000  0.6749420000000 1.0
C      1  0.5505210000000  0.3441780000000  0.5675470000000 1.0
C      1  0.5527080000000  0.4222920000000  0.3250580000000 1.0
C      1  0.5505210000000  0.6558220000000  0.4324530000000 1.0
C      1  0.5689370000000  0.7505850000000  0.6205640000000 1.0
C      1  0.5546750000000  0.3937330000000  0.7540230000000 1.0
C      1  0.5689370000000  0.2494150000000  0.3794360000000 1.0
C      1  0.5546750000000  0.6062670000000  0.2459770000000 1.0
C      1  0.4637590000000  0.7479820000000  0.6053730000000 1.0
C      1  0.4556810000000  0.4202340000000  0.7520210000000 1.0
C      1  0.4637580000000  0.2520180000000  0.3946270000000 1.0
C      1  0.4556810000000  0.5797660000000  0.2479790000000 1.0
C      1  0.5527370000000  0.4701370000000  0.6768750000000 1.0
C      1  0.5600090000000  0.2995680000000  0.4718310000000 1.0
C      1  0.5527360000000  0.5298630000000  0.3231250000000 1.0
C      1  0.5600100000000  0.7004320000000  0.5281690000000 1.0
C      1  0.4448710000000  0.5000800000000  0.6722050000000 1.0
C      1  0.4513930000000  0.2929420000000  0.4947380000000 1.0
C      1  0.4448700000000  0.4999200000000  0.3277950000000 1.0
C      1  0.4513930000000  0.7070580000000  0.5052620000000 1.0
C      1  0.4903530000000  0.4372840000000  0.5638850000000 1.0
C      1  0.4903530000000  0.5627160000000  0.4361160000000 1.0
C      1  0.4838230000000  0.6127340000000  0.5933090000000 1.0
C      1  0.4838230000000  0.3872660000000  0.4066910000000 1.0
END
