TITL C-986976-6631-738 2.17395937393805e-05 3375 -349.545907245394 0 0 60 (C1) n - 1
REM
REM in /home/bkarasulu/work/CARBON/AIRSS/Generating-Clusters/REBO/Higher-Symm/Only-C60
REM
REM
REM
REM
REM
REM ./C.cell (a2850807a9bf4ad07a5b6933b78d9264)
REM AIRSS Version 0.9.1 bugfix July 2018 build 013d7b7c2542+ Fri, 06 Jul 2018 19:26:36 +0100
REM compiler GCC version 9.2.1 20190827 (Red Hat 9.2.1-1)
REM options -cpp -mtune=generic -march=x86-64 -g -O0 -fpre-include=/usr/include/finclude/math-vector-fortran.h
REM seed 499825037 1955874106 459925246 470658537 253307154 331021038 2092306955 -926799752 -118969974 -1018237100 -1556625909 -315998590 -1559530387 266503047 -1479654133 1980517940 188175827 -339878714 727720521 1999997016 -1465303989 -1433776889 228373267 -1827291936 -416135445 920766662 557907361 -1304372780 -1205393296 729833148 918251206 834399489 -1040904792
REM
CELL 1.54180   15.00000   15.00000   15.00000   90.00000   90.00000   90.00000
LATT -1
SFAC C  
C      1  0.3198060000000  0.5507920000000  0.3730660000000 1.0
C      1  0.4486030000000  0.5157140000000  0.4202800000000 1.0
C      1  0.6445320000000  0.6512550000000  0.6666200000000 1.0
C      1  0.7174890000000  0.5757270000000  0.6682490000000 1.0
C      1  0.5587150000000  0.5944620000000  0.3126220000000 1.0
C      1  0.6953400000000  0.5040710000000  0.4334350000000 1.0
C      1  0.5047780000000  0.3559700000000  0.4393570000000 1.0
C      1  0.5137450000000  0.4850580000000  0.2514180000000 1.0
C      1  0.3679450000000  0.3521830000000  0.6260650000000 1.0
C      1  0.6974310000000  0.5886080000000  0.4911190000000 1.0
C      1  0.5961700000000  0.4678920000000  0.2985920000000 1.0
C      1  0.6533230000000  0.4445760000000  0.5889960000000 1.0
C      1  0.4407550000000  0.6036070000000  0.3711230000000 1.0
C      1  0.3541170000000  0.2478780000000  0.4943210000000 1.0
C      1  0.6163340000000  0.3301470000000  0.5325890000000 1.0
C      1  0.4275100000000  0.4224150000000  0.6876850000000 1.0
C      1  0.4321550000000  0.4388050000000  0.2714990000000 1.0
C      1  0.5505960000000  0.5359720000000  0.4036710000000 1.0
C      1  0.5572820000000  0.6147330000000  0.6567270000000 1.0
C      1  0.5552500000000  0.6975220000000  0.5131960000000 1.0
C      1  0.3671920000000  0.5684720000000  0.6614860000000 1.0
C      1  0.3922570000000  0.6999960000000  0.4473100000000 1.0
C      1  0.4821650000000  0.5828160000000  0.2468300000000 1.0
C      1  0.5636890000000  0.2979200000000  0.6261440000000 1.0
C      1  0.5987580000000  0.6942740000000  0.4006910000000 1.0
C      1  0.3321600000000  0.3747200000000  0.3911000000000 1.0
C      1  0.5378920000000  0.5785980000000  0.5706820000000 1.0
C      1  0.4161440000000  0.4888070000000  0.5197330000000 1.0
C      1  0.5589800000000  0.4289550000000  0.6074380000000 1.0
C      1  0.5886200000000  0.5890740000000  0.4814140000000 1.0
C      1  0.4039100000000  0.6621020000000  0.5744720000000 1.0
C      1  0.3563670000000  0.5648500000000  0.5533820000000 1.0
C      1  0.4631980000000  0.3156210000000  0.6767680000000 1.0
C      1  0.5595980000000  0.3012490000000  0.3645500000000 1.0
C      1  0.7168900000000  0.6483670000000  0.5812360000000 1.0
C      1  0.4213670000000  0.4129640000000  0.4367650000000 1.0
C      1  0.4865630000000  0.6894900000000  0.3998570000000 1.0
C      1  0.3413820000000  0.6205940000000  0.4583660000000 1.0
C      1  0.2871880000000  0.4020250000000  0.5880400000000 1.0
C      1  0.3831850000000  0.5914240000000  0.2867030000000 1.0
C      1  0.3161190000000  0.6282310000000  0.7095890000000 1.0
C      1  0.3137460000000  0.2801270000000  0.4195310000000 1.0
C      1  0.5807020000000  0.4286970000000  0.3967570000000 1.0
C      1  0.6758020000000  0.4207120000000  0.4897170000000 1.0
C      1  0.4990110000000  0.4918750000000  0.5755640000000 1.0
C      1  0.6647090000000  0.6971410000000  0.4931860000000 1.0
C      1  0.4365910000000  0.5125070000000  0.7000220000000 1.0
C      1  0.6785040000000  0.4889220000000  0.6732710000000 1.0
C      1  0.2838310000000  0.4630680000000  0.4311260000000 1.0
C      1  0.4093710000000  0.2853170000000  0.5555170000000 1.0
C      1  0.5520300000000  0.3785560000000  0.7053320000000 1.0
C      1  0.2609040000000  0.4524630000000  0.5180400000000 1.0
C      1  0.6374040000000  0.3376420000000  0.4263260000000 1.0
C      1  0.5946560000000  0.4742540000000  0.7274660000000 1.0
C      1  0.5272980000000  0.5447080000000  0.7188150000000 1.0
C      1  0.3617360000000  0.4561460000000  0.3257680000000 1.0
C      1  0.4720680000000  0.7044880000000  0.5573350000000 1.0
C      1  0.6689290000000  0.5269150000000  0.3431890000000 1.0
C      1  0.5049580000000  0.3059660000000  0.5317980000000 1.0
C      1  0.6522510000000  0.6325610000000  0.3280530000000 1.0
END
