TITL C-986976-6631-584 -0.0460480191354237 3375 -335.476239690141 0 0 60 (C1) n - 1
REM
REM in /home/bkarasulu/work/CARBON/AIRSS/Generating-Clusters/REBO/Higher-Symm/Only-C60
REM
REM
REM
REM
REM
REM ./C.cell (a2850807a9bf4ad07a5b6933b78d9264)
REM AIRSS Version 0.9.1 bugfix July 2018 build 013d7b7c2542+ Fri, 06 Jul 2018 19:26:36 +0100
REM compiler GCC version 9.2.1 20190827 (Red Hat 9.2.1-1)
REM options -cpp -mtune=generic -march=x86-64 -g -O0 -fpre-include=/usr/include/finclude/math-vector-fortran.h
REM seed -901602131 663067172 845140206 2103796048 343252037 2008868356 171248441 1660702357 35055556 -1496534278 392594478 762765712 -212404049 1240431377 209342753 762716312 -589991093 -1386774772 136570848 1965874462 -1564712257 807814045 1058951730 -1163131974 -1437377790 -613057579 904028818 882491135 554230922 156960682 1360115893 1423208380 -1409532675
REM
CELL 1.54180   15.00000   15.00000   15.00000   90.00000   90.00000   90.00000
LATT -1
SFAC C  
C      1  0.3043170000000  0.5438860000000  0.3733990000000 1.0
C      1  0.3005090000000  0.5888480000000  0.6043890000000 1.0
C      1  0.3062220000000  0.3655900000000  0.5192740000000 1.0
C      1  0.7030430000000  0.5473450000000  0.3756670000000 1.0
C      1  0.6967630000000  0.5885690000000  0.6123560000000 1.0
C      1  0.6941810000000  0.3727080000000  0.5237750000000 1.0
C      1  0.4503350000000  0.2737410000000  0.5880870000000 1.0
C      1  0.4523560000000  0.5341030000000  0.2564610000000 1.0
C      1  0.4544410000000  0.6877920000000  0.6528900000000 1.0
C      1  0.5442400000000  0.2712150000000  0.5871980000000 1.0
C      1  0.5468340000000  0.5383910000000  0.2559250000000 1.0
C      1  0.5484210000000  0.6874630000000  0.6511250000000 1.0
C      1  0.5991870000000  0.7114340000000  0.4858750000000 1.0
C      1  0.5937150000000  0.4120400000000  0.6958520000000 1.0
C      1  0.6016890000000  0.3797710000000  0.3179240000000 1.0
C      1  0.4047690000000  0.7119770000000  0.4806770000000 1.0
C      1  0.3980600000000  0.4075550000000  0.6936780000000 1.0
C      1  0.4054500000000  0.3751550000000  0.3247590000000 1.0
C      1  0.4182360000000  0.6621100000000  0.7367150000000 1.0
C      1  0.4064700000000  0.2131080000000  0.5293620000000 1.0
C      1  0.4075880000000  0.6153830000000  0.2343350000000 1.0
C      1  0.5919660000000  0.6706860000000  0.7340800000000 1.0
C      1  0.5808370000000  0.2145790000000  0.5205070000000 1.0
C      1  0.5807470000000  0.6256900000000  0.2403650000000 1.0
C      1  0.6843540000000  0.4421250000000  0.3643880000000 1.0
C      1  0.6836700000000  0.6436980000000  0.5197700000000 1.0
C      1  0.6752120000000  0.4215960000000  0.6176800000000 1.0
C      1  0.3232210000000  0.4382780000000  0.3693720000000 1.0
C      1  0.3199640000000  0.6437700000000  0.5129310000000 1.0
C      1  0.3166340000000  0.4150860000000  0.6150290000000 1.0
C      1  0.4157140000000  0.6471900000000  0.5715380000000 1.0
C      1  0.4168960000000  0.3661980000000  0.5928860000000 1.0
C      1  0.4186310000000  0.4861110000000  0.3361350000000 1.0
C      1  0.5825580000000  0.6420910000000  0.5702860000000 1.0
C      1  0.5832580000000  0.3605230000000  0.5965580000000 1.0
C      1  0.5873080000000  0.4891890000000  0.3317980000000 1.0
C      1  0.4389680000000  0.2146670000000  0.4400260000000 1.0
C      1  0.4380830000000  0.6913890000000  0.2829190000000 1.0
C      1  0.4595070000000  0.5835700000000  0.7718350000000 1.0
C      1  0.5397420000000  0.2246420000000  0.4351100000000 1.0
C      1  0.5384970000000  0.6915630000000  0.2947450000000 1.0
C      1  0.5599220000000  0.5931070000000  0.7789970000000 1.0
C      1  0.5514250000000  0.5074170000000  0.7129830000000 1.0
C      1  0.5601770000000  0.3175780000000  0.3907170000000 1.0
C      1  0.5589690000000  0.6780640000000  0.3964670000000 1.0
C      1  0.4391800000000  0.5007360000000  0.7119170000000 1.0
C      1  0.4486550000000  0.3142880000000  0.3985480000000 1.0
C      1  0.4471360000000  0.6762830000000  0.3901990000000 1.0
C      1  0.6332400000000  0.3845990000000  0.4458290000000 1.0
C      1  0.6369230000000  0.6003240000000  0.4259880000000 1.0
C      1  0.6291100000000  0.5209900000000  0.6303060000000 1.0
C      1  0.3771490000000  0.3841810000000  0.4532090000000 1.0
C      1  0.3688050000000  0.5996040000000  0.4225280000000 1.0
C      1  0.3632150000000  0.5174110000000  0.6286820000000 1.0
C      1  0.5562980000000  0.5260910000000  0.4293340000000 1.0
C      1  0.5488240000000  0.5383150000000  0.5548210000000 1.0
C      1  0.5619000000000  0.4313810000000  0.5128480000000 1.0
C      1  0.4528940000000  0.5299300000000  0.4291280000000 1.0
C      1  0.4407730000000  0.5414360000000  0.5545770000000 1.0
C      1  0.4528090000000  0.4374410000000  0.5152440000000 1.0
END
