TITL C-986975-4297-958 -4.31227424136068e-05 3375 -358.327843524226 0 0 60 (C1) n - 1
REM
REM in /home/bkarasulu/work/CARBON/AIRSS/Generating-Clusters/REBO/Higher-Symm/Only-C60
REM
REM
REM
REM
REM
REM ./C.cell (a2850807a9bf4ad07a5b6933b78d9264)
REM AIRSS Version 0.9.1 bugfix July 2018 build 013d7b7c2542+ Fri, 06 Jul 2018 19:26:36 +0100
REM compiler GCC version 9.2.1 20190827 (Red Hat 9.2.1-1)
REM options -cpp -mtune=generic -march=x86-64 -g -O0 -fpre-include=/usr/include/finclude/math-vector-fortran.h
REM seed 893777036 -908361089 -1979020556 -337167636 1583799437 -1494123357 -985605660 306462199 -1713031844 1503796665 389962590 1316283087 687921277 -219928306 -1738859150 -150997155 -2133783440 -371955206 -1190380190 808750032 -2009380506 220928032 341532976 -1713298312 -286192908 -1646366352 1170125942 -1114345251 -1251591863 -1011994082 1593516515 -1953386386 -1383864113
REM
CELL 1.54180   15.00000   15.00000   15.00000   90.00000   90.00000   90.00000
LATT -1
SFAC C  
C      1  0.4235270000000  0.4481120000000  0.3855860000000 1.0
C      1  0.4483160000000  0.4508740000000  0.5679810000000 1.0
C      1  0.4245260000000  0.6078880000000  0.4771330000000 1.0
C      1  0.5359590000000  0.4415710000000  0.4029640000000 1.0
C      1  0.5564250000000  0.4376310000000  0.5910900000000 1.0
C      1  0.5351600000000  0.5944510000000  0.4859300000000 1.0
C      1  0.4487800000000  0.5535510000000  0.3936970000000 1.0
C      1  0.4383480000000  0.5544370000000  0.5680700000000 1.0
C      1  0.4320260000000  0.3982460000000  0.4726610000000 1.0
C      1  0.5608070000000  0.5476350000000  0.3978820000000 1.0
C      1  0.5473950000000  0.5388510000000  0.5828210000000 1.0
C      1  0.5422030000000  0.3890430000000  0.4944170000000 1.0
C      1  0.5675320000000  0.5593340000000  0.7621660000000 1.0
C      1  0.5623900000000  0.6777880000000  0.3371070000000 1.0
C      1  0.5591740000000  0.2703510000000  0.4282170000000 1.0
C      1  0.4632140000000  0.5530460000000  0.7583550000000 1.0
C      1  0.4570640000000  0.6788570000000  0.3353940000000 1.0
C      1  0.4541980000000  0.2749790000000  0.4274470000000 1.0
C      1  0.5510540000000  0.4534380000000  0.7506870000000 1.0
C      1  0.5410210000000  0.3198590000000  0.3371690000000 1.0
C      1  0.5396590000000  0.7265290000000  0.4281250000000 1.0
C      1  0.4464810000000  0.4473860000000  0.7579530000000 1.0
C      1  0.4377170000000  0.3218170000000  0.3276770000000 1.0
C      1  0.4359700000000  0.7321260000000  0.4313850000000 1.0
C      1  0.5824550000000  0.7242230000000  0.5166700000000 1.0
C      1  0.5894610000000  0.3921850000000  0.2918600000000 1.0
C      1  0.5940240000000  0.3782650000000  0.7041550000000 1.0
C      1  0.3953190000000  0.7307760000000  0.5202730000000 1.0
C      1  0.3951880000000  0.3879160000000  0.2705410000000 1.0
C      1  0.4019880000000  0.3766130000000  0.7102020000000 1.0
C      1  0.6043500000000  0.2727520000000  0.5128880000000 1.0
C      1  0.6122380000000  0.6090530000000  0.2916110000000 1.0
C      1  0.6094370000000  0.6275720000000  0.7081240000000 1.0
C      1  0.4142270000000  0.2746720000000  0.5187270000000 1.0
C      1  0.4165030000000  0.6088560000000  0.2775350000000 1.0
C      1  0.4179190000000  0.6269880000000  0.7115700000000 1.0
C      1  0.6314890000000  0.5925350000000  0.6232920000000 1.0
C      1  0.6636220000000  0.5486180000000  0.3545540000000 1.0
C      1  0.6467730000000  0.3615980000000  0.5317610000000 1.0
C      1  0.3694450000000  0.5992500000000  0.6345300000000 1.0
C      1  0.3551620000000  0.5466540000000  0.3291250000000 1.0
C      1  0.3586890000000  0.3566260000000  0.5395970000000 1.0
C      1  0.6547250000000  0.4021430000000  0.6260640000000 1.0
C      1  0.6402120000000  0.4497830000000  0.3571150000000 1.0
C      1  0.6234830000000  0.6364250000000  0.5346570000000 1.0
C      1  0.3689960000000  0.4048990000000  0.6266660000000 1.0
C      1  0.3315310000000  0.4480680000000  0.3220470000000 1.0
C      1  0.3457050000000  0.6463670000000  0.5449150000000 1.0
C      1  0.4614800000000  0.7130250000000  0.6928330000000 1.0
C      1  0.4667240000000  0.5517290000000  0.2154200000000 1.0
C      1  0.4596880000000  0.2450300000000  0.6002800000000 1.0
C      1  0.5659890000000  0.7139280000000  0.6972550000000 1.0
C      1  0.5702390000000  0.5559040000000  0.2225270000000 1.0
C      1  0.5632850000000  0.2392120000000  0.5936390000000 1.0
C      1  0.4460670000000  0.2909490000000  0.6988090000000 1.0
C      1  0.4484980000000  0.4433440000000  0.2108900000000 1.0
C      1  0.4412530000000  0.7644900000000  0.5990450000000 1.0
C      1  0.5491260000000  0.2934270000000  0.6856100000000 1.0
C      1  0.5510870000000  0.4495930000000  0.2232780000000 1.0
C      1  0.5446780000000  0.7587330000000  0.6000210000000 1.0
END
