TITL C-986978-6805-347 4.65835268177929e-06 3375 -355.763107519881 0 0 60 (C1) n - 1
REM
REM in /home/bkarasulu/work/CARBON/AIRSS/Generating-Clusters/REBO/Higher-Symm/Only-C60
REM
REM
REM
REM
REM
REM ./C.cell (a2850807a9bf4ad07a5b6933b78d9264)
REM AIRSS Version 0.9.1 bugfix July 2018 build 013d7b7c2542+ Fri, 06 Jul 2018 19:26:36 +0100
REM compiler GCC version 9.2.1 20190827 (Red Hat 9.2.1-1)
REM options -cpp -mtune=generic -march=x86-64 -g -O0 -fpre-include=/usr/include/finclude/math-vector-fortran.h
REM seed -1066170697 1678040781 -431775412 -1144591919 -770956288 448996115 501236983 -1313654180 -1947295822 -1764712650 3014146 -1238403870 2075536972 1578820618 -316405282 -1642153137 -640064416 -987070037 -1943883616 1566452613 -23244406 1313252577 -533960207 570780082 -1147208033 714350857 -1168211150 1140593103 1470267919 -1533836644 -195751685 1539002826 -1365860239
REM
CELL 1.54180   15.00000   15.00000   15.00000   90.00000   90.00000   90.00000
LATT -1
SFAC C  
C      1  0.3766020000000  0.4103870000000  0.6932390000000 1.0
C      1  0.3731490000000  0.6027690000000  0.7110260000000 1.0
C      1  0.5558280000000  0.6588670000000  0.7269050000000 1.0
C      1  0.6636040000000  0.5044260000000  0.7154880000000 1.0
C      1  0.5564830000000  0.3485050000000  0.7106540000000 1.0
C      1  0.4417880000000  0.3329790000000  0.3197850000000 1.0
C      1  0.3191890000000  0.4852760000000  0.3019380000000 1.0
C      1  0.4328230000000  0.6497480000000  0.3193660000000 1.0
C      1  0.6201030000000  0.5857250000000  0.3421240000000 1.0
C      1  0.6280850000000  0.3938150000000  0.3276030000000 1.0
C      1  0.6791890000000  0.4903620000000  0.3224820000000 1.0
C      1  0.5495530000000  0.3126790000000  0.3135450000000 1.0
C      1  0.3394670000000  0.3795550000000  0.3015900000000 1.0
C      1  0.3406050000000  0.5955930000000  0.3196700000000 1.0
C      1  0.5439170000000  0.6628150000000  0.3388910000000 1.0
C      1  0.5842500000000  0.3025000000000  0.4142700000000 1.0
C      1  0.3427310000000  0.3548720000000  0.4066490000000 1.0
C      1  0.3103300000000  0.6060140000000  0.4245740000000 1.0
C      1  0.5423710000000  0.7077060000000  0.4373130000000 1.0
C      1  0.7024130000000  0.5182590000000  0.4226890000000 1.0
C      1  0.3642470000000  0.6710990000000  0.4711260000000 1.0
C      1  0.6195960000000  0.6793550000000  0.4867840000000 1.0
C      1  0.7041880000000  0.4381750000000  0.4761770000000 1.0
C      1  0.5086320000000  0.2799020000000  0.4691870000000 1.0
C      1  0.2986540000000  0.4248080000000  0.4570260000000 1.0
C      1  0.6007020000000  0.4981220000000  0.5400920000000 1.0
C      1  0.5238360000000  0.4221110000000  0.5200530000000 1.0
C      1  0.4275150000000  0.4684780000000  0.5374840000000 1.0
C      1  0.4440250000000  0.5708580000000  0.5626230000000 1.0
C      1  0.5490780000000  0.5931760000000  0.5600620000000 1.0
C      1  0.4730800000000  0.5922620000000  0.7598980000000 1.0
C      1  0.5789010000000  0.5572210000000  0.7645110000000 1.0
C      1  0.5788960000000  0.4464320000000  0.7579680000000 1.0
C      1  0.4734920000000  0.4129780000000  0.7478220000000 1.0
C      1  0.4082280000000  0.5029480000000  0.7473810000000 1.0
C      1  0.3536460000000  0.3817400000000  0.6067460000000 1.0
C      1  0.3364820000000  0.6183910000000  0.6251830000000 1.0
C      1  0.5599090000000  0.6998980000000  0.6423260000000 1.0
C      1  0.7038770000000  0.5131730000000  0.6312330000000 1.0
C      1  0.5774960000000  0.3170120000000  0.6244990000000 1.0
C      1  0.4275530000000  0.3038180000000  0.4247850000000 1.0
C      1  0.2926880000000  0.5062970000000  0.4052950000000 1.0
C      1  0.4423290000000  0.6933570000000  0.4185400000000 1.0
C      1  0.6612490000000  0.6067720000000  0.4422960000000 1.0
C      1  0.6578620000000  0.3682920000000  0.4310090000000 1.0
C      1  0.5085930000000  0.5805590000000  0.2696150000000 1.0
C      1  0.5815100000000  0.5049380000000  0.2711090000000 1.0
C      1  0.5338610000000  0.4119580000000  0.2650930000000 1.0
C      1  0.4310200000000  0.4285970000000  0.2580150000000 1.0
C      1  0.4138720000000  0.5327420000000  0.2596710000000 1.0
C      1  0.4768750000000  0.6775940000000  0.5861250000000 1.0
C      1  0.6616930000000  0.5879280000000  0.5742220000000 1.0
C      1  0.6190720000000  0.3883960000000  0.5658190000000 1.0
C      1  0.4364270000000  0.3561900000000  0.5508180000000 1.0
C      1  0.3374170000000  0.5313420000000  0.5700190000000 1.0
C      1  0.3748290000000  0.6841020000000  0.5657250000000 1.0
C      1  0.6351900000000  0.6912170000000  0.5859810000000 1.0
C      1  0.7133470000000  0.4372350000000  0.5764590000000 1.0
C      1  0.5085520000000  0.2803020000000  0.5701290000000 1.0
C      1  0.2991020000000  0.4373730000000  0.5512970000000 1.0
END
