TITL C-986975-4297-669 -4.26222489767191e-06 3375 -334.445685395042 0 0 60 (D5) n - 1
REM
REM in /home/bkarasulu/work/CARBON/AIRSS/Generating-Clusters/REBO/Higher-Symm/Only-C60
REM
REM
REM
REM
REM
REM ./C.cell (a2850807a9bf4ad07a5b6933b78d9264)
REM AIRSS Version 0.9.1 bugfix July 2018 build 013d7b7c2542+ Fri, 06 Jul 2018 19:26:36 +0100
REM compiler GCC version 9.2.1 20190827 (Red Hat 9.2.1-1)
REM options -cpp -mtune=generic -march=x86-64 -g -O0 -fpre-include=/usr/include/finclude/math-vector-fortran.h
REM seed 2093550238 -1888908836 651546035 352337172 -1821073961 -1555105023 35743427 736936298 -945341175 329532144 -1347982292 1791625061 654521528 -2122950308 -357352284 -951537875 -203741806 2076595430 1290145387 -1233517967 1633436335 -1699253736 942297218 1873041072 2095044960 691508472 1529489055 1843786009 940113029 284790960 -1494068038 -481445309 1105981055
REM
CELL 1.54180   15.00000   15.00000   15.00000   90.00000   90.00000   90.00000
LATT -1
SFAC C  
C      1  0.6934300000000  0.3558720000000  0.5538900000000 1.0
C      1  0.6968420000000  0.6394310000000  0.5538900000000 1.0
C      1  0.4282160000000  0.7303010000000  0.5538600000000 1.0
C      1  0.2587840000000  0.5029020000000  0.5538380000000 1.0
C      1  0.4226950000000  0.2714930000000  0.5538570000000 1.0
C      1  0.3065710000000  0.3558710000000  0.4461090000000 1.0
C      1  0.3031570000000  0.6394290000000  0.4461100000000 1.0
C      1  0.5717810000000  0.7303020000000  0.4461420000000 1.0
C      1  0.7412160000000  0.5029050000000  0.4461620000000 1.0
C      1  0.5773070000000  0.2714940000000  0.4461420000000 1.0
C      1  0.6658910000000  0.4170710000000  0.6345450000000 1.0
C      1  0.6301210000000  0.6321600000000  0.6345400000000 1.0
C      1  0.4145060000000  0.6646080000000  0.6345160000000 1.0
C      1  0.3170180000000  0.4695720000000  0.6345030000000 1.0
C      1  0.4723820000000  0.3165860000000  0.6345210000000 1.0
C      1  0.3341100000000  0.4170710000000  0.3654550000000 1.0
C      1  0.3698770000000  0.6321600000000  0.3654610000000 1.0
C      1  0.5854930000000  0.6646100000000  0.3654860000000 1.0
C      1  0.6829820000000  0.4695750000000  0.3654970000000 1.0
C      1  0.5276190000000  0.3165870000000  0.3654780000000 1.0
C      1  0.7001560000000  0.5108910000000  0.6183440000000 1.0
C      1  0.5514830000000  0.6937380000000  0.6183260000000 1.0
C      1  0.3316430000000  0.6088450000000  0.6183010000000 1.0
C      1  0.3444470000000  0.3735310000000  0.6183010000000 1.0
C      1  0.5722000000000  0.3129920000000  0.6183280000000 1.0
C      1  0.2998440000000  0.5108900000000  0.3816560000000 1.0
C      1  0.4485150000000  0.6937390000000  0.3816750000000 1.0
C      1  0.6683560000000  0.6088470000000  0.3817000000000 1.0
C      1  0.6555540000000  0.3735330000000  0.3816990000000 1.0
C      1  0.4278010000000  0.3129920000000  0.3816710000000 1.0
C      1  0.4460350000000  0.4200710000000  0.3474450000000 1.0
C      1  0.5593540000000  0.4239590000000  0.3474580000000 1.0
C      1  0.5906730000000  0.5329340000000  0.3474620000000 1.0
C      1  0.4967110000000  0.5963950000000  0.3474510000000 1.0
C      1  0.4073190000000  0.5266430000000  0.3474400000000 1.0
C      1  0.5539660000000  0.4200710000000  0.6525550000000 1.0
C      1  0.4406470000000  0.4239580000000  0.6525410000000 1.0
C      1  0.4093260000000  0.5329320000000  0.6525380000000 1.0
C      1  0.5032880000000  0.5963940000000  0.6525490000000 1.0
C      1  0.5926800000000  0.5266420000000  0.6525600000000 1.0
C      1  0.6158970000000  0.5841000000000  0.5118790000000 1.0
C      1  0.4558290000000  0.6362140000000  0.5118620000000 1.0
C      1  0.3568020000000  0.5000850000000  0.5118490000000 1.0
C      1  0.4556680000000  0.3638380000000  0.5118600000000 1.0
C      1  0.6157970000000  0.4157630000000  0.5118800000000 1.0
C      1  0.3841030000000  0.5840990000000  0.4881210000000 1.0
C      1  0.5441690000000  0.6362150000000  0.4881390000000 1.0
C      1  0.6431980000000  0.5000860000000  0.4881510000000 1.0
C      1  0.5443340000000  0.3638390000000  0.4881390000000 1.0
C      1  0.3842040000000  0.4157620000000  0.4881200000000 1.0
C      1  0.2755150000000  0.6348190000000  0.5458520000000 1.0
C      1  0.3024060000000  0.3281690000000  0.5458540000000 1.0
C      1  0.6023570000000  0.2589830000000  0.5458900000000 1.0
C      1  0.7608460000000  0.5228740000000  0.5459100000000 1.0
C      1  0.5588470000000  0.7551530000000  0.5458860000000 1.0
C      1  0.7244830000000  0.6348210000000  0.4541490000000 1.0
C      1  0.6975960000000  0.3281710000000  0.4541450000000 1.0
C      1  0.3976450000000  0.2589830000000  0.4541090000000 1.0
C      1  0.2391530000000  0.5228720000000  0.4540900000000 1.0
C      1  0.4411500000000  0.7551530000000  0.4541160000000 1.0
END
