TITL C-986978-6805-1096 -2.57196687142237e-05 3375 -344.805236930969 0 0 60 (Th) n - 1
REM
REM in /home/bkarasulu/work/CARBON/AIRSS/Generating-Clusters/REBO/Higher-Symm/Only-C60
REM
REM
REM
REM
REM
REM ./C.cell (a2850807a9bf4ad07a5b6933b78d9264)
REM AIRSS Version 0.9.1 bugfix July 2018 build 013d7b7c2542+ Fri, 06 Jul 2018 19:26:36 +0100
REM compiler GCC version 9.2.1 20190827 (Red Hat 9.2.1-1)
REM options -cpp -mtune=generic -march=x86-64 -g -O0 -fpre-include=/usr/include/finclude/math-vector-fortran.h
REM seed 1335522591 -378972285 184364001 -2123095277 -1754537420 717239663 -1198886956 -974148554 1706285564 1348748686 -1546442862 -519834630 -548866047 -1878151523 1651496864 -436135524 260578829 -1949041146 593797614 1193086312 932871591 -934646281 73715550 -1953834161 -1932178813 -101571619 -1383145736 -1664711999 -440227875 1607854727 883934535 238381496 2009291941
REM
CELL 1.54180   15.00000   15.00000   15.00000   90.00000   90.00000   90.00000
LATT -1
SFAC C  
C      1  0.3288180000000  0.4111260000000  0.4016520000000 1.0
C      1  0.4111260000000  0.4016520000000  0.3288180000000 1.0
C      1  0.4016520000000  0.3288180000000  0.4111260000000 1.0
C      1  0.6711820000000  0.5888740000000  0.4016520000000 1.0
C      1  0.3288180000000  0.5888740000000  0.5983480000000 1.0
C      1  0.6711820000000  0.4111260000000  0.5983480000000 1.0
C      1  0.5888740000000  0.5983480000000  0.3288180000000 1.0
C      1  0.4111260000000  0.5983480000000  0.6711820000000 1.0
C      1  0.5888740000000  0.4016520000000  0.6711820000000 1.0
C      1  0.5983480000000  0.6711820000000  0.4111260000000 1.0
C      1  0.4016520000000  0.6711820000000  0.5888740000000 1.0
C      1  0.5983480000000  0.3288180000000  0.5888740000000 1.0
C      1  0.3288180000000  0.4111260000000  0.5983480000000 1.0
C      1  0.4111260000000  0.4016520000000  0.6711820000000 1.0
C      1  0.4016520000000  0.3288180000000  0.5888740000000 1.0
C      1  0.6711820000000  0.5888740000000  0.5983480000000 1.0
C      1  0.3288180000000  0.5888740000000  0.4016520000000 1.0
C      1  0.6711820000000  0.4111260000000  0.4016520000000 1.0
C      1  0.5888740000000  0.5983480000000  0.6711820000000 1.0
C      1  0.4111260000000  0.5983480000000  0.3288180000000 1.0
C      1  0.5888740000000  0.4016520000000  0.3288180000000 1.0
C      1  0.5983480000000  0.6711820000000  0.5888740000000 1.0
C      1  0.4016520000000  0.6711820000000  0.4111260000000 1.0
C      1  0.5983480000000  0.3288180000000  0.4111260000000 1.0
C      1  0.7645140000000  0.5532490000000  0.4475580000000 1.0
C      1  0.5532490000000  0.4475580000000  0.7645140000000 1.0
C      1  0.4475580000000  0.7645140000000  0.5532490000000 1.0
C      1  0.2354860000000  0.4467510000000  0.4475580000000 1.0
C      1  0.7645140000000  0.4467510000000  0.5524420000000 1.0
C      1  0.2354860000000  0.5532490000000  0.5524420000000 1.0
C      1  0.4467510000000  0.5524420000000  0.7645140000000 1.0
C      1  0.5532490000000  0.5524420000000  0.2354860000000 1.0
C      1  0.4467510000000  0.4475580000000  0.2354860000000 1.0
C      1  0.5524420000000  0.2354860000000  0.5532490000000 1.0
C      1  0.4475580000000  0.2354860000000  0.4467510000000 1.0
C      1  0.5524420000000  0.7645140000000  0.4467510000000 1.0
C      1  0.7645140000000  0.5532490000000  0.5524420000000 1.0
C      1  0.5532490000000  0.4475580000000  0.2354860000000 1.0
C      1  0.4475580000000  0.7645140000000  0.4467510000000 1.0
C      1  0.2354860000000  0.4467510000000  0.5524420000000 1.0
C      1  0.7645140000000  0.4467510000000  0.4475580000000 1.0
C      1  0.2354860000000  0.5532490000000  0.4475580000000 1.0
C      1  0.4467510000000  0.5524420000000  0.2354860000000 1.0
C      1  0.5532490000000  0.5524420000000  0.7645140000000 1.0
C      1  0.4467510000000  0.4475580000000  0.7645140000000 1.0
C      1  0.5524420000000  0.2354860000000  0.4467510000000 1.0
C      1  0.4475580000000  0.2354860000000  0.5532490000000 1.0
C      1  0.5524420000000  0.7645140000000  0.5532490000000 1.0
C      1  0.5000000000000  0.5455470000000  0.6431040000000 1.0
C      1  0.5000000000000  0.4544530000000  0.6431040000000 1.0
C      1  0.5000000000000  0.4544530000000  0.3568960000000 1.0
C      1  0.5000000000000  0.5455470000000  0.3568960000000 1.0
C      1  0.6431040000000  0.5000000000000  0.5455470000000 1.0
C      1  0.5455470000000  0.6431040000000  0.5000000000000 1.0
C      1  0.3568960000000  0.5000000000000  0.5455470000000 1.0
C      1  0.6431040000000  0.5000000000000  0.4544530000000 1.0
C      1  0.3568960000000  0.5000000000000  0.4544530000000 1.0
C      1  0.4544530000000  0.3568960000000  0.5000000000000 1.0
C      1  0.5455470000000  0.3568960000000  0.5000000000000 1.0
C      1  0.4544530000000  0.6431040000000  0.5000000000000 1.0
END
