TITL C-986978-6805-186 0.0262446630839576 3375 -339.665934378197 0 0 60 (C3) n - 1
REM
REM in /home/bkarasulu/work/CARBON/AIRSS/Generating-Clusters/REBO/Higher-Symm/Only-C60
REM
REM
REM
REM
REM
REM ./C.cell (a2850807a9bf4ad07a5b6933b78d9264)
REM AIRSS Version 0.9.1 bugfix July 2018 build 013d7b7c2542+ Fri, 06 Jul 2018 19:26:36 +0100
REM compiler GCC version 9.2.1 20190827 (Red Hat 9.2.1-1)
REM options -cpp -mtune=generic -march=x86-64 -g -O0 -fpre-include=/usr/include/finclude/math-vector-fortran.h
REM seed 607202887 -111747388 -745539172 1919333212 1788358281 1667994055 -1947552497 -2000968928 -35322970 1928795285 1318120482 -2015143420 -1635971174 -259963183 -1895904678 449597484 -1842413011 -1010428860 -550108862 816623619 -1566221343 798430827 18220824 241932417 -1026819383 -1695311384 -824872558 1737812056 1798922398 1247607156 -367440187 -595630410 -2081355011
REM
CELL 1.54180   15.00000   15.00000   15.00000   90.00000   90.00000   90.00000
LATT -1
SFAC C  
C      1  0.4563590000000  0.2635300000000  0.5027030000000 1.0
C      1  0.4566400000000  0.6210700000000  0.7038930000000 1.0
C      1  0.4568840000000  0.6156900000000  0.2930980000000 1.0
C      1  0.3308520000000  0.5988420000000  0.4815770000000 1.0
C      1  0.3306880000000  0.4339690000000  0.4232960000000 1.0
C      1  0.3306140000000  0.4664960000000  0.5953630000000 1.0
C      1  0.5321800000000  0.6831930000000  0.3123100000000 1.0
C      1  0.5321130000000  0.2459940000000  0.4353310000000 1.0
C      1  0.5322790000000  0.5710710000000  0.7525830000000 1.0
C      1  0.5983910000000  0.5264140000000  0.5882840000000 1.0
C      1  0.5983360000000  0.5634760000000  0.4330770000000 1.0
C      1  0.5984530000000  0.4102530000000  0.4786880000000 1.0
C      1  0.5176840000000  0.3214590000000  0.6605530000000 1.0
C      1  0.5176680000000  0.7284850000000  0.5744330000000 1.0
C      1  0.5178080000000  0.4499310000000  0.2646030000000 1.0
C      1  0.3294690000000  0.3730620000000  0.5811540000000 1.0
C      1  0.3298010000000  0.6333460000000  0.5695260000000 1.0
C      1  0.3299830000000  0.4933110000000  0.3495490000000 1.0
C      1  0.4517320000000  0.2603910000000  0.6097220000000 1.0
C      1  0.4516880000000  0.7151450000000  0.6527750000000 1.0
C      1  0.4518420000000  0.5245170000000  0.2370400000000 1.0
C      1  0.4366830000000  0.5726020000000  0.4652680000000 1.0
C      1  0.4366680000000  0.4341950000000  0.4540010000000 1.0
C      1  0.4366640000000  0.4932080000000  0.5807120000000 1.0
C      1  0.5283910000000  0.4784370000000  0.4263770000000 1.0
C      1  0.5282080000000  0.4468830000000  0.5555280000000 1.0
C      1  0.5279100000000  0.5745050000000  0.5182730000000 1.0
C      1  0.3323070000000  0.3524650000000  0.4881610000000 1.0
C      1  0.3327960000000  0.5631300000000  0.6338870000000 1.0
C      1  0.3331930000000  0.5840500000000  0.3785810000000 1.0
C      1  0.6902680000000  0.6557040000000  0.5312290000000 1.0
C      1  0.6901830000000  0.4492980000000  0.3495870000000 1.0
C      1  0.6903720000000  0.3951820000000  0.6191710000000 1.0
C      1  0.6080190000000  0.5247690000000  0.6856210000000 1.0
C      1  0.6079880000000  0.6485540000000  0.3858920000000 1.0
C      1  0.6080970000000  0.3268460000000  0.4285450000000 1.0
C      1  0.3874500000000  0.7094910000000  0.5721780000000 1.0
C      1  0.3874810000000  0.4575990000000  0.2821560000000 1.0
C      1  0.3874530000000  0.3327050000000  0.6455410000000 1.0
C      1  0.4554790000000  0.5976180000000  0.5959720000000 1.0
C      1  0.4557660000000  0.5338160000000  0.3672510000000 1.0
C      1  0.4550710000000  0.3686370000000  0.5367220000000 1.0
C      1  0.6416910000000  0.3494300000000  0.3265130000000 1.0
C      1  0.6416170000000  0.4251120000000  0.7170680000000 1.0
C      1  0.6415350000000  0.7256430000000  0.4564500000000 1.0
C      1  0.4182270000000  0.6585090000000  0.3917370000000 1.0
C      1  0.4172200000000  0.3276260000000  0.4165180000000 1.0
C      1  0.4177100000000  0.5143520000000  0.6917900000000 1.0
C      1  0.4538270000000  0.7200800000000  0.4805220000000 1.0
C      1  0.4538280000000  0.3728370000000  0.3189340000000 1.0
C      1  0.4538150000000  0.4067810000000  0.7004770000000 1.0
C      1  0.5369400000000  0.3076070000000  0.3412850000000 1.0
C      1  0.5368870000000  0.4588500000000  0.7459310000000 1.0
C      1  0.5368130000000  0.7336720000000  0.4127420000000 1.0
C      1  0.6857240000000  0.5005090000000  0.4342540000000 1.0
C      1  0.6858280000000  0.4428850000000  0.5324720000000 1.0
C      1  0.6858070000000  0.5567550000000  0.5332730000000 1.0
C      1  0.6081790000000  0.7202010000000  0.5619100000000 1.0
C      1  0.6082380000000  0.4433310000000  0.2782450000000 1.0
C      1  0.6082070000000  0.3364800000000  0.6596650000000 1.0
END
