TITL C-986979-5873-1156 -0.00314667561787335 3375 -340.548833982435 0 0 60 (C1) n - 1
REM
REM in /home/bkarasulu/work/CARBON/AIRSS/Generating-Clusters/REBO/Higher-Symm/Only-C60
REM
REM
REM
REM
REM
REM ./C.cell (a2850807a9bf4ad07a5b6933b78d9264)
REM AIRSS Version 0.9.1 bugfix July 2018 build 013d7b7c2542+ Fri, 06 Jul 2018 19:26:36 +0100
REM compiler GCC version 9.2.1 20190827 (Red Hat 9.2.1-1)
REM options -cpp -mtune=generic -march=x86-64 -g -O0 -fpre-include=/usr/include/finclude/math-vector-fortran.h
REM seed 539160451 2060882227 1845005304 1458507756 -2041631052 389094637 1531712010 -1969539728 -1243049277 -1485461692 326016804 629601873 343044033 -1162161281 727976583 -699379717 319633080 2137820013 -1344097273 1252441951 893011457 813845011 1671057645 1690104375 -1730583997 1510900050 -3036223 1723229959 -83030017 1447650531 -1324292935 1668105368 -1994789115
REM
CELL 1.54180   15.00000   15.00000   15.00000   90.00000   90.00000   90.00000
LATT -1
SFAC C  
C      1  0.6814590000000  0.5667090000000  0.5782910000000 1.0
C      1  0.2937610000000  0.4275750000000  0.5520360000000 1.0
C      1  0.2948060000000  0.6726270000000  0.5890930000000 1.0
C      1  0.4563070000000  0.7075790000000  0.4789950000000 1.0
C      1  0.5989510000000  0.2862260000000  0.5917240000000 1.0
C      1  0.5733690000000  0.4324030000000  0.7044870000000 1.0
C      1  0.2600260000000  0.5957390000000  0.6347910000000 1.0
C      1  0.3830380000000  0.5076520000000  0.6099410000000 1.0
C      1  0.5157490000000  0.6209110000000  0.3019740000000 1.0
C      1  0.5982490000000  0.5735850000000  0.2869880000000 1.0
C      1  0.5795650000000  0.4859570000000  0.3855130000000 1.0
C      1  0.6198790000000  0.3965210000000  0.5203020000000 1.0
C      1  0.6868250000000  0.5478020000000  0.3379970000000 1.0
C      1  0.3132150000000  0.4499170000000  0.4488020000000 1.0
C      1  0.3339160000000  0.5452880000000  0.6812140000000 1.0
C      1  0.4706200000000  0.5826460000000  0.4213060000000 1.0
C      1  0.4896490000000  0.4293040000000  0.2468100000000 1.0
C      1  0.5829940000000  0.3502120000000  0.6567470000000 1.0
C      1  0.2600000000000  0.5116900000000  0.3836300000000 1.0
C      1  0.4351360000000  0.5650540000000  0.2942060000000 1.0
C      1  0.5853790000000  0.4620020000000  0.2783290000000 1.0
C      1  0.3815190000000  0.3777720000000  0.5655750000000 1.0
C      1  0.4939820000000  0.2454770000000  0.4422460000000 1.0
C      1  0.3442920000000  0.5422590000000  0.5078090000000 1.0
C      1  0.4191640000000  0.6254530000000  0.7438590000000 1.0
C      1  0.5762200000000  0.6313660000000  0.6787650000000 1.0
C      1  0.6179730000000  0.3695950000000  0.3357240000000 1.0
C      1  0.6992930000000  0.5974430000000  0.4232830000000 1.0
C      1  0.5827970000000  0.5521940000000  0.5654370000000 1.0
C      1  0.4924440000000  0.5808090000000  0.5891780000000 1.0
C      1  0.5322680000000  0.4601330000000  0.5418180000000 1.0
C      1  0.4903720000000  0.4765770000000  0.7218510000000 1.0
C      1  0.5683680000000  0.5760570000000  0.4163570000000 1.0
C      1  0.7237660000000  0.5389610000000  0.4974630000000 1.0
C      1  0.4241590000000  0.4917380000000  0.3715120000000 1.0
C      1  0.5270400000000  0.3313220000000  0.3736140000000 1.0
C      1  0.4447130000000  0.3863590000000  0.3349870000000 1.0
C      1  0.3627770000000  0.6900680000000  0.5266330000000 1.0
C      1  0.5662730000000  0.6944580000000  0.6069660000000 1.0
C      1  0.2446020000000  0.4984040000000  0.5947390000000 1.0
C      1  0.4413180000000  0.6727440000000  0.3720360000000 1.0
C      1  0.2771920000000  0.5938470000000  0.3818160000000 1.0
C      1  0.6542430000000  0.5745100000000  0.6753500000000 1.0
C      1  0.6941320000000  0.3603560000000  0.4161600000000 1.0
C      1  0.4217950000000  0.3220400000000  0.4871730000000 1.0
C      1  0.5489860000000  0.7012860000000  0.5126940000000 1.0
C      1  0.5772180000000  0.2165200000000  0.5069780000000 1.0
C      1  0.3732770000000  0.3768290000000  0.4122610000000 1.0
C      1  0.6485710000000  0.4896530000000  0.7186120000000 1.0
C      1  0.3514310000000  0.6391560000000  0.4336990000000 1.0
C      1  0.4140750000000  0.4321470000000  0.7485760000000 1.0
C      1  0.4385220000000  0.5809820000000  0.5147860000000 1.0
C      1  0.5345860000000  0.3394050000000  0.4867870000000 1.0
C      1  0.4515030000000  0.4387520000000  0.6001730000000 1.0
C      1  0.6995830000000  0.4499900000000  0.3452770000000 1.0
C      1  0.6589390000000  0.2925390000000  0.4948270000000 1.0
C      1  0.5026340000000  0.4551450000000  0.4400790000000 1.0
C      1  0.4834260000000  0.5769820000000  0.6970840000000 1.0
C      1  0.7096980000000  0.4486760000000  0.4809080000000 1.0
C      1  0.6139540000000  0.6545990000000  0.4537320000000 1.0
END
