TITL C-986974-580-539 -1.73848238174335e-06 3375 -345.254184891229 0 0 60 (C1) n - 1
REM
REM in /home/bkarasulu/work/CARBON/AIRSS/Generating-Clusters/REBO/Higher-Symm/Only-C60
REM
REM
REM
REM
REM
REM ./C.cell (a2850807a9bf4ad07a5b6933b78d9264)
REM AIRSS Version 0.9.1 bugfix July 2018 build 013d7b7c2542+ Fri, 06 Jul 2018 19:26:36 +0100
REM compiler GCC version 9.2.1 20190827 (Red Hat 9.2.1-1)
REM options -cpp -mtune=generic -march=x86-64 -g -O0 -fpre-include=/usr/include/finclude/math-vector-fortran.h
REM seed 556824649 70653719 665856143 -1468473570 -922309572 -2015307720 -234507654 -876365862 -120076382 1056477627 1017824856 1956988444 -53121154 1236761769 381949951 -599751278 -1268298264 402227828 1002391464 -783703618 68182530 -1614069676 -570086161 1097829412 -586803791 -761655995 69477482 360474662 1715290423 -134107001 -1733226050 -931853057 492498739
REM
CELL 1.54180   15.00000   15.00000   15.00000   90.00000   90.00000   90.00000
LATT -1
SFAC C  
C      1  0.5521750000000  0.5904940000000  0.4096340000000 1.0
C      1  0.4443280000000  0.3930670000000  0.4140120000000 1.0
C      1  0.4497100000000  0.5885420000000  0.4240240000000 1.0
C      1  0.5454770000000  0.4078480000000  0.3979030000000 1.0
C      1  0.5496390000000  0.6412350000000  0.6798760000000 1.0
C      1  0.4449460000000  0.3739520000000  0.6825340000000 1.0
C      1  0.4471460000000  0.6429680000000  0.6832510000000 1.0
C      1  0.5477840000000  0.3792100000000  0.6723870000000 1.0
C      1  0.3677660000000  0.5703030000000  0.7148290000000 1.0
C      1  0.6232520000000  0.4601560000000  0.6899310000000 1.0
C      1  0.6289410000000  0.5691860000000  0.7096170000000 1.0
C      1  0.3723500000000  0.4594990000000  0.6959740000000 1.0
C      1  0.5710470000000  0.5567210000000  0.6110920000000 1.0
C      1  0.4358750000000  0.4488720000000  0.6012720000000 1.0
C      1  0.4294800000000  0.5536870000000  0.6204420000000 1.0
C      1  0.5681560000000  0.4510850000000  0.5903140000000 1.0
C      1  0.5854460000000  0.4392380000000  0.4873150000000 1.0
C      1  0.4149440000000  0.5417950000000  0.5086020000000 1.0
C      1  0.4100330000000  0.4330980000000  0.5008360000000 1.0
C      1  0.5875170000000  0.5458840000000  0.4990730000000 1.0
C      1  0.6798990000000  0.5928470000000  0.5408140000000 1.0
C      1  0.3108120000000  0.3953660000000  0.5374780000000 1.0
C      1  0.3210960000000  0.5901760000000  0.5424550000000 1.0
C      1  0.6816730000000  0.3964340000000  0.5291200000000 1.0
C      1  0.3393410000000  0.4005220000000  0.3757580000000 1.0
C      1  0.6630610000000  0.6009960000000  0.3844860000000 1.0
C      1  0.6575180000000  0.4082660000000  0.3683930000000 1.0
C      1  0.3481550000000  0.5872860000000  0.3808440000000 1.0
C      1  0.2905280000000  0.4459940000000  0.4437910000000 1.0
C      1  0.7100710000000  0.5473060000000  0.4470300000000 1.0
C      1  0.7078610000000  0.4510340000000  0.4377790000000 1.0
C      1  0.2966430000000  0.5421070000000  0.4471990000000 1.0
C      1  0.5460400000000  0.7397440000000  0.5351930000000 1.0
C      1  0.4477120000000  0.2503850000000  0.5550420000000 1.0
C      1  0.4512690000000  0.7390300000000  0.5354150000000 1.0
C      1  0.5420530000000  0.2516660000000  0.5514810000000 1.0
C      1  0.4483250000000  0.4453180000000  0.3146580000000 1.0
C      1  0.5704580000000  0.5587180000000  0.3008260000000 1.0
C      1  0.5572790000000  0.4565850000000  0.2958010000000 1.0
C      1  0.4631280000000  0.5472400000000  0.3205430000000 1.0
C      1  0.5903640000000  0.7197640000000  0.6307460000000 1.0
C      1  0.4039870000000  0.2892460000000  0.6458200000000 1.0
C      1  0.4067080000000  0.7195620000000  0.6313330000000 1.0
C      1  0.5890350000000  0.2932440000000  0.6382880000000 1.0
C      1  0.4535190000000  0.2843130000000  0.2687230000000 1.0
C      1  0.5477890000000  0.7259330000000  0.2941770000000 1.0
C      1  0.5456590000000  0.2892720000000  0.2668650000000 1.0
C      1  0.4563680000000  0.7150380000000  0.2905920000000 1.0
C      1  0.4049440000000  0.6391720000000  0.3093190000000 1.0
C      1  0.6043860000000  0.3586810000000  0.2895510000000 1.0
C      1  0.6109690000000  0.6591080000000  0.3119210000000 1.0
C      1  0.3951020000000  0.3519560000000  0.2976500000000 1.0
C      1  0.2968940000000  0.5465390000000  0.6301150000000 1.0
C      1  0.7059290000000  0.4429170000000  0.6154460000000 1.0
C      1  0.7025360000000  0.5459050000000  0.6269430000000 1.0
C      1  0.2881120000000  0.4438980000000  0.6229450000000 1.0
C      1  0.6469020000000  0.6906990000000  0.5456590000000 1.0
C      1  0.3487040000000  0.3001870000000  0.5549690000000 1.0
C      1  0.3515170000000  0.6885650000000  0.5458860000000 1.0
C      1  0.6416430000000  0.3021400000000  0.5460270000000 1.0
END
