TITL C-986979-5873-444 0.00653582408171035 3375 -341.070189233731 0 0 60 (C1) n - 1
REM
REM in /home/bkarasulu/work/CARBON/AIRSS/Generating-Clusters/REBO/Higher-Symm/Only-C60
REM
REM
REM
REM
REM
REM ./C.cell (a2850807a9bf4ad07a5b6933b78d9264)
REM AIRSS Version 0.9.1 bugfix July 2018 build 013d7b7c2542+ Fri, 06 Jul 2018 19:26:36 +0100
REM compiler GCC version 9.2.1 20190827 (Red Hat 9.2.1-1)
REM options -cpp -mtune=generic -march=x86-64 -g -O0 -fpre-include=/usr/include/finclude/math-vector-fortran.h
REM seed 1797655743 334891121 1590328653 799797355 -407604789 549434102 -941418460 1329504139 1117412932 1191601366 -576116734 1181482859 -283235788 -927559553 -1164633923 1904167399 15906694 -814606861 -1425079308 1386761888 -1902574288 -1053194506 -416896492 495705216 1580032304 823218903 1803512531 -247797867 -204172713 761028937 1976477987 -1920566946 1770152207
REM
CELL 1.54180   15.00000   15.00000   15.00000   90.00000   90.00000   90.00000
LATT -1
SFAC C  
C      1  0.4883300000000  0.5978880000000  0.6732550000000 1.0
C      1  0.4815580000000  0.6494680000000  0.3407430000000 1.0
C      1  0.7207790000000  0.5063990000000  0.5322710000000 1.0
C      1  0.6452660000000  0.7054080000000  0.5525500000000 1.0
C      1  0.5366440000000  0.6049670000000  0.4190210000000 1.0
C      1  0.5878970000000  0.3467590000000  0.6325490000000 1.0
C      1  0.4886750000000  0.4098680000000  0.3610110000000 1.0
C      1  0.2426060000000  0.4367340000000  0.6059740000000 1.0
C      1  0.3752000000000  0.5701410000000  0.4528670000000 1.0
C      1  0.5293740000000  0.4919430000000  0.4296600000000 1.0
C      1  0.4816880000000  0.4631580000000  0.5284280000000 1.0
C      1  0.5384280000000  0.3052530000000  0.5621670000000 1.0
C      1  0.4410840000000  0.4953650000000  0.2718420000000 1.0
C      1  0.4012520000000  0.4139730000000  0.5939960000000 1.0
C      1  0.4680380000000  0.5904150000000  0.4948020000000 1.0
C      1  0.7352100000000  0.3710430000000  0.4317110000000 1.0
C      1  0.3324350000000  0.4950920000000  0.5241580000000 1.0
C      1  0.4572960000000  0.4336400000000  0.7125540000000 1.0
C      1  0.5287500000000  0.6313260000000  0.2506180000000 1.0
C      1  0.4289960000000  0.7294530000000  0.3832020000000 1.0
C      1  0.3830890000000  0.7258260000000  0.4618320000000 1.0
C      1  0.2190520000000  0.4978200000000  0.4337840000000 1.0
C      1  0.2978720000000  0.6198280000000  0.5491190000000 1.0
C      1  0.3710080000000  0.6792090000000  0.5442440000000 1.0
C      1  0.5500120000000  0.5548910000000  0.2236110000000 1.0
C      1  0.6228970000000  0.4492580000000  0.5288040000000 1.0
C      1  0.4295910000000  0.5378560000000  0.7256240000000 1.0
C      1  0.7466320000000  0.4016190000000  0.5408220000000 1.0
C      1  0.5540460000000  0.2839810000000  0.4651450000000 1.0
C      1  0.5203720000000  0.5522760000000  0.5794870000000 1.0
C      1  0.6812460000000  0.3477870000000  0.6163820000000 1.0
C      1  0.7156940000000  0.4638910000000  0.3791870000000 1.0
C      1  0.6109190000000  0.4598730000000  0.3562530000000 1.0
C      1  0.5621420000000  0.7057940000000  0.6308040000000 1.0
C      1  0.4842260000000  0.3154040000000  0.4059680000000 1.0
C      1  0.3000070000000  0.3338380000000  0.4876470000000 1.0
C      1  0.6049680000000  0.4882040000000  0.7166010000000 1.0
C      1  0.6515740000000  0.6360990000000  0.6399370000000 1.0
C      1  0.6217910000000  0.3962500000000  0.4437130000000 1.0
C      1  0.3607030000000  0.4789090000000  0.6681530000000 1.0
C      1  0.7067560000000  0.6221700000000  0.4152210000000 1.0
C      1  0.2858040000000  0.5382410000000  0.6181820000000 1.0
C      1  0.4135370000000  0.5713300000000  0.3504400000000 1.0
C      1  0.4582150000000  0.6751650000000  0.5964360000000 1.0
C      1  0.5369160000000  0.7017320000000  0.5191110000000 1.0
C      1  0.6200420000000  0.6601070000000  0.4530360000000 1.0
C      1  0.2298190000000  0.3851040000000  0.4287680000000 1.0
C      1  0.2623210000000  0.5851260000000  0.4580450000000 1.0
C      1  0.7200780000000  0.2906430000000  0.5341110000000 1.0
C      1  0.5448890000000  0.4586160000000  0.2734990000000 1.0
C      1  0.6279560000000  0.5492850000000  0.5786260000000 1.0
C      1  0.3039620000000  0.3753450000000  0.5748220000000 1.0
C      1  0.5490330000000  0.4131500000000  0.6934620000000 1.0
C      1  0.3915300000000  0.4631040000000  0.3664240000000 1.0
C      1  0.3211610000000  0.4498010000000  0.4261780000000 1.0
C      1  0.7374080000000  0.5392730000000  0.4361690000000 1.0
C      1  0.3896550000000  0.3230220000000  0.4512840000000 1.0
C      1  0.5877000000000  0.5771090000000  0.7020480000000 1.0
C      1  0.6574510000000  0.2884160000000  0.4443850000000 1.0
C      1  0.4584190000000  0.3563520000000  0.5292620000000 1.0
END
