TITL C-986974-580-296 2.32409162049982e-07 3375 -359.217516037944 0 0 60 (C6) n - 1
REM
REM in /home/bkarasulu/work/CARBON/AIRSS/Generating-Clusters/REBO/Higher-Symm/Only-C60
REM
REM
REM
REM
REM
REM ./C.cell (a2850807a9bf4ad07a5b6933b78d9264)
REM AIRSS Version 0.9.1 bugfix July 2018 build 013d7b7c2542+ Fri, 06 Jul 2018 19:26:36 +0100
REM compiler GCC version 9.2.1 20190827 (Red Hat 9.2.1-1)
REM options -cpp -mtune=generic -march=x86-64 -g -O0 -fpre-include=/usr/include/finclude/math-vector-fortran.h
REM seed 952710172 -1002800973 -338539225 829638242 -1516474458 -1382146331 -1812605580 1991394215 -336550010 864133447 -642516219 120171773 546658469 2076474169 1871435836 680461043 1310351549 -1279620379 1105451406 -1516495780 -1754601242 -846872459 -280401676 1865424630 1897289057 -1362614388 -2033632331 833374252 1932049378 -1304541864 -207374455 -528260476 -1339363482
REM
CELL 1.54180   15.00000   15.00000   15.00000   90.00000   90.00000   90.00000
LATT -1
SFAC C  
C      1  0.6807950000000  0.4118250000000  0.5372080000000 1.0
C      1  0.6807950000000  0.4236900000000  0.4422420000000 1.0
C      1  0.6807950000000  0.5118650000000  0.4050340000000 1.0
C      1  0.6807950000000  0.5881750000000  0.4627920000000 1.0
C      1  0.6807950000000  0.5763100000000  0.5577580000000 1.0
C      1  0.6807950000000  0.4881360000000  0.5949660000000 1.0
C      1  0.5327460000000  0.3747870000000  0.7336200000000 1.0
C      1  0.5327460000000  0.2350720000000  0.5083730000000 1.0
C      1  0.5327460000000  0.3602850000000  0.2747520000000 1.0
C      1  0.5327460000000  0.6252130000000  0.2663800000000 1.0
C      1  0.5327460000000  0.7649280000000  0.4916270000000 1.0
C      1  0.5327460000000  0.6397150000000  0.7252480000000 1.0
C      1  0.5142790000000  0.2948140000000  0.6619230000000 1.0
C      1  0.5142790000000  0.2571780000000  0.4032650000000 1.0
C      1  0.5142790000000  0.4623640000000  0.2413430000000 1.0
C      1  0.5142790000000  0.7051860000000  0.3380770000000 1.0
C      1  0.5142790000000  0.7428220000000  0.5967350000000 1.0
C      1  0.5142790000000  0.5376360000000  0.7586570000000 1.0
C      1  0.5877980000000  0.7306090000000  0.4115190000000 1.0
C      1  0.5877980000000  0.6919320000000  0.6554730000000 1.0
C      1  0.5877980000000  0.4613230000000  0.7439540000000 1.0
C      1  0.5877980000000  0.2693910000000  0.5884810000000 1.0
C      1  0.5877980000000  0.3080680000000  0.3445270000000 1.0
C      1  0.5877980000000  0.5386780000000  0.2560460000000 1.0
C      1  0.4287100000000  0.5949100000000  0.7097960000000 1.0
C      1  0.4287100000000  0.3657660000000  0.6870920000000 1.0
C      1  0.4287110000000  0.2708570000000  0.4772960000000 1.0
C      1  0.4287110000000  0.4050900000000  0.2902040000000 1.0
C      1  0.4287100000000  0.6342330000000  0.3129080000000 1.0
C      1  0.4287100000000  0.7291430000000  0.5227040000000 1.0
C      1  0.6550480000000  0.3513790000000  0.3869730000000 1.0
C      1  0.6550480000000  0.5235740000000  0.3147770000000 1.0
C      1  0.6550480000000  0.6721950000000  0.4278040000000 1.0
C      1  0.6550480000000  0.6486210000000  0.6130270000000 1.0
C      1  0.6550480000000  0.4764260000000  0.6852230000000 1.0
C      1  0.6550480000000  0.3278050000000  0.5721960000000 1.0
C      1  0.4772700000000  0.5121500000000  0.4087090000000 1.0
C      1  0.4772700000000  0.5851350000000  0.4648770000000 1.0
C      1  0.4772700000000  0.5729850000000  0.5561680000000 1.0
C      1  0.4772700000000  0.4878500000000  0.5912910000000 1.0
C      1  0.4772700000000  0.4148650000000  0.5351230000000 1.0
C      1  0.4772700000000  0.4270150000000  0.4438320000000 1.0
C      1  0.4684420000000  0.6455150000000  0.6223440000000 1.0
C      1  0.4684420000000  0.4668050000000  0.6871910000000 1.0
C      1  0.4684420000000  0.3212900000000  0.5648480000000 1.0
C      1  0.4684420000000  0.3544850000000  0.3776560000000 1.0
C      1  0.4684420000000  0.5331950000000  0.3128080000000 1.0
C      1  0.4684420000000  0.6787100000000  0.4351520000000 1.0
C      1  0.3097920000000  0.5259870000000  0.3925500000000 1.0
C      1  0.3097920000000  0.6060480000000  0.4687810000000 1.0
C      1  0.3097920000000  0.5800610000000  0.5762310000000 1.0
C      1  0.3097920000000  0.4740120000000  0.6074500000000 1.0
C      1  0.3097920000000  0.3939520000000  0.5312190000000 1.0
C      1  0.3097920000000  0.4199390000000  0.4237690000000 1.0
C      1  0.3451200000000  0.4471440000000  0.3215320000000 1.0
C      1  0.3451200000000  0.6281300000000  0.3649910000000 1.0
C      1  0.3451190000000  0.6809860000000  0.5434600000000 1.0
C      1  0.3451190000000  0.5528560000000  0.6784680000000 1.0
C      1  0.3451200000000  0.3718700000000  0.6350090000000 1.0
C      1  0.3451200000000  0.3190140000000  0.4565400000000 1.0
END
