TITL C-986979-5873-348 -0.0173681565153095 3375 -356.130966532908 0 0 60 (C1) n - 1
REM
REM in /home/bkarasulu/work/CARBON/AIRSS/Generating-Clusters/REBO/Higher-Symm/Only-C60
REM
REM
REM
REM
REM
REM ./C.cell (a2850807a9bf4ad07a5b6933b78d9264)
REM AIRSS Version 0.9.1 bugfix July 2018 build 013d7b7c2542+ Fri, 06 Jul 2018 19:26:36 +0100
REM compiler GCC version 9.2.1 20190827 (Red Hat 9.2.1-1)
REM options -cpp -mtune=generic -march=x86-64 -g -O0 -fpre-include=/usr/include/finclude/math-vector-fortran.h
REM seed 140099740 170174402 -547144779 -1453219746 1879462548 -2011988307 -959565967 -1732118672 -2011941627 -408135151 -603197675 1536009198 -952700145 173666706 -202965767 -1072141766 -1319133684 576814197 1277275388 661180605 590443967 1131751418 -942876769 -1003215791 -1743430292 168595535 -312120922 372159466 -861422044 -420970694 -1607017164 -646859027 -1946022368
REM
CELL 1.54180   15.00000   15.00000   15.00000   90.00000   90.00000   90.00000
LATT -1
SFAC C  
C      1  0.5898040000000  0.3472740000000  0.4052220000000 1.0
C      1  0.4054880000000  0.6489940000000  0.3989710000000 1.0
C      1  0.4060120000000  0.3498060000000  0.3971370000000 1.0
C      1  0.5891920000000  0.6541910000000  0.4025000000000 1.0
C      1  0.2258890000000  0.5400490000000  0.6168700000000 1.0
C      1  0.7770240000000  0.4604510000000  0.6181010000000 1.0
C      1  0.7769060000000  0.5436060000000  0.6181800000000 1.0
C      1  0.2257170000000  0.4568410000000  0.6164420000000 1.0
C      1  0.4522410000000  0.6181550000000  0.3141800000000 1.0
C      1  0.5465580000000  0.3812120000000  0.3180250000000 1.0
C      1  0.5454190000000  0.6193850000000  0.3164580000000 1.0
C      1  0.4534710000000  0.3811220000000  0.3133920000000 1.0
C      1  0.3955600000000  0.5507640000000  0.5455880000000 1.0
C      1  0.6057690000000  0.4489000000000  0.5479080000000 1.0
C      1  0.6098450000000  0.5508840000000  0.5373630000000 1.0
C      1  0.3906580000000  0.4499140000000  0.5364380000000 1.0
C      1  0.3371100000000  0.5451670000000  0.6898760000000 1.0
C      1  0.6682540000000  0.4547470000000  0.6947580000000 1.0
C      1  0.6698760000000  0.5377910000000  0.6972640000000 1.0
C      1  0.3348820000000  0.4617220000000  0.6926290000000 1.0
C      1  0.6347700000000  0.3597770000000  0.6415660000000 1.0
C      1  0.3723270000000  0.6412440000000  0.6390440000000 1.0
C      1  0.3782030000000  0.3698730000000  0.6401950000000 1.0
C      1  0.6260310000000  0.6279940000000  0.6431980000000 1.0
C      1  0.5566480000000  0.6889760000000  0.5881190000000 1.0
C      1  0.4530170000000  0.3115920000000  0.5778660000000 1.0
C      1  0.4523880000000  0.6920320000000  0.5768460000000 1.0
C      1  0.5577590000000  0.3083120000000  0.5868710000000 1.0
C      1  0.5428970000000  0.4131150000000  0.4752960000000 1.0
C      1  0.4546280000000  0.5883150000000  0.4729540000000 1.0
C      1  0.4532570000000  0.4125430000000  0.4699820000000 1.0
C      1  0.5443560000000  0.5869100000000  0.4716760000000 1.0
C      1  0.5892730000000  0.4547550000000  0.2766700000000 1.0
C      1  0.4130470000000  0.5450960000000  0.2688280000000 1.0
C      1  0.4140590000000  0.4541000000000  0.2680860000000 1.0
C      1  0.5883440000000  0.5457200000000  0.2755040000000 1.0
C      1  0.4513880000000  0.4564060000000  0.6297630000000 1.0
C      1  0.5542110000000  0.5404520000000  0.6322240000000 1.0
C      1  0.5494620000000  0.4298680000000  0.6409450000000 1.0
C      1  0.4561140000000  0.5687830000000  0.6364890000000 1.0
C      1  0.6877160000000  0.3598380000000  0.3980360000000 1.0
C      1  0.3078700000000  0.6362180000000  0.3925980000000 1.0
C      1  0.3081040000000  0.3617640000000  0.3912660000000 1.0
C      1  0.6874940000000  0.6426790000000  0.3963440000000 1.0
C      1  0.2960220000000  0.3994230000000  0.5673230000000 1.0
C      1  0.7066300000000  0.5999740000000  0.5684890000000 1.0
C      1  0.7074580000000  0.4028670000000  0.5688990000000 1.0
C      1  0.2951740000000  0.5986600000000  0.5677540000000 1.0
C      1  0.2498720000000  0.4525350000000  0.4045460000000 1.0
C      1  0.7423570000000  0.5478640000000  0.4037320000000 1.0
C      1  0.7421880000000  0.4551440000000  0.4040420000000 1.0
C      1  0.2499340000000  0.5449150000000  0.4047510000000 1.0
C      1  0.5436010000000  0.2810550000000  0.4854130000000 1.0
C      1  0.4411620000000  0.7203460000000  0.4749880000000 1.0
C      1  0.4408170000000  0.2805270000000  0.4754560000000 1.0
C      1  0.5444770000000  0.7187150000000  0.4848990000000 1.0
C      1  0.2537870000000  0.6229130000000  0.4805740000000 1.0
C      1  0.7468350000000  0.3786290000000  0.4811910000000 1.0
C      1  0.7466490000000  0.6252550000000  0.4803430000000 1.0
C      1  0.2540000000000  0.3738410000000  0.4799290000000 1.0
END
