TITL C-986975-4297-991 0.00667101431194245 3375 -340.320294357873 0 0 60 (C1) n - 1
REM
REM in /home/bkarasulu/work/CARBON/AIRSS/Generating-Clusters/REBO/Higher-Symm/Only-C60
REM
REM
REM
REM
REM
REM ./C.cell (a2850807a9bf4ad07a5b6933b78d9264)
REM AIRSS Version 0.9.1 bugfix July 2018 build 013d7b7c2542+ Fri, 06 Jul 2018 19:26:36 +0100
REM compiler GCC version 9.2.1 20190827 (Red Hat 9.2.1-1)
REM options -cpp -mtune=generic -march=x86-64 -g -O0 -fpre-include=/usr/include/finclude/math-vector-fortran.h
REM seed -207328486 -784262611 -386241318 -1379852411 -300102517 -269632840 -659296279 1058181789 -510285396 -765348581 -604591008 1817225165 -1681950901 1319825364 903677304 1019780409 -1739188795 -554910884 1193632264 -1242117580 -1263211706 -2108560490 820830348 -944127710 401377263 -1197229773 904281158 -1473215936 641488873 1781813502 -1484643836 528599970 1441609215
REM
CELL 1.54180   15.00000   15.00000   15.00000   90.00000   90.00000   90.00000
LATT -1
SFAC C  
C      1  0.6958260000000  0.6510300000000  0.5333080000000 1.0
C      1  0.5328520000000  0.6063850000000  0.3231480000000 1.0
C      1  0.3207160000000  0.6111630000000  0.4679250000000 1.0
C      1  0.4760270000000  0.6443100000000  0.7005220000000 1.0
C      1  0.3366920000000  0.5935800000000  0.5659390000000 1.0
C      1  0.4345820000000  0.6017030000000  0.3098470000000 1.0
C      1  0.6937470000000  0.6179440000000  0.4389050000000 1.0
C      1  0.5691480000000  0.6770170000000  0.6862430000000 1.0
C      1  0.5863960000000  0.3019760000000  0.6903290000000 1.0
C      1  0.6715200000000  0.3372720000000  0.4259920000000 1.0
C      1  0.4129600000000  0.3637950000000  0.3353700000000 1.0
C      1  0.3205650000000  0.3443230000000  0.5885060000000 1.0
C      1  0.3894070000000  0.3161970000000  0.6553500000000 1.0
C      1  0.3310930000000  0.3697060000000  0.3929910000000 1.0
C      1  0.6069560000000  0.3739820000000  0.3592970000000 1.0
C      1  0.6588320000000  0.2953440000000  0.6211940000000 1.0
C      1  0.6350750000000  0.2384690000000  0.4474350000000 1.0
C      1  0.4580060000000  0.2697770000000  0.3616900000000 1.0
C      1  0.3679830000000  0.2603590000000  0.5369870000000 1.0
C      1  0.5478140000000  0.2229720000000  0.6259670000000 1.0
C      1  0.3748860000000  0.2751540000000  0.4263550000000 1.0
C      1  0.5681270000000  0.2732660000000  0.3729640000000 1.0
C      1  0.6262980000000  0.2161730000000  0.5555640000000 1.0
C      1  0.4380910000000  0.2311020000000  0.6101400000000 1.0
C      1  0.5448560000000  0.8702460000000  0.6004450000000 1.0
C      1  0.5933550000000  0.8100030000000  0.4315370000000 1.0
C      1  0.4166920000000  0.8072020000000  0.3703080000000 1.0
C      1  0.3873220000000  0.7944390000000  0.5423670000000 1.0
C      1  0.4549060000000  0.8304070000000  0.6074470000000 1.0
C      1  0.3575820000000  0.8189890000000  0.4500770000000 1.0
C      1  0.5155340000000  0.8075720000000  0.3683760000000 1.0
C      1  0.6039700000000  0.8481410000000  0.5235670000000 1.0
C      1  0.3048000000000  0.5545760000000  0.3949810000000 1.0
C      1  0.4125690000000  0.5770840000000  0.7096170000000 1.0
C      1  0.7044190000000  0.6102030000000  0.6171710000000 1.0
C      1  0.5918480000000  0.5342100000000  0.3336970000000 1.0
C      1  0.6737230000000  0.5510720000000  0.3782930000000 1.0
C      1  0.6478330000000  0.6259250000000  0.6875610000000 1.0
C      1  0.3489660000000  0.5519350000000  0.6480710000000 1.0
C      1  0.3578960000000  0.5506510000000  0.3202270000000 1.0
C      1  0.7174320000000  0.3573130000000  0.5827410000000 1.0
C      1  0.5611930000000  0.4454620000000  0.3232740000000 1.0
C      1  0.2721990000000  0.4140800000000  0.4489380000000 1.0
C      1  0.4364220000000  0.3566870000000  0.7252480000000 1.0
C      1  0.2676680000000  0.4024850000000  0.5398040000000 1.0
C      1  0.4709560000000  0.4281300000000  0.3004650000000 1.0
C      1  0.7233790000000  0.3764000000000  0.4932920000000 1.0
C      1  0.5263000000000  0.3500010000000  0.7418210000000 1.0
C      1  0.5663200000000  0.7578300000000  0.6134650000000 1.0
C      1  0.6403800000000  0.7088020000000  0.4274540000000 1.0
C      1  0.4428480000000  0.6967000000000  0.3606710000000 1.0
C      1  0.3874370000000  0.6859660000000  0.5542590000000 1.0
C      1  0.4596260000000  0.7186830000000  0.6242130000000 1.0
C      1  0.3726130000000  0.7059060000000  0.4439140000000 1.0
C      1  0.5567320000000  0.7025440000000  0.3626190000000 1.0
C      1  0.6413230000000  0.7430630000000  0.5356420000000 1.0
C      1  0.4809650000000  0.1351070000000  0.6519230000000 1.0
C      1  0.6692620000000  0.1377350000000  0.4861410000000 1.0
C      1  0.5216030000000  0.1989380000000  0.3009670000000 1.0
C      1  0.3154720000000  0.1877560000000  0.4674390000000 1.0
END
