TITL C-986973-6940-1180 -0.00793824051890197 3375 -334.851747040119 0 0 60 (Cs) n - 1
REM
REM in /home/bkarasulu/work/CARBON/AIRSS/Generating-Clusters/REBO/Higher-Symm/Only-C60
REM
REM
REM
REM
REM
REM ./C.cell (a2850807a9bf4ad07a5b6933b78d9264)
REM AIRSS Version 0.9.1 bugfix July 2018 build 013d7b7c2542+ Fri, 06 Jul 2018 19:26:36 +0100
REM compiler GCC version 9.2.1 20190827 (Red Hat 9.2.1-1)
REM options -cpp -mtune=generic -march=x86-64 -g -O0 -fpre-include=/usr/include/finclude/math-vector-fortran.h
REM seed 1232318152 -303846138 2062868726 -1757702109 -962147509 -479194020 1637151615 -2122994401 1621797475 2062541439 -1591281983 936913439 836179266 -1088988393 -389777955 -1274496223 1977836513 -1938339544 -1037368210 1508346326 248028107 -1847630954 -910739513 -1779456105 -1468447626 -749765237 1789405879 195441927 -187807051 1113002939 -1615311143 -643913633 -1170163946
REM
CELL 1.54180   15.00000   15.00000   15.00000   90.00000   90.00000   90.00000
LATT -1
SFAC C  
C      1  0.5400670000000  0.5459760000000  0.7547520000000 1.0
C      1  0.7176500000000  0.5474720000000  0.3265570000000 1.0
C      1  0.2523650000000  0.5459580000000  0.4106560000000 1.0
C      1  0.5400690000000  0.4540230000000  0.7547510000000 1.0
C      1  0.7176470000000  0.4525070000000  0.3265530000000 1.0
C      1  0.2523660000000  0.4540430000000  0.4106560000000 1.0
C      1  0.4661270000000  0.6126200000000  0.3002180000000 1.0
C      1  0.3434360000000  0.6149330000000  0.6316920000000 1.0
C      1  0.6891060000000  0.6149370000000  0.5711490000000 1.0
C      1  0.4661200000000  0.3873810000000  0.3002150000000 1.0
C      1  0.3434370000000  0.3850660000000  0.6316900000000 1.0
C      1  0.6891080000000  0.3850700000000  0.5711460000000 1.0
C      1  0.6620420000000  0.3942300000000  0.3980550000000 1.0
C      1  0.3276290000000  0.3724700000000  0.4339680000000 1.0
C      1  0.5271670000000  0.3718600000000  0.6774650000000 1.0
C      1  0.6620530000000  0.6057560000000  0.3980600000000 1.0
C      1  0.3276330000000  0.6275260000000  0.4339730000000 1.0
C      1  0.5271650000000  0.6281250000000  0.6774500000000 1.0
C      1  0.4298430000000  0.4055090000000  0.3989020000000 1.0
C      1  0.4453700000000  0.4032970000000  0.6058200000000 1.0
C      1  0.6209630000000  0.4098400000000  0.4929240000000 1.0
C      1  0.4298420000000  0.5944930000000  0.3989030000000 1.0
C      1  0.4453690000000  0.5967030000000  0.6058220000000 1.0
C      1  0.6209630000000  0.5901700000000  0.4929260000000 1.0
C      1  0.4114800000000  0.5415600000000  0.4905110000000 1.0
C      1  0.5315510000000  0.5412300000000  0.5772060000000 1.0
C      1  0.5484050000000  0.5441960000000  0.4293840000000 1.0
C      1  0.4115120000000  0.4584470000000  0.4905220000000 1.0
C      1  0.5315430000000  0.4587880000000  0.5771430000000 1.0
C      1  0.5484050000000  0.4558080000000  0.4293830000000 1.0
C      1  0.4055690000000  0.3472280000000  0.5149600000000 1.0
C      1  0.5605790000000  0.3493610000000  0.5693110000000 1.0
C      1  0.5284920000000  0.3510100000000  0.4179220000000 1.0
C      1  0.4055760000000  0.6527740000000  0.5149640000000 1.0
C      1  0.5605780000000  0.6506410000000  0.5692960000000 1.0
C      1  0.5284920000000  0.6489920000000  0.4179260000000 1.0
C      1  0.4796510000000  0.2752810000000  0.5991560000000 1.0
C      1  0.5906200000000  0.2860410000000  0.4559080000000 1.0
C      1  0.4190870000000  0.2761010000000  0.4274160000000 1.0
C      1  0.4796470000000  0.7247200000000  0.5991590000000 1.0
C      1  0.5906170000000  0.7139580000000  0.4559150000000 1.0
C      1  0.4190850000000  0.7239010000000  0.4274170000000 1.0
C      1  0.5355500000000  0.5506470000000  0.2765690000000 1.0
C      1  0.2836860000000  0.5511050000000  0.5902280000000 1.0
C      1  0.6841180000000  0.5515920000000  0.6444820000000 1.0
C      1  0.5355470000000  0.4493490000000  0.2765650000000 1.0
C      1  0.2836870000000  0.4488950000000  0.5902270000000 1.0
C      1  0.6841190000000  0.4484130000000  0.6444800000000 1.0
C      1  0.6263290000000  0.4114520000000  0.7120640000000 1.0
C      1  0.6214660000000  0.4122470000000  0.2994310000000 1.0
C      1  0.2521440000000  0.4120160000000  0.5072330000000 1.0
C      1  0.6263280000000  0.5885500000000  0.7120670000000 1.0
C      1  0.6214710000000  0.5877400000000  0.2994380000000 1.0
C      1  0.2521430000000  0.5879840000000  0.5072340000000 1.0
C      1  0.6660540000000  0.7120200000000  0.5173240000000 1.0
C      1  0.4426650000000  0.7107710000000  0.3368410000000 1.0
C      1  0.3907710000000  0.7143410000000  0.6319300000000 1.0
C      1  0.6660590000000  0.2879830000000  0.5173210000000 1.0
C      1  0.4426630000000  0.2892310000000  0.3368400000000 1.0
C      1  0.3907740000000  0.2856590000000  0.6319290000000 1.0
END
