TITL C-986975-4297-700 9.51644884840247e-06 3375 -334.739114167264 0 0 60 (C1) n - 1
REM
REM in /home/bkarasulu/work/CARBON/AIRSS/Generating-Clusters/REBO/Higher-Symm/Only-C60
REM
REM
REM
REM
REM
REM ./C.cell (a2850807a9bf4ad07a5b6933b78d9264)
REM AIRSS Version 0.9.1 bugfix July 2018 build 013d7b7c2542+ Fri, 06 Jul 2018 19:26:36 +0100
REM compiler GCC version 9.2.1 20190827 (Red Hat 9.2.1-1)
REM options -cpp -mtune=generic -march=x86-64 -g -O0 -fpre-include=/usr/include/finclude/math-vector-fortran.h
REM seed 2036151188 -455402175 519833434 1059496137 543765767 2059527795 2125164898 -650132295 -1193999421 367479572 -174094504 -1016692985 1933615599 327931491 337014821 344925353 1492805918 445714743 -1648716487 441609474 -1529080398 2140040480 1016884096 -1010572779 -1249157316 -1164460650 -1519259438 922188583 -1576650318 1636467810 257490391 1786567946 -1068993745
REM
CELL 1.54180   15.00000   15.00000   15.00000   90.00000   90.00000   90.00000
LATT -1
SFAC C  
C      1  0.7384380000000  0.3645850000000  0.6374720000000 1.0
C      1  0.4967000000000  0.7727380000000  0.6287180000000 1.0
C      1  0.2616930000000  0.3609950000000  0.6302820000000 1.0
C      1  0.5643010000000  0.3422460000000  0.6121040000000 1.0
C      1  0.6088380000000  0.6340910000000  0.6077890000000 1.0
C      1  0.3331170000000  0.5221930000000  0.6042780000000 1.0
C      1  0.4090830000000  0.7727320000000  0.5878460000000 1.0
C      1  0.3062890000000  0.2835480000000  0.5928940000000 1.0
C      1  0.7776120000000  0.4410620000000  0.5962050000000 1.0
C      1  0.7638720000000  0.2524150000000  0.4448280000000 1.0
C      1  0.5852400000000  0.8513600000000  0.4410360000000 1.0
C      1  0.1457500000000  0.3997810000000  0.4447220000000 1.0
C      1  0.4892390000000  0.4459360000000  0.2603780000000 1.0
C      1  0.5570290000000  0.5321740000000  0.2530090000000 1.0
C      1  0.4474730000000  0.5472520000000  0.2543470000000 1.0
C      1  0.3730670000000  0.4388520000000  0.5094910000000 1.0
C      1  0.6173850000000  0.4199530000000  0.5192730000000 1.0
C      1  0.5163370000000  0.6310000000000  0.5136780000000 1.0
C      1  0.6989820000000  0.3219370000000  0.4768460000000 1.0
C      1  0.5571690000000  0.7603760000000  0.4712550000000 1.0
C      1  0.2402030000000  0.4196790000000  0.4716490000000 1.0
C      1  0.6272710000000  0.4529480000000  0.3664240000000 1.0
C      1  0.4820980000000  0.6251440000000  0.3852510000000 1.0
C      1  0.3835750000000  0.4202510000000  0.3779330000000 1.0
C      1  0.4113370000000  0.3823890000000  0.7102470000000 1.0
C      1  0.6516410000000  0.4888640000000  0.7110750000000 1.0
C      1  0.4395240000000  0.6292210000000  0.7093050000000 1.0
C      1  0.7307930000000  0.5286970000000  0.5406270000000 1.0
C      1  0.3643390000000  0.6797810000000  0.5425390000000 1.0
C      1  0.4082360000000  0.2952130000000  0.5446330000000 1.0
C      1  0.3076190000000  0.5305970000000  0.4974400000000 1.0
C      1  0.5698740000000  0.3185720000000  0.5036910000000 1.0
C      1  0.6252080000000  0.6501280000000  0.4979310000000 1.0
C      1  0.4642820000000  0.3410550000000  0.6259790000000 1.0
C      1  0.6606770000000  0.5476230000000  0.6210290000000 1.0
C      1  0.3835380000000  0.6082150000000  0.6194910000000 1.0
C      1  0.3016200000000  0.4745810000000  0.3990860000000 1.0
C      1  0.6183230000000  0.3511940000000  0.4052070000000 1.0
C      1  0.5706970000000  0.6768970000000  0.4010840000000 1.0
C      1  0.4567370000000  0.4489500000000  0.4514050000000 1.0
C      1  0.5641800000000  0.4645460000000  0.4492670000000 1.0
C      1  0.4961140000000  0.5492560000000  0.4564900000000 1.0
C      1  0.5139930000000  0.3247880000000  0.3835400000000 1.0
C      1  0.6527550000000  0.6082910000000  0.3751670000000 1.0
C      1  0.3288450000000  0.5814270000000  0.3769230000000 1.0
C      1  0.3961200000000  0.4315760000000  0.6156190000000 1.0
C      1  0.6074490000000  0.4465690000000  0.6226930000000 1.0
C      1  0.4974450000000  0.6168610000000  0.6197280000000 1.0
C      1  0.4755340000000  0.2831640000000  0.4709320000000 1.0
C      1  0.7072130000000  0.5923550000000  0.4654920000000 1.0
C      1  0.3159590000000  0.6316630000000  0.4687660000000 1.0
C      1  0.4109790000000  0.5982750000000  0.3278260000000 1.0
C      1  0.4620200000000  0.3846540000000  0.3292810000000 1.0
C      1  0.6281060000000  0.5337620000000  0.3184430000000 1.0
C      1  0.3168600000000  0.3466100000000  0.5013870000000 1.0
C      1  0.7232540000000  0.4253690000000  0.5016450000000 1.0
C      1  0.4588460000000  0.7211660000000  0.5011590000000 1.0
C      1  0.2604440000000  0.4382980000000  0.5800290000000 1.0
C      1  0.6731760000000  0.3207540000000  0.5872780000000 1.0
C      1  0.5655010000000  0.7353930000000  0.5798590000000 1.0
END
