TITL C-986976-6631-606 -0.000102551175686342 3375 -334.142981025049 0 0 60 (C1) n - 1
REM
REM in /home/bkarasulu/work/CARBON/AIRSS/Generating-Clusters/REBO/Higher-Symm/Only-C60
REM
REM
REM
REM
REM
REM ./C.cell (a2850807a9bf4ad07a5b6933b78d9264)
REM AIRSS Version 0.9.1 bugfix July 2018 build 013d7b7c2542+ Fri, 06 Jul 2018 19:26:36 +0100
REM compiler GCC version 9.2.1 20190827 (Red Hat 9.2.1-1)
REM options -cpp -mtune=generic -march=x86-64 -g -O0 -fpre-include=/usr/include/finclude/math-vector-fortran.h
REM seed -509698529 -699024863 896289864 -117245903 -1471544202 -295881629 -420067764 -1574419600 275354840 226507497 -1931109671 744208074 -664382457 -306680395 -1742892329 302656799 -1459060875 1223734407 525745213 -15979459 -2120752834 -276774919 -266324941 596500690 1563173806 -884242180 -861745027 1575621689 1499773525 -1348961608 1903330856 1929653640 -1536729622
REM
CELL 1.54180   15.00000   15.00000   15.00000   90.00000   90.00000   90.00000
LATT -1
SFAC C  
C      1  0.2410010000000  0.5429360000000  0.3685370000000 1.0
C      1  0.7658870000000  0.4576650000000  0.3736200000000 1.0
C      1  0.7742930000000  0.5597120000000  0.3904370000000 1.0
C      1  0.2315460000000  0.4411360000000  0.3843860000000 1.0
C      1  0.3641210000000  0.6214360000000  0.4304310000000 1.0
C      1  0.6327750000000  0.3754150000000  0.4272000000000 1.0
C      1  0.6299370000000  0.6288930000000  0.4422570000000 1.0
C      1  0.3678140000000  0.3732680000000  0.4430600000000 1.0
C      1  0.2748380000000  0.5930950000000  0.4645400000000 1.0
C      1  0.7226130000000  0.4022890000000  0.4626120000000 1.0
C      1  0.7164940000000  0.5965480000000  0.4801740000000 1.0
C      1  0.2832770000000  0.4095500000000  0.4799960000000 1.0
C      1  0.5477420000000  0.5935090000000  0.4986990000000 1.0
C      1  0.4560170000000  0.3918300000000  0.5020210000000 1.0
C      1  0.4452580000000  0.6021050000000  0.4982990000000 1.0
C      1  0.5571720000000  0.4075030000000  0.4945660000000 1.0
C      1  0.4594560000000  0.6825230000000  0.6031210000000 1.0
C      1  0.5380100000000  0.3226320000000  0.5953400000000 1.0
C      1  0.5733760000000  0.6828980000000  0.5954250000000 1.0
C      1  0.4240290000000  0.3151310000000  0.6061430000000 1.0
C      1  0.1833000000000  0.3726000000000  0.4596540000000 1.0
C      1  0.8160870000000  0.6357020000000  0.4624540000000 1.0
C      1  0.8193900000000  0.3719970000000  0.4248090000000 1.0
C      1  0.1797170000000  0.6218930000000  0.4219810000000 1.0
C      1  0.4373220000000  0.2778690000000  0.5024050000000 1.0
C      1  0.5328380000000  0.7045070000000  0.4929650000000 1.0
C      1  0.5451060000000  0.2943530000000  0.4849820000000 1.0
C      1  0.4238150000000  0.7160200000000  0.5001070000000 1.0
C      1  0.5435380000000  0.5991810000000  0.6658150000000 1.0
C      1  0.4574070000000  0.4024130000000  0.6681440000000 1.0
C      1  0.4390860000000  0.5912590000000  0.6679580000000 1.0
C      1  0.5616390000000  0.4082370000000  0.6674060000000 1.0
C      1  0.3479460000000  0.6618450000000  0.6017950000000 1.0
C      1  0.6505580000000  0.3350140000000  0.6014670000000 1.0
C      1  0.6693410000000  0.6487150000000  0.5932330000000 1.0
C      1  0.3306590000000  0.3601440000000  0.6196670000000 1.0
C      1  0.3858020000000  0.6174510000000  0.3248040000000 1.0
C      1  0.6230260000000  0.3874000000000  0.3190850000000 1.0
C      1  0.6242070000000  0.6104730000000  0.3349430000000 1.0
C      1  0.3835850000000  0.3872690000000  0.3373030000000 1.0
C      1  0.6888660000000  0.4511030000000  0.2937040000000 1.0
C      1  0.3229360000000  0.5510920000000  0.2942870000000 1.0
C      1  0.3139890000000  0.4484820000000  0.3106790000000 1.0
C      1  0.6963440000000  0.5525310000000  0.3123510000000 1.0
C      1  0.4232400000000  0.4453690000000  0.5784870000000 1.0
C      1  0.5805460000000  0.5510950000000  0.5796870000000 1.0
C      1  0.5939280000000  0.4517380000000  0.5767200000000 1.0
C      1  0.4082570000000  0.5468550000000  0.5770840000000 1.0
C      1  0.3007850000000  0.5692890000000  0.5608810000000 1.0
C      1  0.7004380000000  0.4277380000000  0.5595190000000 1.0
C      1  0.6926050000000  0.5406820000000  0.5690880000000 1.0
C      1  0.3106740000000  0.4565550000000  0.5700270000000 1.0
C      1  0.4060110000000  0.5356470000000  0.7464310000000 1.0
C      1  0.5956090000000  0.4657780000000  0.7448440000000 1.0
C      1  0.5867940000000  0.5496450000000  0.7453860000000 1.0
C      1  0.4149830000000  0.4519300000000  0.7471490000000 1.0
C      1  0.4500620000000  0.3139120000000  0.3940610000000 1.0
C      1  0.5525570000000  0.6848660000000  0.3821300000000 1.0
C      1  0.5531710000000  0.3162510000000  0.3733590000000 1.0
C      1  0.4481830000000  0.6850280000000  0.3922880000000 1.0
END
