TITL C-986973-6940-182 -4.55364460943466e-06 3375 -348.862604804017 0 0 60 (T23) n - 1
REM
REM in /home/bkarasulu/work/CARBON/AIRSS/Generating-Clusters/REBO/Higher-Symm/Only-C60
REM
REM
REM
REM
REM
REM ./C.cell (a2850807a9bf4ad07a5b6933b78d9264)
REM AIRSS Version 0.9.1 bugfix July 2018 build 013d7b7c2542+ Fri, 06 Jul 2018 19:26:36 +0100
REM compiler GCC version 9.2.1 20190827 (Red Hat 9.2.1-1)
REM options -cpp -mtune=generic -march=x86-64 -g -O0 -fpre-include=/usr/include/finclude/math-vector-fortran.h
REM seed -1781219377 -1121542755 358189425 1903927045 -1452828646 1960952780 2027692578 -1849211593 1581146384 -1144601208 -732096321 1867982051 -41930463 685007122 -1259396615 1313250290 1998101998 -1943244109 -297747470 -2084311413 526414101 -1621016687 -587978685 -1094526526 -322459741 670271529 1571657787 -1856699037 -896599311 -1366452162 257992463 -1351347001 -1898504699
REM
CELL 1.54180   15.00000   15.00000   15.00000   90.00000   90.00000   90.00000
LATT -1
SFAC C  
C      1  0.4487380000000  0.5152120000000  0.2728770000000 1.0
C      1  0.2728770000000  0.4487380000000  0.5152120000000 1.0
C      1  0.5152120000000  0.2728770000000  0.4487380000000 1.0
C      1  0.5512620000000  0.5152120000000  0.7271230000000 1.0
C      1  0.4487380000000  0.4847880000000  0.7271230000000 1.0
C      1  0.5512620000000  0.4847880000000  0.2728770000000 1.0
C      1  0.7271230000000  0.4487380000000  0.4847880000000 1.0
C      1  0.2728770000000  0.5512620000000  0.4847880000000 1.0
C      1  0.7271230000000  0.5512620000000  0.5152120000000 1.0
C      1  0.4847880000000  0.2728770000000  0.5512620000000 1.0
C      1  0.5152120000000  0.7271230000000  0.5512620000000 1.0
C      1  0.4847880000000  0.7271230000000  0.4487380000000 1.0
C      1  0.6720630000000  0.4535900000000  0.6358620000000 1.0
C      1  0.6358620000000  0.6720630000000  0.4535900000000 1.0
C      1  0.4535900000000  0.6358620000000  0.6720630000000 1.0
C      1  0.3279370000000  0.4535900000000  0.3641380000000 1.0
C      1  0.6720630000000  0.5464100000000  0.3641380000000 1.0
C      1  0.3279370000000  0.5464100000000  0.6358620000000 1.0
C      1  0.3641380000000  0.6720630000000  0.5464100000000 1.0
C      1  0.6358620000000  0.3279370000000  0.5464100000000 1.0
C      1  0.3641380000000  0.3279370000000  0.4535900000000 1.0
C      1  0.5464100000000  0.6358620000000  0.3279370000000 1.0
C      1  0.4535900000000  0.3641380000000  0.3279370000000 1.0
C      1  0.5464100000000  0.3641380000000  0.6720630000000 1.0
C      1  0.4133960000000  0.6666970000000  0.4135040000000 1.0
C      1  0.4135040000000  0.4133960000000  0.6666970000000 1.0
C      1  0.6666970000000  0.4135040000000  0.4133960000000 1.0
C      1  0.5866040000000  0.6666970000000  0.5864960000000 1.0
C      1  0.4133960000000  0.3333030000000  0.5864960000000 1.0
C      1  0.5866040000000  0.3333030000000  0.4135040000000 1.0
C      1  0.5864960000000  0.4133960000000  0.3333030000000 1.0
C      1  0.4135040000000  0.5866040000000  0.3333030000000 1.0
C      1  0.5864960000000  0.5866040000000  0.6666970000000 1.0
C      1  0.3333030000000  0.4135040000000  0.5866040000000 1.0
C      1  0.6666970000000  0.5864960000000  0.5866040000000 1.0
C      1  0.3333030000000  0.5864960000000  0.4133960000000 1.0
C      1  0.4582790000000  0.6101340000000  0.5254070000000 1.0
C      1  0.5254070000000  0.4582790000000  0.6101340000000 1.0
C      1  0.6101340000000  0.5254070000000  0.4582790000000 1.0
C      1  0.5417210000000  0.6101340000000  0.4745930000000 1.0
C      1  0.4582790000000  0.3898660000000  0.4745930000000 1.0
C      1  0.5417210000000  0.3898660000000  0.5254070000000 1.0
C      1  0.4745930000000  0.4582790000000  0.3898660000000 1.0
C      1  0.5254070000000  0.5417210000000  0.3898660000000 1.0
C      1  0.4745930000000  0.5417210000000  0.6101340000000 1.0
C      1  0.3898660000000  0.5254070000000  0.5417210000000 1.0
C      1  0.6101340000000  0.4745930000000  0.5417210000000 1.0
C      1  0.3898660000000  0.4745930000000  0.4582790000000 1.0
C      1  0.6100390000000  0.5637380000000  0.2901160000000 1.0
C      1  0.2901160000000  0.6100390000000  0.5637380000000 1.0
C      1  0.5637370000000  0.2901160000000  0.6100390000000 1.0
C      1  0.3899610000000  0.5637370000000  0.7098840000000 1.0
C      1  0.6100390000000  0.4362620000000  0.7098840000000 1.0
C      1  0.3899610000000  0.4362630000000  0.2901160000000 1.0
C      1  0.7098840000000  0.6100390000000  0.4362630000000 1.0
C      1  0.2901160000000  0.3899610000000  0.4362630000000 1.0
C      1  0.7098840000000  0.3899610000000  0.5637370000000 1.0
C      1  0.4362620000000  0.2901160000000  0.3899610000000 1.0
C      1  0.5637370000000  0.7098840000000  0.3899610000000 1.0
C      1  0.4362630000000  0.7098840000000  0.6100390000000 1.0
END
