TITL C-986979-5873-773 -5.79784521635039e-06 3375 -338.906749240848 0 0 60 (C2) n - 1
REM
REM in /home/bkarasulu/work/CARBON/AIRSS/Generating-Clusters/REBO/Higher-Symm/Only-C60
REM
REM
REM
REM
REM
REM ./C.cell (a2850807a9bf4ad07a5b6933b78d9264)
REM AIRSS Version 0.9.1 bugfix July 2018 build 013d7b7c2542+ Fri, 06 Jul 2018 19:26:36 +0100
REM compiler GCC version 9.2.1 20190827 (Red Hat 9.2.1-1)
REM options -cpp -mtune=generic -march=x86-64 -g -O0 -fpre-include=/usr/include/finclude/math-vector-fortran.h
REM seed -960345617 1909977535 -1997576795 -1728004381 902704364 -1057864989 -1733655035 27731006 588773758 -1399613772 -308378371 -1677641790 -1182373447 985556489 264468623 1927444374 -455137552 1132081122 1547444868 958872107 -1269930033 -948635197 1944964803 -1582516143 142547 -591796363 1003811151 -1979351310 -1679714442 -1608434984 -215493776 32908412 1511072006
REM
CELL 1.54180   15.00000   15.00000   15.00000   90.00000   90.00000   90.00000
LATT -1
SFAC C  
C      1  0.4488730000000  0.3949720000000  0.3981310000000 1.0
C      1  0.5511330000000  0.3949760000000  0.6018700000000 1.0
C      1  0.5592860000000  0.3961150000000  0.4204270000000 1.0
C      1  0.4407200000000  0.3961120000000  0.5795740000000 1.0
C      1  0.5651360000000  0.6780890000000  0.5608410000000 1.0
C      1  0.4348540000000  0.6780840000000  0.4391570000000 1.0
C      1  0.4562340000000  0.6644380000000  0.5500430000000 1.0
C      1  0.5437570000000  0.6644400000000  0.4499550000000 1.0
C      1  0.5584800000000  0.5663060000000  0.4075360000000 1.0
C      1  0.4415160000000  0.5663040000000  0.5924630000000 1.0
C      1  0.4540070000000  0.5863310000000  0.3899500000000 1.0
C      1  0.5459880000000  0.5863340000000  0.6100490000000 1.0
C      1  0.7240320000000  0.3784790000000  0.5391920000000 1.0
C      1  0.2759750000000  0.3784660000000  0.4608090000000 1.0
C      1  0.2540210000000  0.3538840000000  0.5618960000000 1.0
C      1  0.7459870000000  0.3538970000000  0.4381050000000 1.0
C      1  0.4323280000000  0.4898970000000  0.5306080000000 1.0
C      1  0.5676720000000  0.4899000000000  0.4693920000000 1.0
C      1  0.5628450000000  0.4927090000000  0.5570940000000 1.0
C      1  0.4371550000000  0.4927050000000  0.4429060000000 1.0
C      1  0.2909490000000  0.5396630000000  0.3661880000000 1.0
C      1  0.7090480000000  0.5396760000000  0.6338120000000 1.0
C      1  0.7051270000000  0.5260980000000  0.3664410000000 1.0
C      1  0.2948710000000  0.5260870000000  0.6335590000000 1.0
C      1  0.6526910000000  0.6733860000000  0.4615430000000 1.0
C      1  0.3472990000000  0.6733780000000  0.5384550000000 1.0
C      1  0.3308890000000  0.7003450000000  0.4348190000000 1.0
C      1  0.6690990000000  0.7003550000000  0.5651790000000 1.0
C      1  0.4564190000000  0.4590340000000  0.6695930000000 1.0
C      1  0.5435840000000  0.4590350000000  0.3304070000000 1.0
C      1  0.5576140000000  0.4664350000000  0.6871520000000 1.0
C      1  0.4423880000000  0.4664300000000  0.3128480000000 1.0
C      1  0.7245870000000  0.6132250000000  0.5547160000000 1.0
C      1  0.2754070000000  0.6132120000000  0.4452830000000 1.0
C      1  0.2833490000000  0.5918770000000  0.5493710000000 1.0
C      1  0.7166460000000  0.5918890000000  0.4506280000000 1.0
C      1  0.4555760000000  0.5790770000000  0.7503350000000 1.0
C      1  0.5444190000000  0.5790780000000  0.2496650000000 1.0
C      1  0.5382560000000  0.5836500000000  0.7474250000000 1.0
C      1  0.4617400000000  0.5836460000000  0.2525750000000 1.0
C      1  0.2393450000000  0.4663160000000  0.5539280000000 1.0
C      1  0.7606570000000  0.4663300000000  0.4460730000000 1.0
C      1  0.7594330000000  0.4862210000000  0.5468420000000 1.0
C      1  0.2405670000000  0.4862050000000  0.4531590000000 1.0
C      1  0.3847280000000  0.5436960000000  0.6777420000000 1.0
C      1  0.6152690000000  0.5437010000000  0.3222580000000 1.0
C      1  0.6228060000000  0.5536520000000  0.6820380000000 1.0
C      1  0.3771910000000  0.5536440000000  0.3179610000000 1.0
C      1  0.6555320000000  0.3488470000000  0.3430130000000 1.0
C      1  0.3444760000000  0.3488390000000  0.6569880000000 1.0
C      1  0.3332520000000  0.3576340000000  0.3432600000000 1.0
C      1  0.6667560000000  0.3576450000000  0.6567420000000 1.0
C      1  0.6350320000000  0.3298830000000  0.4528600000000 1.0
C      1  0.3649770000000  0.3298760000000  0.5471420000000 1.0
C      1  0.3759820000000  0.3302710000000  0.4366610000000 1.0
C      1  0.6240270000000  0.3302790000000  0.5633400000000 1.0
C      1  0.2666780000000  0.4192840000000  0.6546310000000 1.0
C      1  0.7333270000000  0.4192960000000  0.3453700000000 1.0
C      1  0.7363030000000  0.4301920000000  0.6417620000000 1.0
C      1  0.2637010000000  0.4301770000000  0.3582380000000 1.0
END
