TITL C-986973-6940-153 -0.0197977778183369 3375 -329.13480646352 0 0 60 (C1) n - 1
REM
REM in /home/bkarasulu/work/CARBON/AIRSS/Generating-Clusters/REBO/Higher-Symm/Only-C60
REM
REM
REM
REM
REM
REM ./C.cell (a2850807a9bf4ad07a5b6933b78d9264)
REM AIRSS Version 0.9.1 bugfix July 2018 build 013d7b7c2542+ Fri, 06 Jul 2018 19:26:36 +0100
REM compiler GCC version 9.2.1 20190827 (Red Hat 9.2.1-1)
REM options -cpp -mtune=generic -march=x86-64 -g -O0 -fpre-include=/usr/include/finclude/math-vector-fortran.h
REM seed -124400590 1241030666 -1555372341 648662246 -561977588 1067993105 -266061446 1357986272 -1672357278 468397176 281969628 1060283133 -1498854914 2046473360 1302293210 -734087614 -1374070580 793800506 -1823837364 1376967108 1899098121 -690415780 -1035498719 -27442495 2132542818 911350180 319027843 -1985203750 -1707273219 -1532137957 580338515 -1207265363 -385127156
REM
CELL 1.54180   15.00000   15.00000   15.00000   90.00000   90.00000   90.00000
LATT -1
SFAC C  
C      1  0.4488250000000  0.3951180000000  0.4167840000000 1.0
C      1  0.4464970000000  0.6104640000000  0.5835500000000 1.0
C      1  0.5404710000000  0.3794360000000  0.4260690000000 1.0
C      1  0.5405490000000  0.6224060000000  0.5792380000000 1.0
C      1  0.4544780000000  0.5765150000000  0.4228910000000 1.0
C      1  0.4490880000000  0.4154770000000  0.5669870000000 1.0
C      1  0.5476830000000  0.5912640000000  0.4350360000000 1.0
C      1  0.5436180000000  0.4092670000000  0.5656970000000 1.0
C      1  0.6659750000000  0.6919860000000  0.4405860000000 1.0
C      1  0.6799580000000  0.3034770000000  0.5532570000000 1.0
C      1  0.3494070000000  0.6979170000000  0.4679680000000 1.0
C      1  0.3607980000000  0.3024600000000  0.5581830000000 1.0
C      1  0.6703410000000  0.2870850000000  0.4484760000000 1.0
C      1  0.6681180000000  0.7061980000000  0.5475410000000 1.0
C      1  0.3504050000000  0.2930090000000  0.4544270000000 1.0
C      1  0.3495700000000  0.7050170000000  0.5744350000000 1.0
C      1  0.3486590000000  0.3593410000000  0.6332640000000 1.0
C      1  0.3487920000000  0.6431560000000  0.3766750000000 1.0
C      1  0.6499530000000  0.3638270000000  0.6319520000000 1.0
C      1  0.6548800000000  0.6298680000000  0.3660960000000 1.0
C      1  0.3463980000000  0.6530480000000  0.6602120000000 1.0
C      1  0.3493160000000  0.3368590000000  0.3516020000000 1.0
C      1  0.6452730000000  0.6641040000000  0.6493000000000 1.0
C      1  0.6435110000000  0.3378900000000  0.3533930000000 1.0
C      1  0.2563190000000  0.4387950000000  0.5458260000000 1.0
C      1  0.2643490000000  0.5705710000000  0.4447670000000 1.0
C      1  0.7304210000000  0.4369570000000  0.5592850000000 1.0
C      1  0.7322540000000  0.5609740000000  0.4489150000000 1.0
C      1  0.2650570000000  0.5471470000000  0.5449970000000 1.0
C      1  0.2619980000000  0.4600850000000  0.4457150000000 1.0
C      1  0.7257310000000  0.5455920000000  0.5504880000000 1.0
C      1  0.7262390000000  0.4518350000000  0.4574140000000 1.0
C      1  0.4549760000000  0.7180460000000  0.5458460000000 1.0
C      1  0.4529430000000  0.2804710000000  0.4119330000000 1.0
C      1  0.5612680000000  0.7337030000000  0.5736650000000 1.0
C      1  0.5596560000000  0.2708670000000  0.4321800000000 1.0
C      1  0.4642550000000  0.3125460000000  0.5200170000000 1.0
C      1  0.4564850000000  0.6872050000000  0.4395480000000 1.0
C      1  0.5739070000000  0.3120640000000  0.5359370000000 1.0
C      1  0.5618130000000  0.6966000000000  0.4692830000000 1.0
C      1  0.6272360000000  0.4682870000000  0.5944760000000 1.0
C      1  0.6308800000000  0.5309240000000  0.4099540000000 1.0
C      1  0.3556400000000  0.4622940000000  0.5921460000000 1.0
C      1  0.3610480000000  0.5356630000000  0.4002510000000 1.0
C      1  0.6307650000000  0.5705810000000  0.5916670000000 1.0
C      1  0.6311170000000  0.4293250000000  0.4146750000000 1.0
C      1  0.3554400000000  0.5649270000000  0.5966730000000 1.0
C      1  0.3553220000000  0.4347060000000  0.4019210000000 1.0
C      1  0.4134390000000  0.6048860000000  0.2997430000000 1.0
C      1  0.4164040000000  0.4053420000000  0.6958630000000 1.0
C      1  0.5782960000000  0.5938590000000  0.3053720000000 1.0
C      1  0.5782760000000  0.4001210000000  0.6971880000000 1.0
C      1  0.4120230000000  0.3926470000000  0.2890300000000 1.0
C      1  0.4155460000000  0.6008310000000  0.7127940000000 1.0
C      1  0.5756590000000  0.3949890000000  0.2985090000000 1.0
C      1  0.5774280000000  0.6102850000000  0.7067520000000 1.0
C      1  0.4933770000000  0.4467110000000  0.2890550000000 1.0
C      1  0.4935420000000  0.5475650000000  0.2931260000000 1.0
C      1  0.4989180000000  0.4540220000000  0.7075310000000 1.0
C      1  0.4994090000000  0.5533850000000  0.7138410000000 1.0
END
