TITL C-986979-5873-376 -0.0302349847989775 3375 -319.699227337406 0 0 60 (C5) n - 1
REM
REM in /home/bkarasulu/work/CARBON/AIRSS/Generating-Clusters/REBO/Higher-Symm/Only-C60
REM
REM
REM
REM
REM
REM ./C.cell (a2850807a9bf4ad07a5b6933b78d9264)
REM AIRSS Version 0.9.1 bugfix July 2018 build 013d7b7c2542+ Fri, 06 Jul 2018 19:26:36 +0100
REM compiler GCC version 9.2.1 20190827 (Red Hat 9.2.1-1)
REM options -cpp -mtune=generic -march=x86-64 -g -O0 -fpre-include=/usr/include/finclude/math-vector-fortran.h
REM seed -2081291755 2024398380 1074787847 337721368 -2071957703 -1256144195 453994239 -1620177282 1324561210 1744319158 -922677056 -1400003180 -195955159 1431572440 890156917 -1760756604 -533859577 245819063 -7549172 565455692 1062600131 2074751219 1405618477 -1575168279 -1776371040 -1907979993 532268871 1065904812 794749301 665465792 639437375 755138941 1364304178
REM
CELL 1.54180   15.00000   15.00000   15.00000   90.00000   90.00000   90.00000
LATT -1
SFAC C  
C      1  0.4925820000000  0.6578760000000  0.6359900000000 1.0
C      1  0.3475580000000  0.5417310000000  0.6359920000000 1.0
C      1  0.4132040000000  0.3679170000000  0.6359910000000 1.0
C      1  0.5987980000000  0.3766370000000  0.6359960000000 1.0
C      1  0.6478560000000  0.5558410000000  0.6359950000000 1.0
C      1  0.4925820000000  0.6578760000000  0.3640100000000 1.0
C      1  0.3475580000000  0.5417310000000  0.3640080000000 1.0
C      1  0.4132040000000  0.3679170000000  0.3640090000000 1.0
C      1  0.5987980000000  0.3766370000000  0.3640040000000 1.0
C      1  0.6478560000000  0.5558410000000  0.3640050000000 1.0
C      1  0.3447910000000  0.7103900000000  0.6089350000000 1.0
C      1  0.2519470000000  0.4174040000000  0.6089340000000 1.0
C      1  0.5019000000000  0.2385620000000  0.6089350000000 1.0
C      1  0.7492330000000  0.4210180000000  0.6089360000000 1.0
C      1  0.6521330000000  0.7126290000000  0.6089360000000 1.0
C      1  0.3447910000000  0.7103900000000  0.3910650000000 1.0
C      1  0.2519470000000  0.4174040000000  0.3910660000000 1.0
C      1  0.5019000000000  0.2385620000000  0.3910650000000 1.0
C      1  0.7492330000000  0.4210180000000  0.3910640000000 1.0
C      1  0.6521330000000  0.7126290000000  0.3910640000000 1.0
C      1  0.3157230000000  0.4391970000000  0.4524510000000 1.0
C      1  0.5008950000000  0.3059510000000  0.4524500000000 1.0
C      1  0.6848350000000  0.4408970000000  0.4524490000000 1.0
C      1  0.6133290000000  0.6575240000000  0.4524490000000 1.0
C      1  0.3852240000000  0.6564690000000  0.4524500000000 1.0
C      1  0.3157230000000  0.4391970000000  0.5475490000000 1.0
C      1  0.5008950000000  0.3059510000000  0.5475500000000 1.0
C      1  0.6848350000000  0.4408970000000  0.5475510000000 1.0
C      1  0.6133290000000  0.6575240000000  0.5475510000000 1.0
C      1  0.3852240000000  0.6564690000000  0.5475500000000 1.0
C      1  0.5935860000000  0.4748520000000  0.6967070000000 1.0
C      1  0.5528370000000  0.5812330000000  0.6967080000000 1.0
C      1  0.4390680000000  0.5753530000000  0.6967060000000 1.0
C      1  0.4095050000000  0.4653350000000  0.6967070000000 1.0
C      1  0.5050000000000  0.4032230000000  0.6967060000000 1.0
C      1  0.5935860000000  0.4748520000000  0.3032930000000 1.0
C      1  0.5528370000000  0.5812330000000  0.3032920000000 1.0
C      1  0.4390680000000  0.5753530000000  0.3032940000000 1.0
C      1  0.4095050000000  0.4653350000000  0.3032930000000 1.0
C      1  0.5050000000000  0.4032230000000  0.3032940000000 1.0
C      1  0.4914360000000  0.4111780000000  0.4341620000000 1.0
C      1  0.5818310000000  0.4644080000000  0.4341630000000 1.0
C      1  0.5591380000000  0.5668280000000  0.4341630000000 1.0
C      1  0.4547220000000  0.5768940000000  0.4341620000000 1.0
C      1  0.4128800000000  0.4806950000000  0.4341630000000 1.0
C      1  0.4914360000000  0.4111780000000  0.5658380000000 1.0
C      1  0.5818310000000  0.4644080000000  0.5658370000000 1.0
C      1  0.5591380000000  0.5668280000000  0.5658370000000 1.0
C      1  0.4547220000000  0.5768940000000  0.5658380000000 1.0
C      1  0.4128800000000  0.4806950000000  0.5658370000000 1.0
C      1  0.7128960000000  0.5701670000000  0.5429930000000 1.0
C      1  0.4990460000000  0.7241550000000  0.5429940000000 1.0
C      1  0.2865100000000  0.5683520000000  0.5429910000000 1.0
C      1  0.3690140000000  0.3180840000000  0.5429930000000 1.0
C      1  0.6325240000000  0.3192020000000  0.5429910000000 1.0
C      1  0.7128960000000  0.5701670000000  0.4570070000000 1.0
C      1  0.4990460000000  0.7241550000000  0.4570060000000 1.0
C      1  0.2865100000000  0.5683520000000  0.4570090000000 1.0
C      1  0.3690140000000  0.3180840000000  0.4570070000000 1.0
C      1  0.6325240000000  0.3192020000000  0.4570090000000 1.0
END
