TITL C-986974-580-434 0.00209946136035164 3375 -337.717644133669 0 0 60 (C1) n - 1
REM
REM in /home/bkarasulu/work/CARBON/AIRSS/Generating-Clusters/REBO/Higher-Symm/Only-C60
REM
REM
REM
REM
REM
REM ./C.cell (a2850807a9bf4ad07a5b6933b78d9264)
REM AIRSS Version 0.9.1 bugfix July 2018 build 013d7b7c2542+ Fri, 06 Jul 2018 19:26:36 +0100
REM compiler GCC version 9.2.1 20190827 (Red Hat 9.2.1-1)
REM options -cpp -mtune=generic -march=x86-64 -g -O0 -fpre-include=/usr/include/finclude/math-vector-fortran.h
REM seed -692841141 1649405688 -505155482 569576258 503622830 721059079 6896285 986427140 1458282446 565901686 -1316235236 656206272 854866518 -1037925257 -338166237 -1279405662 -1548269209 334152998 507074577 -437897361 -1774498175 168417774 1444308251 -779802330 -549246805 668321110 90448307 -1461864270 17905150 692936446 -154478151 -1397407495 -662217618
REM
CELL 1.54180   15.00000   15.00000   15.00000   90.00000   90.00000   90.00000
LATT -1
SFAC C  
C      1  0.7279660000000  0.6314230000000  0.4756690000000 1.0
C      1  0.7278180000000  0.6315610000000  0.3729910000000 1.0
C      1  0.6493270000000  0.4233850000000  0.4239500000000 1.0
C      1  0.5666410000000  0.4092450000000  0.6862830000000 1.0
C      1  0.4799110000000  0.5632440000000  0.2856690000000 1.0
C      1  0.2976240000000  0.6639520000000  0.4877880000000 1.0
C      1  0.5880250000000  0.3598380000000  0.5235450000000 1.0
C      1  0.5578130000000  0.6969290000000  0.4481830000000 1.0
C      1  0.7135850000000  0.4614810000000  0.6585180000000 1.0
C      1  0.4937700000000  0.2711870000000  0.5501770000000 1.0
C      1  0.3544450000000  0.3424960000000  0.5436550000000 1.0
C      1  0.6828040000000  0.5296670000000  0.5949440000000 1.0
C      1  0.3217650000000  0.5603500000000  0.6880430000000 1.0
C      1  0.2905320000000  0.5197010000000  0.5349900000000 1.0
C      1  0.4822800000000  0.4539510000000  0.2953520000000 1.0
C      1  0.5762840000000  0.4195870000000  0.3496530000000 1.0
C      1  0.4072010000000  0.4355470000000  0.6230780000000 1.0
C      1  0.6400660000000  0.6825950000000  0.5258710000000 1.0
C      1  0.5514040000000  0.7084890000000  0.5953300000000 1.0
C      1  0.4590910000000  0.2755070000000  0.6506240000000 1.0
C      1  0.6246120000000  0.4939850000000  0.5056590000000 1.0
C      1  0.4844150000000  0.5248930000000  0.4129070000000 1.0
C      1  0.5064150000000  0.4283240000000  0.5671310000000 1.0
C      1  0.4910410000000  0.5773010000000  0.6922730000000 1.0
C      1  0.4352560000000  0.6161310000000  0.3646180000000 1.0
C      1  0.3329640000000  0.6232230000000  0.3871180000000 1.0
C      1  0.2821860000000  0.3589470000000  0.4871180000000 1.0
C      1  0.4929900000000  0.4265390000000  0.4607040000000 1.0
C      1  0.6548520000000  0.5739030000000  0.3100150000000 1.0
C      1  0.3854630000000  0.4723670000000  0.4021690000000 1.0
C      1  0.4230030000000  0.6095480000000  0.5237130000000 1.0
C      1  0.4993570000000  0.4830240000000  0.6660770000000 1.0
C      1  0.2975600000000  0.4002460000000  0.4060590000000 1.0
C      1  0.3806880000000  0.3330740000000  0.6432180000000 1.0
C      1  0.6936960000000  0.3761790000000  0.5184720000000 1.0
C      1  0.2817110000000  0.4618570000000  0.3216840000000 1.0
C      1  0.4829150000000  0.7066330000000  0.3881830000000 1.0
C      1  0.5473210000000  0.3385100000000  0.4195130000000 1.0
C      1  0.4497910000000  0.6759770000000  0.6350520000000 1.0
C      1  0.7298760000000  0.3691010000000  0.6100020000000 1.0
C      1  0.7465280000000  0.5455550000000  0.5122650000000 1.0
C      1  0.5808820000000  0.5120190000000  0.2866350000000 1.0
C      1  0.3655000000000  0.5514030000000  0.4660090000000 1.0
C      1  0.4740230000000  0.2820530000000  0.3711120000000 1.0
C      1  0.3258990000000  0.4966980000000  0.6179260000000 1.0
C      1  0.4406220000000  0.3328510000000  0.4983340000000 1.0
C      1  0.3851720000000  0.4133100000000  0.3076940000000 1.0
C      1  0.3922830000000  0.6145560000000  0.7072460000000 1.0
C      1  0.5675080000000  0.5650160000000  0.4624050000000 1.0
C      1  0.7470150000000  0.4612570000000  0.4650280000000 1.0
C      1  0.6209250000000  0.6279120000000  0.3974080000000 1.0
C      1  0.3653300000000  0.6841130000000  0.5595710000000 1.0
C      1  0.6466020000000  0.6194760000000  0.6179340000000 1.0
C      1  0.7504810000000  0.3775320000000  0.7155780000000 1.0
C      1  0.4086930000000  0.3124610000000  0.3276450000000 1.0
C      1  0.2348660000000  0.5743870000000  0.4604540000000 1.0
C      1  0.5181980000000  0.6287660000000  0.5275130000000 1.0
C      1  0.5598020000000  0.3226850000000  0.6272180000000 1.0
C      1  0.2561700000000  0.5480210000000  0.3553980000000 1.0
C      1  0.5690350000000  0.6400290000000  0.6806320000000 1.0
END
