TITL C-986973-6940-1076 0.119304365191717 3375 -334.998633844254 0 0 60 (C1) n - 1
REM
REM in /home/bkarasulu/work/CARBON/AIRSS/Generating-Clusters/REBO/Higher-Symm/Only-C60
REM
REM
REM
REM
REM
REM ./C.cell (a2850807a9bf4ad07a5b6933b78d9264)
REM AIRSS Version 0.9.1 bugfix July 2018 build 013d7b7c2542+ Fri, 06 Jul 2018 19:26:36 +0100
REM compiler GCC version 9.2.1 20190827 (Red Hat 9.2.1-1)
REM options -cpp -mtune=generic -march=x86-64 -g -O0 -fpre-include=/usr/include/finclude/math-vector-fortran.h
REM seed 1520189845 1994187157 -1818055267 891651677 867665154 -2016923268 -347313625 239288279 1712577337 1097163419 2054273624 126157466 -1401075527 -186987582 466126166 1588110572 -1072306635 -1526909747 1412339819 -298437170 1049606308 -1869811876 -532674215 813861296 1228528107 -1108002457 -1209846571 1592507472 -443833075 1312184350 -1710103033 -449779911 -1778724713
REM
CELL 1.54180   15.00000   15.00000   15.00000   90.00000   90.00000   90.00000
LATT -1
SFAC C  
C      1  0.6953730000000  0.4702060000000  0.3778670000000 1.0
C      1  0.4971400000000  0.4522870000000  0.5803530000000 1.0
C      1  0.5297950000000  0.4037630000000  0.4609840000000 1.0
C      1  0.6232560000000  0.3847600000000  0.3682890000000 1.0
C      1  0.2278230000000  0.3700830000000  0.5721070000000 1.0
C      1  0.5669280000000  0.7517320000000  0.5021630000000 1.0
C      1  0.4332110000000  0.3033200000000  0.4600570000000 1.0
C      1  0.7177840000000  0.5658710000000  0.4038660000000 1.0
C      1  0.5991120000000  0.3686340000000  0.5411120000000 1.0
C      1  0.2644280000000  0.3554270000000  0.4907520000000 1.0
C      1  0.5654250000000  0.6727140000000  0.3477020000000 1.0
C      1  0.4054480000000  0.4784090000000  0.7118730000000 1.0
C      1  0.2690620000000  0.5194970000000  0.6176980000000 1.0
C      1  0.4328220000000  0.4384440000000  0.4919030000000 1.0
C      1  0.4647990000000  0.6779210000000  0.3861020000000 1.0
C      1  0.4591220000000  0.5321470000000  0.6326730000000 1.0
C      1  0.3449440000000  0.5718550000000  0.6845420000000 1.0
C      1  0.5036610000000  0.4243600000000  0.6912690000000 1.0
C      1  0.3759850000000  0.5265330000000  0.4848570000000 1.0
C      1  0.4425970000000  0.3467140000000  0.3547480000000 1.0
C      1  0.5548710000000  0.4749600000000  0.3521170000000 1.0
C      1  0.3660980000000  0.4313780000000  0.3529590000000 1.0
C      1  0.3493790000000  0.3956210000000  0.6756350000000 1.0
C      1  0.6247540000000  0.7142200000000  0.4282430000000 1.0
C      1  0.5568880000000  0.6006770000000  0.2646510000000 1.0
C      1  0.3880160000000  0.6371170000000  0.4589840000000 1.0
C      1  0.3533810000000  0.3758950000000  0.4480370000000 1.0
C      1  0.4971400000000  0.5519550000000  0.4126660000000 1.0
C      1  0.5070660000000  0.6244780000000  0.6075710000000 1.0
C      1  0.7127180000000  0.6200910000000  0.5991290000000 1.0
C      1  0.3309220000000  0.5277840000000  0.3594530000000 1.0
C      1  0.4755070000000  0.7305410000000  0.4864050000000 1.0
C      1  0.3807350000000  0.5784610000000  0.5761360000000 1.0
C      1  0.4651740000000  0.4416930000000  0.2994060000000 1.0
C      1  0.6995260000000  0.6508970000000  0.4712060000000 1.0
C      1  0.5366290000000  0.2647860000000  0.4860900000000 1.0
C      1  0.4166210000000  0.6592370000000  0.6681630000000 1.0
C      1  0.6688000000000  0.6265450000000  0.3401840000000 1.0
C      1  0.2669100000000  0.4253910000000  0.6382270000000 1.0
C      1  0.7206520000000  0.4478610000000  0.5427410000000 1.0
C      1  0.5920780000000  0.4794430000000  0.5504910000000 1.0
C      1  0.4151510000000  0.5852060000000  0.3411250000000 1.0
C      1  0.6072220000000  0.4882060000000  0.4491150000000 1.0
C      1  0.4879900000000  0.5965890000000  0.4992930000000 1.0
C      1  0.6441480000000  0.2970230000000  0.4696670000000 1.0
C      1  0.4809340000000  0.5458140000000  0.2675940000000 1.0
C      1  0.6492510000000  0.7048990000000  0.5579670000000 1.0
C      1  0.5425440000000  0.3194360000000  0.3869980000000 1.0
C      1  0.4607500000000  0.2862170000000  0.5690230000000 1.0
C      1  0.6023090000000  0.6315570000000  0.6261570000000 1.0
C      1  0.4019840000000  0.6890690000000  0.5592430000000 1.0
C      1  0.6985440000000  0.3915080000000  0.4559210000000 1.0
C      1  0.5920050000000  0.3768150000000  0.6738100000000 1.0
C      1  0.3918150000000  0.3253900000000  0.6357610000000 1.0
C      1  0.6715710000000  0.4248750000000  0.6411910000000 1.0
C      1  0.5570930000000  0.3042280000000  0.6112710000000 1.0
C      1  0.6505780000000  0.5308430000000  0.6198590000000 1.0
C      1  0.2679770000000  0.5335460000000  0.5221330000000 1.0
C      1  0.7330630000000  0.5500430000000  0.5154480000000 1.0
C      1  0.2624890000000  0.5450280000000  0.4190110000000 1.0
END
