TITL C-986977-940-102 -0.0177870760039489 3375 -351.679608239672 0 0 60 (C1) n - 1
REM
REM in /home/bkarasulu/work/CARBON/AIRSS/Generating-Clusters/REBO/Higher-Symm/Only-C60
REM
REM
REM
REM
REM
REM ./C.cell (a2850807a9bf4ad07a5b6933b78d9264)
REM AIRSS Version 0.9.1 bugfix July 2018 build 013d7b7c2542+ Fri, 06 Jul 2018 19:26:36 +0100
REM compiler GCC version 9.2.1 20190827 (Red Hat 9.2.1-1)
REM options -cpp -mtune=generic -march=x86-64 -g -O0 -fpre-include=/usr/include/finclude/math-vector-fortran.h
REM seed -1009748630 785571185 1056825106 2067333134 1599327234 -1944408452 -1871793864 -913079172 -481941385 -2140246655 -526531509 2050568258 540334240 -262076876 608011923 1909732982 -1576245405 -973093058 -1697597533 1611731045 503523536 885667903 200314829 -211021328 -147233926 2123703952 -266092051 307307479 528038484 218517316 290297498 412364980 -1472335651
REM
CELL 1.54180   15.00000   15.00000   15.00000   90.00000   90.00000   90.00000
LATT -1
SFAC C  
C      1  0.4065740000000  0.3174240000000  0.5860300000000 1.0
C      1  0.4375130000000  0.6997540000000  0.2885030000000 1.0
C      1  0.6518100000000  0.3629100000000  0.4508610000000 1.0
C      1  0.6588020000000  0.3119380000000  0.6030600000000 1.0
C      1  0.6836590000000  0.5226080000000  0.3981810000000 1.0
C      1  0.5743380000000  0.4229430000000  0.3251840000000 1.0
C      1  0.7153090000000  0.4700320000000  0.5617120000000 1.0
C      1  0.4110590000000  0.3851100000000  0.3179710000000 1.0
C      1  0.5023470000000  0.6490620000000  0.2458520000000 1.0
C      1  0.4984080000000  0.2862510000000  0.7368000000000 1.0
C      1  0.3456040000000  0.4340720000000  0.6803810000000 1.0
C      1  0.5898740000000  0.5980580000000  0.5933210000000 1.0
C      1  0.4574780000000  0.6155070000000  0.6861140000000 1.0
C      1  0.4350420000000  0.4597250000000  0.2519010000000 1.0
C      1  0.4996470000000  0.4813970000000  0.4290120000000 1.0
C      1  0.5198560000000  0.4351090000000  0.6144230000000 1.0
C      1  0.4781780000000  0.4831400000000  0.5351960000000 1.0
C      1  0.5985240000000  0.3479110000000  0.6752450000000 1.0
C      1  0.5480240000000  0.6110190000000  0.6764740000000 1.0
C      1  0.3692310000000  0.4797420000000  0.5375100000000 1.0
C      1  0.4530830000000  0.5664730000000  0.3837960000000 1.0
C      1  0.4939470000000  0.3100440000000  0.4439620000000 1.0
C      1  0.5230700000000  0.3859240000000  0.7521490000000 1.0
C      1  0.4754990000000  0.7404880000000  0.5543030000000 1.0
C      1  0.6945690000000  0.3792960000000  0.5382870000000 1.0
C      1  0.6843710000000  0.4936990000000  0.6489070000000 1.0
C      1  0.6010650000000  0.4585680000000  0.6723780000000 1.0
C      1  0.4088500000000  0.3038450000000  0.4908070000000 1.0
C      1  0.6128580000000  0.2460050000000  0.5482760000000 1.0
C      1  0.2829390000000  0.4061940000000  0.5274790000000 1.0
C      1  0.5581800000000  0.6417040000000  0.4336820000000 1.0
C      1  0.5839670000000  0.2892420000000  0.4665550000000 1.0
C      1  0.4891910000000  0.3341380000000  0.6344130000000 1.0
C      1  0.4043810000000  0.6679060000000  0.3675680000000 1.0
C      1  0.6633470000000  0.6881550000000  0.4020590000000 1.0
C      1  0.5972920000000  0.5821300000000  0.3584700000000 1.0
C      1  0.3825850000000  0.5149070000000  0.3184540000000 1.0
C      1  0.4044300000000  0.5241840000000  0.6977610000000 1.0
C      1  0.3486240000000  0.4965650000000  0.4261100000000 1.0
C      1  0.3386560000000  0.4017410000000  0.3758200000000 1.0
C      1  0.2948190000000  0.5874060000000  0.5143690000000 1.0
C      1  0.6738930000000  0.6221930000000  0.5481550000000 1.0
C      1  0.7096970000000  0.5433510000000  0.5017160000000 1.0
C      1  0.4932340000000  0.3838080000000  0.3774960000000 1.0
C      1  0.3358250000000  0.3747850000000  0.6127270000000 1.0
C      1  0.4071080000000  0.6761180000000  0.6168090000000 1.0
C      1  0.3278530000000  0.3458000000000  0.4529680000000 1.0
C      1  0.6492080000000  0.4278250000000  0.3817590000000 1.0
C      1  0.3981560000000  0.5891550000000  0.4719280000000 1.0
C      1  0.6537740000000  0.7050120000000  0.5001100000000 1.0
C      1  0.2426040000000  0.5072820000000  0.5063750000000 1.0
C      1  0.5528320000000  0.5737560000000  0.2756240000000 1.0
C      1  0.3705730000000  0.7412720000000  0.5331840000000 1.0
C      1  0.3642190000000  0.5724460000000  0.6028240000000 1.0
C      1  0.4696340000000  0.4569830000000  0.7502600000000 1.0
C      1  0.7222680000000  0.6236070000000  0.3718550000000 1.0
C      1  0.5292810000000  0.5775880000000  0.5189410000000 1.0
C      1  0.5322150000000  0.4811560000000  0.2581590000000 1.0
C      1  0.5528510000000  0.7265650000000  0.5102990000000 1.0
C      1  0.3377750000000  0.6789740000000  0.4594750000000 1.0
END
