TITL C-986978-6805-667 4.43732191357567e-06 3375 -360.989492015646 0 0 60 (Th) n - 1
REM
REM in /home/bkarasulu/work/CARBON/AIRSS/Generating-Clusters/REBO/Higher-Symm/Only-C60
REM
REM
REM
REM
REM
REM ./C.cell (a2850807a9bf4ad07a5b6933b78d9264)
REM AIRSS Version 0.9.1 bugfix July 2018 build 013d7b7c2542+ Fri, 06 Jul 2018 19:26:36 +0100
REM compiler GCC version 9.2.1 20190827 (Red Hat 9.2.1-1)
REM options -cpp -mtune=generic -march=x86-64 -g -O0 -fpre-include=/usr/include/finclude/math-vector-fortran.h
REM seed -1048780700 1078480786 -1211438207 -557190506 -286393286 -1064555287 -1034245730 -390510820 852654931 -154141017 -1597886120 -264561289 1060549751 -18478464 -509664096 -1332562037 -588707892 -2092605231 1478223449 -1368264198 -518800060 2005807027 -1177499880 -813078408 -513837855 842492935 -1527644528 -1862759077 1793687948 1330665307 1951950620 -262880020 -2116160318
REM
CELL 1.54180   15.00000   15.00000   15.00000   90.00000   90.00000   90.00000
LATT -1
SFAC C  
C      1  0.4083380000000  0.4095470000000  0.3304190000000 1.0
C      1  0.3304190000000  0.4083380000000  0.4095470000000 1.0
C      1  0.4095470000000  0.3304190000000  0.4083380000000 1.0
C      1  0.5916620000000  0.5904530000000  0.3304190000000 1.0
C      1  0.5916620000000  0.4095470000000  0.6695810000000 1.0
C      1  0.4083380000000  0.5904530000000  0.6695810000000 1.0
C      1  0.6695810000000  0.5916620000000  0.4095470000000 1.0
C      1  0.6695810000000  0.4083380000000  0.5904530000000 1.0
C      1  0.3304190000000  0.5916620000000  0.5904530000000 1.0
C      1  0.5904530000000  0.6695810000000  0.4083380000000 1.0
C      1  0.5904530000000  0.3304190000000  0.5916620000000 1.0
C      1  0.4095470000000  0.6695810000000  0.5916620000000 1.0
C      1  0.4083380000000  0.4095470000000  0.6695810000000 1.0
C      1  0.3304190000000  0.4083380000000  0.5904530000000 1.0
C      1  0.4095470000000  0.3304190000000  0.5916620000000 1.0
C      1  0.5916620000000  0.5904530000000  0.6695810000000 1.0
C      1  0.5916620000000  0.4095470000000  0.3304190000000 1.0
C      1  0.4083380000000  0.5904530000000  0.3304190000000 1.0
C      1  0.6695810000000  0.5916620000000  0.5904530000000 1.0
C      1  0.6695810000000  0.4083380000000  0.4095470000000 1.0
C      1  0.3304190000000  0.5916620000000  0.4095470000000 1.0
C      1  0.5904530000000  0.6695810000000  0.5916620000000 1.0
C      1  0.5904530000000  0.3304190000000  0.4083380000000 1.0
C      1  0.4095470000000  0.6695810000000  0.4083380000000 1.0
C      1  0.5423990000000  0.2506410000000  0.6388880000000 1.0
C      1  0.6388880000000  0.5423990000000  0.2506410000000 1.0
C      1  0.2506410000000  0.6388880000000  0.5423990000000 1.0
C      1  0.4576010000000  0.7493590000000  0.6388880000000 1.0
C      1  0.4576010000000  0.2506410000000  0.3611120000000 1.0
C      1  0.5423990000000  0.7493590000000  0.3611120000000 1.0
C      1  0.3611120000000  0.4576010000000  0.2506410000000 1.0
C      1  0.3611120000000  0.5423990000000  0.7493590000000 1.0
C      1  0.6388880000000  0.4576010000000  0.7493590000000 1.0
C      1  0.7493590000000  0.3611120000000  0.5423990000000 1.0
C      1  0.7493590000000  0.6388880000000  0.4576010000000 1.0
C      1  0.2506410000000  0.3611120000000  0.4576010000000 1.0
C      1  0.5423990000000  0.2506410000000  0.3611120000000 1.0
C      1  0.6388880000000  0.5423990000000  0.7493590000000 1.0
C      1  0.2506410000000  0.6388880000000  0.4576010000000 1.0
C      1  0.4576010000000  0.7493590000000  0.3611120000000 1.0
C      1  0.4576010000000  0.2506410000000  0.6388880000000 1.0
C      1  0.5423990000000  0.7493590000000  0.6388880000000 1.0
C      1  0.3611120000000  0.4576010000000  0.7493590000000 1.0
C      1  0.3611120000000  0.5423990000000  0.2506410000000 1.0
C      1  0.6388880000000  0.4576010000000  0.2506410000000 1.0
C      1  0.7493590000000  0.3611120000000  0.4576010000000 1.0
C      1  0.7493590000000  0.6388880000000  0.5423990000000 1.0
C      1  0.2506410000000  0.3611120000000  0.5423990000000 1.0
C      1  0.5000000000000  0.5447430000000  0.6661740000000 1.0
C      1  0.6661740000000  0.5000000000000  0.5447430000000 1.0
C      1  0.5447430000000  0.6661740000000  0.5000000000000 1.0
C      1  0.5000000000000  0.4552570000000  0.6661740000000 1.0
C      1  0.5000000000000  0.5447430000000  0.3338260000000 1.0
C      1  0.5000000000000  0.4552570000000  0.3338260000000 1.0
C      1  0.3338260000000  0.5000000000000  0.5447430000000 1.0
C      1  0.3338260000000  0.5000000000000  0.4552570000000 1.0
C      1  0.6661740000000  0.5000000000000  0.4552570000000 1.0
C      1  0.4552570000000  0.3338260000000  0.5000000000000 1.0
C      1  0.4552570000000  0.6661740000000  0.5000000000000 1.0
C      1  0.5447430000000  0.3338260000000  0.5000000000000 1.0
END
