TITL C-986975-4297-244 -0.0466335769225028 3375 -350.695902799507 0 0 60 (Cs) n - 1
REM
REM in /home/bkarasulu/work/CARBON/AIRSS/Generating-Clusters/REBO/Higher-Symm/Only-C60
REM
REM
REM
REM
REM
REM ./C.cell (a2850807a9bf4ad07a5b6933b78d9264)
REM AIRSS Version 0.9.1 bugfix July 2018 build 013d7b7c2542+ Fri, 06 Jul 2018 19:26:36 +0100
REM compiler GCC version 9.2.1 20190827 (Red Hat 9.2.1-1)
REM options -cpp -mtune=generic -march=x86-64 -g -O0 -fpre-include=/usr/include/finclude/math-vector-fortran.h
REM seed 944363149 2114015202 -806790724 1291640120 1884778206 120248596 1786035462 -1199965790 1467947460 -532972277 563168243 2017551808 -45412226 -509436687 -1508391925 -995183253 1219710936 -30600434 942341153 -690397677 -2000272177 1465513128 -392028799 -213162307 1780662847 1835525295 -500895381 -976854063 -2146732090 -1667192701 972532036 -1113651340 -297640837
REM
CELL 1.54180   15.00000   15.00000   15.00000   90.00000   90.00000   90.00000
LATT -1
SFAC C  
C      1  0.6598160000000  0.5842730000000  0.3479630000000 1.0
C      1  0.2915180000000  0.5830750000000  0.4287610000000 1.0
C      1  0.5492470000000  0.5901840000000  0.7095140000000 1.0
C      1  0.6598630000000  0.4157260000000  0.3479380000000 1.0
C      1  0.2915270000000  0.4168870000000  0.4287810000000 1.0
C      1  0.5492560000000  0.4098170000000  0.7095100000000 1.0
C      1  0.3388030000000  0.5837810000000  0.3471600000000 1.0
C      1  0.7077410000000  0.5837280000000  0.4289270000000 1.0
C      1  0.4495330000000  0.5905550000000  0.7090700000000 1.0
C      1  0.3388300000000  0.4162480000000  0.3471900000000 1.0
C      1  0.7077560000000  0.4163120000000  0.4289110000000 1.0
C      1  0.4495420000000  0.4094490000000  0.7090790000000 1.0
C      1  0.4084870000000  0.2676190000000  0.4963610000000 1.0
C      1  0.5484650000000  0.2629920000000  0.5908750000000 1.0
C      1  0.5584550000000  0.2640870000000  0.4174850000000 1.0
C      1  0.4085270000000  0.7324120000000  0.4963520000000 1.0
C      1  0.5485240000000  0.7370060000000  0.5908630000000 1.0
C      1  0.5584420000000  0.7357310000000  0.4174700000000 1.0
C      1  0.6009550000000  0.2635270000000  0.5011360000000 1.0
C      1  0.4556980000000  0.2644320000000  0.5884700000000 1.0
C      1  0.4526800000000  0.2626590000000  0.4136110000000 1.0
C      1  0.6009830000000  0.7364330000000  0.5010800000000 1.0
C      1  0.4557020000000  0.7355370000000  0.5884590000000 1.0
C      1  0.4530040000000  0.7371460000000  0.4133880000000 1.0
C      1  0.7051450000000  0.4535550000000  0.2725400000000 1.0
C      1  0.2033900000000  0.4535980000000  0.4256270000000 1.0
C      1  0.5875730000000  0.4578550000000  0.7915210000000 1.0
C      1  0.7051340000000  0.5464960000000  0.2725540000000 1.0
C      1  0.2033850000000  0.5463370000000  0.4256130000000 1.0
C      1  0.5875620000000  0.5421380000000  0.7915260000000 1.0
C      1  0.2925870000000  0.4536510000000  0.2720310000000 1.0
C      1  0.7955710000000  0.4536550000000  0.4248320000000 1.0
C      1  0.4109070000000  0.4578500000000  0.7908280000000 1.0
C      1  0.2925970000000  0.5463280000000  0.2720140000000 1.0
C      1  0.7955650000000  0.5464040000000  0.4248340000000 1.0
C      1  0.4108950000000  0.5421570000000  0.7908200000000 1.0
C      1  0.5384770000000  0.6582540000000  0.3511510000000 1.0
C      1  0.3582870000000  0.6579210000000  0.5450900000000 1.0
C      1  0.6001030000000  0.6623930000000  0.6496180000000 1.0
C      1  0.5389520000000  0.3418920000000  0.3508890000000 1.0
C      1  0.3582050000000  0.3420960000000  0.5451170000000 1.0
C      1  0.6000810000000  0.3376140000000  0.6495940000000 1.0
C      1  0.4348440000000  0.6696560000000  0.3363410000000 1.0
C      1  0.6459840000000  0.6583240000000  0.5493380000000 1.0
C      1  0.4007860000000  0.6629900000000  0.6471120000000 1.0
C      1  0.4349230000000  0.3305360000000  0.3363210000000 1.0
C      1  0.6459270000000  0.3416930000000  0.5492920000000 1.0
C      1  0.4007590000000  0.3370100000000  0.6471470000000 1.0
C      1  0.6572180000000  0.4433610000000  0.5166970000000 1.0
C      1  0.4459260000000  0.4433520000000  0.3469670000000 1.0
C      1  0.3953680000000  0.4470190000000  0.6165570000000 1.0
C      1  0.6572250000000  0.5566490000000  0.5167120000000 1.0
C      1  0.4459260000000  0.5568130000000  0.3469570000000 1.0
C      1  0.3953640000000  0.5529620000000  0.6165520000000 1.0
C      1  0.3428250000000  0.4438780000000  0.5157490000000 1.0
C      1  0.5594600000000  0.4467980000000  0.3519460000000 1.0
C      1  0.6037280000000  0.4471500000000  0.6170310000000 1.0
C      1  0.3428260000000  0.5561080000000  0.5157270000000 1.0
C      1  0.5594190000000  0.5530350000000  0.3519630000000 1.0
C      1  0.6037220000000  0.5528570000000  0.6170370000000 1.0
END
