TITL C-986976-6631-1031 1.01710861562122e-05 3375 -348.701787793971 0 0 60 (C1) n - 1
REM
REM in /home/bkarasulu/work/CARBON/AIRSS/Generating-Clusters/REBO/Higher-Symm/Only-C60
REM
REM
REM
REM
REM
REM ./C.cell (a2850807a9bf4ad07a5b6933b78d9264)
REM AIRSS Version 0.9.1 bugfix July 2018 build 013d7b7c2542+ Fri, 06 Jul 2018 19:26:36 +0100
REM compiler GCC version 9.2.1 20190827 (Red Hat 9.2.1-1)
REM options -cpp -mtune=generic -march=x86-64 -g -O0 -fpre-include=/usr/include/finclude/math-vector-fortran.h
REM seed 1484313634 -483196475 718375799 -566359631 -1539538781 509425745 -1712060680 -16620717 816019907 -728420752 1986185592 942187906 1438665371 517481588 1777138456 -1605069200 -858778189 1959237207 -879215666 -543261752 558140857 -1935145620 1248649866 -1250050780 -643984983 -377280147 -393495438 -751925807 -1722401594 -1761526433 -613740256 -291785822 1266453871
REM
CELL 1.54180   15.00000   15.00000   15.00000   90.00000   90.00000   90.00000
LATT -1
SFAC C  
C      1  0.2910810000000  0.4472190000000  0.4310910000000 1.0
C      1  0.2982760000000  0.5542100000000  0.4249240000000 1.0
C      1  0.6163520000000  0.3402520000000  0.3723390000000 1.0
C      1  0.6295830000000  0.6644480000000  0.3802150000000 1.0
C      1  0.2944930000000  0.4550350000000  0.6002680000000 1.0
C      1  0.2927200000000  0.5485350000000  0.5963780000000 1.0
C      1  0.4390470000000  0.7066450000000  0.3066730000000 1.0
C      1  0.4331900000000  0.2848770000000  0.3074090000000 1.0
C      1  0.5309180000000  0.3117180000000  0.6510330000000 1.0
C      1  0.5268800000000  0.6853180000000  0.6554490000000 1.0
C      1  0.2856640000000  0.6037640000000  0.5052180000000 1.0
C      1  0.2842210000000  0.3982940000000  0.5120460000000 1.0
C      1  0.7058800000000  0.4144120000000  0.6228030000000 1.0
C      1  0.7060230000000  0.5974680000000  0.6404750000000 1.0
C      1  0.5547130000000  0.5440850000000  0.4003920000000 1.0
C      1  0.5374720000000  0.4434060000000  0.4021240000000 1.0
C      1  0.4050200000000  0.2724930000000  0.4731270000000 1.0
C      1  0.4101850000000  0.7247930000000  0.4685870000000 1.0
C      1  0.5561270000000  0.5375490000000  0.7929730000000 1.0
C      1  0.5702420000000  0.4395780000000  0.8043510000000 1.0
C      1  0.4216910000000  0.3746910000000  0.2506210000000 1.0
C      1  0.4233380000000  0.6149090000000  0.2516380000000 1.0
C      1  0.5350610000000  0.4031780000000  0.4949730000000 1.0
C      1  0.5467290000000  0.5927970000000  0.4921410000000 1.0
C      1  0.3844650000000  0.7453810000000  0.3781690000000 1.0
C      1  0.3799100000000  0.2491750000000  0.3831790000000 1.0
C      1  0.4540110000000  0.5987680000000  0.6462820000000 1.0
C      1  0.4581430000000  0.3993440000000  0.6497390000000 1.0
C      1  0.6208210000000  0.6050870000000  0.6119810000000 1.0
C      1  0.6198090000000  0.3962920000000  0.6049280000000 1.0
C      1  0.3654860000000  0.6201780000000  0.6091500000000 1.0
C      1  0.3672750000000  0.3823700000000  0.6137150000000 1.0
C      1  0.6412910000000  0.3655820000000  0.4773810000000 1.0
C      1  0.6481900000000  0.6435330000000  0.4874820000000 1.0
C      1  0.7263880000000  0.5667010000000  0.4816630000000 1.0
C      1  0.7095680000000  0.4551770000000  0.4642080000000 1.0
C      1  0.3979330000000  0.4485100000000  0.1974930000000 1.0
C      1  0.3969750000000  0.5403160000000  0.2014890000000 1.0
C      1  0.4836080000000  0.5877790000000  0.3408560000000 1.0
C      1  0.4570950000000  0.4076960000000  0.3483540000000 1.0
C      1  0.5268020000000  0.4496160000000  0.5872060000000 1.0
C      1  0.5280190000000  0.5499000000000  0.5863530000000 1.0
C      1  0.7556360000000  0.4637140000000  0.5599840000000 1.0
C      1  0.7684400000000  0.5604040000000  0.5799630000000 1.0
C      1  0.3862760000000  0.5581760000000  0.3662460000000 1.0
C      1  0.3751460000000  0.4587440000000  0.3751450000000 1.0
C      1  0.4549210000000  0.5519450000000  0.7422290000000 1.0
C      1  0.4707360000000  0.4474040000000  0.7454110000000 1.0
C      1  0.5185970000000  0.3148710000000  0.3736450000000 1.0
C      1  0.5307170000000  0.6826650000000  0.3690760000000 1.0
C      1  0.5818460000000  0.6994530000000  0.5622040000000 1.0
C      1  0.5892280000000  0.2995100000000  0.5561080000000 1.0
C      1  0.6442040000000  0.4490610000000  0.3738650000000 1.0
C      1  0.6662620000000  0.5575640000000  0.3876590000000 1.0
C      1  0.5435940000000  0.3578470000000  0.7418960000000 1.0
C      1  0.5361930000000  0.6326370000000  0.7444530000000 1.0
C      1  0.3509100000000  0.3197240000000  0.5319980000000 1.0
C      1  0.3530950000000  0.6817550000000  0.5275890000000 1.0
C      1  0.5087480000000  0.6987170000000  0.4753770000000 1.0
C      1  0.5047530000000  0.2947310000000  0.4802750000000 1.0
END
