TITL C-986974-580-991 2.1101775794312e-05 3375 -348.022653150224 0 0 60 (Th) n - 1
REM
REM in /home/bkarasulu/work/CARBON/AIRSS/Generating-Clusters/REBO/Higher-Symm/Only-C60
REM
REM
REM
REM
REM
REM ./C.cell (a2850807a9bf4ad07a5b6933b78d9264)
REM AIRSS Version 0.9.1 bugfix July 2018 build 013d7b7c2542+ Fri, 06 Jul 2018 19:26:36 +0100
REM compiler GCC version 9.2.1 20190827 (Red Hat 9.2.1-1)
REM options -cpp -mtune=generic -march=x86-64 -g -O0 -fpre-include=/usr/include/finclude/math-vector-fortran.h
REM seed 740228056 1547871195 1255294688 1222309098 -1889371484 9585333 1565302298 680924433 -206634847 -970098465 -170256764 570409976 -1558994761 950765021 -563125539 1708671203 -1597668383 -1181593268 -1893266657 -185584921 -2083867062 -1472846526 -405821569 2140382846 1818032783 782271130 -884700828 1838420872 -1050837758 958295958 -1492364111 -137947424 -988654374
REM
CELL 1.54180   15.00000   15.00000   15.00000   90.00000   90.00000   90.00000
LATT -1
SFAC C  
C      1  0.5554460000000  0.2561310000000  0.5526020000000 1.0
C      1  0.2561310000000  0.5526020000000  0.5554460000000 1.0
C      1  0.5526020000000  0.5554460000000  0.2561310000000 1.0
C      1  0.5554460000000  0.7438690000000  0.4473980000000 1.0
C      1  0.4445540000000  0.2561310000000  0.4473980000000 1.0
C      1  0.4445540000000  0.7438690000000  0.5526020000000 1.0
C      1  0.2561310000000  0.4473980000000  0.4445540000000 1.0
C      1  0.7438690000000  0.5526020000000  0.4445540000000 1.0
C      1  0.7438690000000  0.4473980000000  0.5554460000000 1.0
C      1  0.5526020000000  0.4445540000000  0.7438690000000 1.0
C      1  0.4473980000000  0.5554460000000  0.7438690000000 1.0
C      1  0.4473980000000  0.4445540000000  0.2561310000000 1.0
C      1  0.4445540000000  0.2561310000000  0.5526020000000 1.0
C      1  0.7438690000000  0.5526020000000  0.5554460000000 1.0
C      1  0.4473980000000  0.5554460000000  0.2561310000000 1.0
C      1  0.4445540000000  0.7438690000000  0.4473980000000 1.0
C      1  0.5554460000000  0.2561310000000  0.4473980000000 1.0
C      1  0.5554460000000  0.7438690000000  0.5526020000000 1.0
C      1  0.7438690000000  0.4473980000000  0.4445540000000 1.0
C      1  0.2561310000000  0.5526020000000  0.4445540000000 1.0
C      1  0.2561310000000  0.4473980000000  0.5554460000000 1.0
C      1  0.4473980000000  0.4445540000000  0.7438690000000 1.0
C      1  0.5526020000000  0.5554460000000  0.7438690000000 1.0
C      1  0.5526020000000  0.4445540000000  0.2561310000000 1.0
C      1  0.3751420000000  0.3242680000000  0.5844310000000 1.0
C      1  0.3242680000000  0.5844310000000  0.3751420000000 1.0
C      1  0.5844310000000  0.3751420000000  0.3242680000000 1.0
C      1  0.3751420000000  0.6757320000000  0.4155690000000 1.0
C      1  0.6248580000000  0.3242680000000  0.4155690000000 1.0
C      1  0.6248580000000  0.6757320000000  0.5844310000000 1.0
C      1  0.3242680000000  0.4155690000000  0.6248580000000 1.0
C      1  0.6757320000000  0.5844310000000  0.6248580000000 1.0
C      1  0.6757320000000  0.4155690000000  0.3751420000000 1.0
C      1  0.5844310000000  0.6248580000000  0.6757320000000 1.0
C      1  0.4155690000000  0.3751420000000  0.6757320000000 1.0
C      1  0.4155690000000  0.6248580000000  0.3242680000000 1.0
C      1  0.6248580000000  0.3242680000000  0.5844310000000 1.0
C      1  0.6757320000000  0.5844310000000  0.3751420000000 1.0
C      1  0.4155690000000  0.3751420000000  0.3242680000000 1.0
C      1  0.6248580000000  0.6757320000000  0.4155690000000 1.0
C      1  0.3751430000000  0.3242680000000  0.4155690000000 1.0
C      1  0.3751420000000  0.6757320000000  0.5844310000000 1.0
C      1  0.6757320000000  0.4155690000000  0.6248570000000 1.0
C      1  0.3242680000000  0.5844310000000  0.6248580000000 1.0
C      1  0.3242680000000  0.4155690000000  0.3751420000000 1.0
C      1  0.4155690000000  0.6248580000000  0.6757320000000 1.0
C      1  0.5844310000000  0.3751420000000  0.6757320000000 1.0
C      1  0.5844310000000  0.6248570000000  0.3242680000000 1.0
C      1  0.5000000000000  0.6809950000000  0.3693190000000 1.0
C      1  0.5000000000000  0.3190050000000  0.6306810000000 1.0
C      1  0.3693190000000  0.5000000000000  0.6809950000000 1.0
C      1  0.6306810000000  0.5000000000000  0.3190050000000 1.0
C      1  0.5000000000000  0.6809950000000  0.6306810000000 1.0
C      1  0.6809950000000  0.6306810000000  0.5000000000000 1.0
C      1  0.6306810000000  0.5000000000000  0.6809950000000 1.0
C      1  0.5000000000000  0.3190050000000  0.3693190000000 1.0
C      1  0.6809950000000  0.3693190000000  0.5000000000000 1.0
C      1  0.3190050000000  0.6306810000000  0.5000000000000 1.0
C      1  0.3190050000000  0.3693190000000  0.5000000000000 1.0
C      1  0.3693190000000  0.5000000000000  0.3190050000000 1.0
END
