TITL C-986978-6805-61 -0.0181493383683338 3375 -357.928531417329 0 0 60 (C1) n - 1
REM
REM in /home/bkarasulu/work/CARBON/AIRSS/Generating-Clusters/REBO/Higher-Symm/Only-C60
REM
REM
REM
REM
REM
REM ./C.cell (a2850807a9bf4ad07a5b6933b78d9264)
REM AIRSS Version 0.9.1 bugfix July 2018 build 013d7b7c2542+ Fri, 06 Jul 2018 19:26:36 +0100
REM compiler GCC version 9.2.1 20190827 (Red Hat 9.2.1-1)
REM options -cpp -mtune=generic -march=x86-64 -g -O0 -fpre-include=/usr/include/finclude/math-vector-fortran.h
REM seed -110800133 2122203415 -586737968 1052740566 1643080051 1008843143 1680867698 -790473394 1547254264 828786087 -1012780817 1418641716 1656851181 -1654070308 1455687886 -1770245571 -609453328 -786420353 -1721504898 -198409272 1706934893 -162776019 -1796949419 -1572222689 -389689392 -841108608 131710415 -1325047384 288983950 -1931332235 -1632356131 135600606 -917261636
REM
CELL 1.54180   15.00000   15.00000   15.00000   90.00000   90.00000   90.00000
LATT -1
SFAC C  
C      1  0.2317400000000  0.5916870000000  0.5820190000000 1.0
C      1  0.7122170000000  0.6756210000000  0.5914690000000 1.0
C      1  0.5367990000000  0.2302440000000  0.5881440000000 1.0
C      1  0.2403720000000  0.5961210000000  0.4082200000000 1.0
C      1  0.7181870000000  0.6690610000000  0.4177270000000 1.0
C      1  0.5455590000000  0.2283620000000  0.4121550000000 1.0
C      1  0.7591500000000  0.5967610000000  0.5934210000000 1.0
C      1  0.2818360000000  0.6685330000000  0.5835800000000 1.0
C      1  0.4456390000000  0.2238870000000  0.5837200000000 1.0
C      1  0.7695280000000  0.5929580000000  0.4199710000000 1.0
C      1  0.2864040000000  0.6753460000000  0.4095630000000 1.0
C      1  0.4542710000000  0.2260520000000  0.4086900000000 1.0
C      1  0.5927240000000  0.5115060000000  0.3419140000000 1.0
C      1  0.4539280000000  0.4247390000000  0.3720130000000 1.0
C      1  0.4472190000000  0.5906630000000  0.3491810000000 1.0
C      1  0.6077580000000  0.5138540000000  0.6318660000000 1.0
C      1  0.4666770000000  0.4271910000000  0.6430860000000 1.0
C      1  0.4625420000000  0.5931430000000  0.6585360000000 1.0
C      1  0.4046350000000  0.5029550000000  0.3748590000000 1.0
C      1  0.5474140000000  0.4302440000000  0.3430320000000 1.0
C      1  0.5391230000000  0.5953340000000  0.3393210000000 1.0
C      1  0.4170920000000  0.5051110000000  0.6499820000000 1.0
C      1  0.5640140000000  0.4333920000000  0.6447690000000 1.0
C      1  0.5547280000000  0.5970550000000  0.6501260000000 1.0
C      1  0.6253540000000  0.2605000000000  0.4548800000000 1.0
C      1  0.2259560000000  0.5073730000000  0.4435400000000 1.0
C      1  0.6466060000000  0.7252310000000  0.4512170000000 1.0
C      1  0.6196200000000  0.2634130000000  0.5523830000000 1.0
C      1  0.2161690000000  0.5046120000000  0.5417030000000 1.0
C      1  0.6435360000000  0.7302360000000  0.5498470000000 1.0
C      1  0.3705950000000  0.2588460000000  0.4434980000000 1.0
C      1  0.7855930000000  0.5054710000000  0.4598540000000 1.0
C      1  0.3558140000000  0.7290180000000  0.4506740000000 1.0
C      1  0.3639720000000  0.2541210000000  0.5416710000000 1.0
C      1  0.7758180000000  0.5080280000000  0.5583050000000 1.0
C      1  0.3530570000000  0.7244190000000  0.5492000000000 1.0
C      1  0.7213420000000  0.4279200000000  0.4203910000000 1.0
C      1  0.3456930000000  0.3562180000000  0.4137670000000 1.0
C      1  0.4558120000000  0.7069760000000  0.4192060000000 1.0
C      1  0.7025190000000  0.4362840000000  0.5799970000000 1.0
C      1  0.3267030000000  0.3451170000000  0.5793950000000 1.0
C      1  0.4494860000000  0.7045720000000  0.5861310000000 1.0
C      1  0.2978410000000  0.4360590000000  0.4175180000000 1.0
C      1  0.6672670000000  0.3503070000000  0.4214890000000 1.0
C      1  0.5494230000000  0.7051950000000  0.4140200000000 1.0
C      1  0.2772100000000  0.4258610000000  0.5818690000000 1.0
C      1  0.6531150000000  0.3572400000000  0.5828750000000 1.0
C      1  0.5427820000000  0.7088160000000  0.5789960000000 1.0
C      1  0.3439910000000  0.5094370000000  0.5767320000000 1.0
C      1  0.5862390000000  0.6108360000000  0.5444130000000 1.0
C      1  0.5455240000000  0.3736810000000  0.5501250000000 1.0
C      1  0.3552090000000  0.5179570000000  0.4717920000000 1.0
C      1  0.5947410000000  0.6038040000000  0.4375150000000 1.0
C      1  0.5579350000000  0.3737820000000  0.4374750000000 1.0
C      1  0.6473470000000  0.5217090000000  0.5280130000000 1.0
C      1  0.4053330000000  0.6029010000000  0.5609730000000 1.0
C      1  0.4336720000000  0.3642910000000  0.5668990000000 1.0
C      1  0.6591190000000  0.5152290000000  0.4215280000000 1.0
C      1  0.4124600000000  0.6092330000000  0.4533490000000 1.0
C      1  0.4475920000000  0.3654890000000  0.4613940000000 1.0
END
