TITL C-986973-6940-79 0.00751243319879337 3375 -360.050210358035 0 0 60 (C3) n - 1
REM
REM in /home/bkarasulu/work/CARBON/AIRSS/Generating-Clusters/REBO/Higher-Symm/Only-C60
REM
REM
REM
REM
REM
REM ./C.cell (a2850807a9bf4ad07a5b6933b78d9264)
REM AIRSS Version 0.9.1 bugfix July 2018 build 013d7b7c2542+ Fri, 06 Jul 2018 19:26:36 +0100
REM compiler GCC version 9.2.1 20190827 (Red Hat 9.2.1-1)
REM options -cpp -mtune=generic -march=x86-64 -g -O0 -fpre-include=/usr/include/finclude/math-vector-fortran.h
REM seed 395121519 1800411394 133184997 -1381882933 1115862865 -839442831 -1810246803 548787264 -1974771373 1944694876 -1744856271 -1631610431 -76751528 1780294912 171794416 -818953135 -684808089 -311813256 223420681 762346897 -1753436692 17729695 -992121904 -117872455 315062954 -1393080094 849116911 353512240 -442548065 -2009757600 -2145839395 -397132559 -344113023
REM
CELL 1.54180   15.00000   15.00000   15.00000   90.00000   90.00000   90.00000
LATT -1
SFAC C  
C      1  0.3097100000000  0.5971030000000  0.3685680000000 1.0
C      1  0.4815610000000  0.5961610000000  0.7302360000000 1.0
C      1  0.7085700000000  0.5971750000000  0.4009880000000 1.0
C      1  0.5019820000000  0.4408480000000  0.6597960000000 1.0
C      1  0.6372770000000  0.4413750000000  0.4189660000000 1.0
C      1  0.3608540000000  0.4413620000000  0.4215010000000 1.0
C      1  0.4813790000000  0.4963030000000  0.5632480000000 1.0
C      1  0.5638300000000  0.4961080000000  0.4846560000000 1.0
C      1  0.4545190000000  0.4959580000000  0.4526610000000 1.0
C      1  0.6552700000000  0.4886800000000  0.6383920000000 1.0
C      1  0.5422880000000  0.4887330000000  0.2964780000000 1.0
C      1  0.3027790000000  0.4892160000000  0.5650260000000 1.0
C      1  0.5921110000000  0.7089490000000  0.5218360000000 1.0
C      1  0.4726890000000  0.7092040000000  0.4091110000000 1.0
C      1  0.4347920000000  0.7090660000000  0.5690130000000 1.0
C      1  0.5986460000000  0.2450910000000  0.4894310000000 1.0
C      1  0.4415730000000  0.2451960000000  0.4200360000000 1.0
C      1  0.4599040000000  0.2455950000000  0.5907590000000 1.0
C      1  0.5665780000000  0.6982110000000  0.4295570000000 1.0
C      1  0.4056420000000  0.6982840000000  0.4774170000000 1.0
C      1  0.5273730000000  0.6977560000000  0.5929100000000 1.0
C      1  0.6732510000000  0.6593800000000  0.5400840000000 1.0
C      1  0.4479410000000  0.6591290000000  0.3301010000000 1.0
C      1  0.3779130000000  0.6598440000000  0.6306170000000 1.0
C      1  0.5547120000000  0.3259120000000  0.3371230000000 1.0
C      1  0.3313960000000  0.3261740000000  0.5340980000000 1.0
C      1  0.6142520000000  0.3255890000000  0.6288970000000 1.0
C      1  0.7122100000000  0.4738480000000  0.5590650000000 1.0
C      1  0.4451900000000  0.4736300000000  0.2866330000000 1.0
C      1  0.3430740000000  0.4743020000000  0.6539790000000 1.0
C      1  0.3149980000000  0.4142550000000  0.5058410000000 1.0
C      1  0.5978840000000  0.4136980000000  0.6571540000000 1.0
C      1  0.5874040000000  0.4139990000000  0.3370150000000 1.0
C      1  0.7169140000000  0.4993080000000  0.3814380000000 1.0
C      1  0.2890540000000  0.4996500000000  0.3709530000000 1.0
C      1  0.4954330000000  0.4990160000000  0.7470760000000 1.0
C      1  0.4381980000000  0.5671430000000  0.3810880000000 1.0
C      1  0.4276970000000  0.5682720000000  0.6122010000000 1.0
C      1  0.6338440000000  0.5674270000000  0.5059860000000 1.0
C      1  0.6358820000000  0.5835220000000  0.6657380000000 1.0
C      1  0.5753760000000  0.5836140000000  0.2992920000000 1.0
C      1  0.2884730000000  0.5840460000000  0.5350440000000 1.0
C      1  0.2856290000000  0.6455950000000  0.6099690000000 1.0
C      1  0.7015830000000  0.6453260000000  0.6302870000000 1.0
C      1  0.5114620000000  0.6450700000000  0.2600270000000 1.0
C      1  0.6838960000000  0.4006060000000  0.5025460000000 1.0
C      1  0.4103370000000  0.4006760000000  0.3396470000000 1.0
C      1  0.4059360000000  0.4009080000000  0.6576470000000 1.0
C      1  0.3305650000000  0.6334690000000  0.4568920000000 1.0
C      1  0.5469380000000  0.6327130000000  0.6681770000000 1.0
C      1  0.6219400000000  0.6333190000000  0.3747500000000 1.0
C      1  0.3796280000000  0.5539550000000  0.7105130000000 1.0
C      1  0.7433290000000  0.5540640000000  0.5001550000000 1.0
C      1  0.3781690000000  0.5537540000000  0.2891090000000 1.0
C      1  0.3980190000000  0.2491450000000  0.5040470000000 1.0
C      1  0.5543910000000  0.2490170000000  0.5863160000000 1.0
C      1  0.5476190000000  0.2488410000000  0.4097890000000 1.0
C      1  0.3917490000000  0.3187460000000  0.6167430000000 1.0
C      1  0.6554230000000  0.3182130000000  0.5352020000000 1.0
C      1  0.4529650000000  0.3184570000000  0.3481720000000 1.0
END
