TITL C-986974-580-148 -1.92322846675284e-07 3375 -346.002917757369 0 0 60 (D3h) n - 1
REM
REM in /home/bkarasulu/work/CARBON/AIRSS/Generating-Clusters/REBO/Higher-Symm/Only-C60
REM
REM
REM
REM
REM
REM ./C.cell (a2850807a9bf4ad07a5b6933b78d9264)
REM AIRSS Version 0.9.1 bugfix July 2018 build 013d7b7c2542+ Fri, 06 Jul 2018 19:26:36 +0100
REM compiler GCC version 9.2.1 20190827 (Red Hat 9.2.1-1)
REM options -cpp -mtune=generic -march=x86-64 -g -O0 -fpre-include=/usr/include/finclude/math-vector-fortran.h
REM seed -2075700623 1626268110 -1297387234 214425639 1041741729 -768727383 -1196706438 1516686621 -1599227149 -968902255 -264692144 -650309674 1019694098 371712538 -129765578 -211849829 -1936361190 1629863196 -2007327206 -230589295 -794789563 1262205219 2121811258 -1859620720 1414654324 -2086580225 983135024 1029023383 1004318245 -768225537 -1374729971 -1043831244 -1748634932
REM
CELL 1.54180   15.00000   15.00000   15.00000   90.00000   90.00000   90.00000
LATT -1
SFAC C  
C      1  0.3251650000000  0.6500010000000  0.5012620000000 1.0
C      1  0.5885100000000  0.6500010000000  0.6507800000000 1.0
C      1  0.5863250000000  0.6500010000000  0.3479580000000 1.0
C      1  0.3251650000000  0.3565490000000  0.5012620000000 1.0
C      1  0.5885100000000  0.3565490000000  0.6507800000000 1.0
C      1  0.5863250000000  0.3565490000000  0.3479580000000 1.0
C      1  0.6748350000000  0.6500010000000  0.5012620000000 1.0
C      1  0.4114900000000  0.6500010000000  0.6507800000000 1.0
C      1  0.4136750000000  0.6500010000000  0.3479580000000 1.0
C      1  0.6748350000000  0.3565490000000  0.5012620000000 1.0
C      1  0.4114900000000  0.3565490000000  0.6507800000000 1.0
C      1  0.4136750000000  0.3565490000000  0.3479580000000 1.0
C      1  0.2602250000000  0.4260110000000  0.4532220000000 1.0
C      1  0.5793770000000  0.4260110000000  0.7310400000000 1.0
C      1  0.6603980000000  0.4260110000000  0.3157370000000 1.0
C      1  0.2602250000000  0.5805400000000  0.4532220000000 1.0
C      1  0.5793770000000  0.5805400000000  0.7310400000000 1.0
C      1  0.6603980000000  0.5805400000000  0.3157370000000 1.0
C      1  0.7397750000000  0.4260110000000  0.4532220000000 1.0
C      1  0.4206230000000  0.4260110000000  0.7310400000000 1.0
C      1  0.3396020000000  0.4260110000000  0.3157370000000 1.0
C      1  0.7397750000000  0.5805400000000  0.4532220000000 1.0
C      1  0.4206230000000  0.5805400000000  0.7310400000000 1.0
C      1  0.3396020000000  0.5805400000000  0.3157370000000 1.0
C      1  0.4514580000000  0.3044510000000  0.5838090000000 1.0
C      1  0.5968520000000  0.3044510000000  0.5001340000000 1.0
C      1  0.4516900000000  0.3044510000000  0.4160560000000 1.0
C      1  0.4514580000000  0.7021000000000  0.5838090000000 1.0
C      1  0.5968520000000  0.7021000000000  0.5001340000000 1.0
C      1  0.4516900000000  0.7021000000000  0.4160560000000 1.0
C      1  0.5485420000000  0.3044510000000  0.5838090000000 1.0
C      1  0.4031480000000  0.3044510000000  0.5001340000000 1.0
C      1  0.5483100000000  0.3044510000000  0.4160560000000 1.0
C      1  0.5485420000000  0.7021000000000  0.5838090000000 1.0
C      1  0.4031480000000  0.7021000000000  0.5001340000000 1.0
C      1  0.5483100000000  0.7021000000000  0.4160560000000 1.0
C      1  0.2910890000000  0.5585780000000  0.5595030000000 1.0
C      1  0.6559870000000  0.5585780000000  0.6511710000000 1.0
C      1  0.5529240000000  0.5585780000000  0.2893260000000 1.0
C      1  0.2910890000000  0.4479730000000  0.5595030000000 1.0
C      1  0.6559870000000  0.4479730000000  0.6511710000000 1.0
C      1  0.5529240000000  0.4479730000000  0.2893260000000 1.0
C      1  0.7089110000000  0.5585780000000  0.5595030000000 1.0
C      1  0.3440130000000  0.5585780000000  0.6511710000000 1.0
C      1  0.4470760000000  0.5585780000000  0.2893260000000 1.0
C      1  0.7089110000000  0.4479730000000  0.5595030000000 1.0
C      1  0.3440130000000  0.4479730000000  0.6511710000000 1.0
C      1  0.4470760000000  0.4479730000000  0.2893260000000 1.0
C      1  0.5542900000000  0.4265420000000  0.4686550000000 1.0
C      1  0.4457100000000  0.5800090000000  0.4686560000000 1.0
C      1  0.5542900000000  0.5800090000000  0.4686560000000 1.0
C      1  0.4457100000000  0.4265420000000  0.4686550000000 1.0
C      1  0.5000000000000  0.4265420000000  0.5626890000000 1.0
C      1  0.5000000000000  0.5800090000000  0.5626890000000 1.0
C      1  0.6958490000000  0.5032750000000  0.3869270000000 1.0
C      1  0.3041510000000  0.5032750000000  0.3869270000000 1.0
C      1  0.5000000000000  0.5032750000000  0.7261470000000 1.0
C      1  0.6000050000000  0.5032750000000  0.4422620000000 1.0
C      1  0.3999950000000  0.5032750000000  0.4422620000000 1.0
C      1  0.5000000000000  0.5032750000000  0.6154760000000 1.0
END
