TITL C-986978-6805-157 -2.32814521537784e-06 3375 -333.018352016619 0 0 60 (C3) n - 1
REM
REM in /home/bkarasulu/work/CARBON/AIRSS/Generating-Clusters/REBO/Higher-Symm/Only-C60
REM
REM
REM
REM
REM
REM ./C.cell (a2850807a9bf4ad07a5b6933b78d9264)
REM AIRSS Version 0.9.1 bugfix July 2018 build 013d7b7c2542+ Fri, 06 Jul 2018 19:26:36 +0100
REM compiler GCC version 9.2.1 20190827 (Red Hat 9.2.1-1)
REM options -cpp -mtune=generic -march=x86-64 -g -O0 -fpre-include=/usr/include/finclude/math-vector-fortran.h
REM seed 1286271393 1207840302 1435708215 563509656 137645855 -70371324 465777822 691805825 1985295968 -1023730191 716516150 -1385564856 -1745515396 -947214678 731194103 -1142747581 -1319944135 -964444604 2067497831 -708886266 -2032870535 -1180575273 664427540 1337970656 1125374598 -1385718047 -1501536708 2045903401 758041938 -1807766743 159206124 918643686 2109776373
REM
CELL 1.54180   15.00000   15.00000   15.00000   90.00000   90.00000   90.00000
LATT -1
SFAC C  
C      1  0.5127500000000  0.6401090000000  0.4255480000000 1.0
C      1  0.6465880000000  0.4217990000000  0.4963610000000 1.0
C      1  0.4465850000000  0.5181330000000  0.6567060000000 1.0
C      1  0.5094620000000  0.6566870000000  0.5571680000000 1.0
C      1  0.4818760000000  0.3432890000000  0.4465950000000 1.0
C      1  0.4963510000000  0.3534150000000  0.5782060000000 1.0
C      1  0.3433160000000  0.4428280000000  0.5094600000000 1.0
C      1  0.3598890000000  0.5744490000000  0.5127400000000 1.0
C      1  0.6567090000000  0.5534100000000  0.4818770000000 1.0
C      1  0.5571780000000  0.4905310000000  0.3433180000000 1.0
C      1  0.5781960000000  0.5036520000000  0.6465910000000 1.0
C      1  0.4255570000000  0.4872470000000  0.3598870000000 1.0
C      1  0.4237370000000  0.6553090000000  0.4933400000000 1.0
C      1  0.5098400000000  0.4248090000000  0.6546600000000 1.0
C      1  0.6452530000000  0.4860980000000  0.4024120000000 1.0
C      1  0.5957200000000  0.6378920000000  0.4859080000000 1.0
C      1  0.4024060000000  0.3547510000000  0.5139010000000 1.0
C      1  0.5751970000000  0.3453430000000  0.5098530000000 1.0
C      1  0.4859150000000  0.4042750000000  0.3621110000000 1.0
C      1  0.4933530000000  0.5762580000000  0.3446880000000 1.0
C      1  0.5138950000000  0.5975990000000  0.6452470000000 1.0
C      1  0.3621050000000  0.5140940000000  0.5957140000000 1.0
C      1  0.6546540000000  0.4901580000000  0.5752020000000 1.0
C      1  0.3446940000000  0.5066490000000  0.4237310000000 1.0
C      1  0.3614530000000  0.7222950000000  0.4314110000000 1.0
C      1  0.7278480000000  0.4435300000000  0.3421080000000 1.0
C      1  0.4440710000000  0.3483260000000  0.7003540000000 1.0
C      1  0.6323900000000  0.7066300000000  0.5650070000000 1.0
C      1  0.6516840000000  0.2996480000000  0.4440910000000 1.0
C      1  0.3420960000000  0.2721600000000  0.5564680000000 1.0
C      1  0.2933680000000  0.4349960000000  0.6323870000000 1.0
C      1  0.2777050000000  0.5685690000000  0.3614420000000 1.0
C      1  0.7003450000000  0.5559270000000  0.6516870000000 1.0
C      1  0.5650170000000  0.3676010000000  0.2933790000000 1.0
C      1  0.5564580000000  0.6579110000000  0.7278390000000 1.0
C      1  0.4314300000000  0.6385390000000  0.2776930000000 1.0
C      1  0.4435440000000  0.7043800000000  0.3709740000000 1.0
C      1  0.3854120000000  0.4350000000000  0.7000800000000 1.0
C      1  0.7266460000000  0.3837950000000  0.4264190000000 1.0
C      1  0.5571010000000  0.7229570000000  0.6341590000000 1.0
C      1  0.4264030000000  0.2733610000000  0.6162080000000 1.0
C      1  0.5650120000000  0.2999150000000  0.3854280000000 1.0
C      1  0.6341730000000  0.4428880000000  0.2770550000000 1.0
C      1  0.3709910000000  0.5564500000000  0.2956080000000 1.0
C      1  0.6161950000000  0.5736010000000  0.7266450000000 1.0
C      1  0.2770460000000  0.3658380000000  0.5571020000000 1.0
C      1  0.7000790000000  0.6145840000000  0.5650110000000 1.0
C      1  0.2956140000000  0.6290130000000  0.4435290000000 1.0
C      1  0.4534410000000  0.7433310000000  0.2700850000000 1.0
C      1  0.7578280000000  0.2814850000000  0.4428940000000 1.0
C      1  0.4428680000000  0.2421830000000  0.7185210000000 1.0
C      1  0.2359660000000  0.2678000000000  0.5392470000000 1.0
C      1  0.2566600000000  0.7299020000000  0.4534200000000 1.0
C      1  0.7399180000000  0.7157940000000  0.5657410000000 1.0
C      1  0.7322120000000  0.4607430000000  0.2359770000000 1.0
C      1  0.2842000000000  0.4342700000000  0.7399150000000 1.0
C      1  0.5392430000000  0.7640420000000  0.7321950000000 1.0
C      1  0.5657490000000  0.2600730000000  0.2842190000000 1.0
C      1  0.7185050000000  0.5571320000000  0.7578310000000 1.0
C      1  0.2701040000000  0.5465500000000  0.2566510000000 1.0
END
