TITL C-986975-4297-119 -3.15317786762549e-06 3375 -345.298538074306 0 0 60 (C1) n - 1
REM
REM in /home/bkarasulu/work/CARBON/AIRSS/Generating-Clusters/REBO/Higher-Symm/Only-C60
REM
REM
REM
REM
REM
REM ./C.cell (a2850807a9bf4ad07a5b6933b78d9264)
REM AIRSS Version 0.9.1 bugfix July 2018 build 013d7b7c2542+ Fri, 06 Jul 2018 19:26:36 +0100
REM compiler GCC version 9.2.1 20190827 (Red Hat 9.2.1-1)
REM options -cpp -mtune=generic -march=x86-64 -g -O0 -fpre-include=/usr/include/finclude/math-vector-fortran.h
REM seed 2132974595 194052010 1635912955 454277640 2077957623 1275793848 -1279772108 -555358946 -795403679 822864292 1285071021 -1543982919 -1494211740 1616033792 528906248 611003271 -1823363720 773279893 -60976322 -1289128180 -1035548021 -77613361 -383273304 -718814494 790932636 169772312 -1157267183 1109243850 785174438 641659936 70415121 -112519475 -1239928537
REM
CELL 1.54180   15.00000   15.00000   15.00000   90.00000   90.00000   90.00000
LATT -1
SFAC C  
C      1  0.6229400000000  0.5868150000000  0.3768380000000 1.0
C      1  0.2515240000000  0.3613090000000  0.4335650000000 1.0
C      1  0.5619510000000  0.2983120000000  0.3558920000000 1.0
C      1  0.4467260000000  0.6489210000000  0.6735280000000 1.0
C      1  0.5500310000000  0.4337250000000  0.6732520000000 1.0
C      1  0.3961910000000  0.5771760000000  0.6259070000000 1.0
C      1  0.3001360000000  0.5164690000000  0.3984480000000 1.0
C      1  0.6999180000000  0.6420690000000  0.6003730000000 1.0
C      1  0.3995840000000  0.2762980000000  0.3622490000000 1.0
C      1  0.2979790000000  0.5748870000000  0.5862730000000 1.0
C      1  0.4100270000000  0.5618430000000  0.5156540000000 1.0
C      1  0.3110860000000  0.6507100000000  0.5220140000000 1.0
C      1  0.5978450000000  0.3226020000000  0.4605590000000 1.0
C      1  0.5762400000000  0.6783840000000  0.5664260000000 1.0
C      1  0.3710170000000  0.7200410000000  0.5449740000000 1.0
C      1  0.4953440000000  0.6927080000000  0.4218190000000 1.0
C      1  0.6500410000000  0.7175570000000  0.5025050000000 1.0
C      1  0.2800820000000  0.4732930000000  0.5687070000000 1.0
C      1  0.2797020000000  0.3629430000000  0.5393290000000 1.0
C      1  0.4828640000000  0.2668730000000  0.4076250000000 1.0
C      1  0.6090880000000  0.6359470000000  0.6666430000000 1.0
C      1  0.4862650000000  0.3096000000000  0.5911610000000 1.0
C      1  0.5421260000000  0.3520330000000  0.2819350000000 1.0
C      1  0.7593100000000  0.5053030000000  0.5392340000000 1.0
C      1  0.5959240000000  0.6865180000000  0.4090000000000 1.0
C      1  0.6983110000000  0.6380800000000  0.4379580000000 1.0
C      1  0.5736370000000  0.5127560000000  0.3168870000000 1.0
C      1  0.3677640000000  0.3938950000000  0.4868140000000 1.0
C      1  0.4534190000000  0.7610550000000  0.3583650000000 1.0
C      1  0.6371880000000  0.4238650000000  0.4591010000000 1.0
C      1  0.6705720000000  0.5460300000000  0.6870430000000 1.0
C      1  0.5099810000000  0.4596470000000  0.4463610000000 1.0
C      1  0.3394330000000  0.6009960000000  0.4347380000000 1.0
C      1  0.7223860000000  0.4181160000000  0.5309770000000 1.0
C      1  0.3678130000000  0.4639600000000  0.3520190000000 1.0
C      1  0.4826400000000  0.7200190000000  0.5220940000000 1.0
C      1  0.7304200000000  0.4462130000000  0.3246280000000 1.0
C      1  0.5116750000000  0.4361740000000  0.2755280000000 1.0
C      1  0.5609130000000  0.5354360000000  0.4466960000000 1.0
C      1  0.4297120000000  0.4616830000000  0.4954790000000 1.0
C      1  0.4395180000000  0.7278370000000  0.6248620000000 1.0
C      1  0.6052120000000  0.4743890000000  0.5557020000000 1.0
C      1  0.6419020000000  0.3453490000000  0.5639470000000 1.0
C      1  0.6703750000000  0.4783430000000  0.6371870000000 1.0
C      1  0.5014380000000  0.2843570000000  0.5029260000000 1.0
C      1  0.4210620000000  0.4849480000000  0.6683800000000 1.0
C      1  0.3523100000000  0.3607140000000  0.3820690000000 1.0
C      1  0.4474540000000  0.6001630000000  0.4137340000000 1.0
C      1  0.5671730000000  0.3517680000000  0.6281030000000 1.0
C      1  0.5621180000000  0.5787920000000  0.5416110000000 1.0
C      1  0.5062520000000  0.5071780000000  0.5995330000000 1.0
C      1  0.3985780000000  0.3375160000000  0.6159900000000 1.0
C      1  0.3682810000000  0.2170000000000  0.2992870000000 1.0
C      1  0.6538440000000  0.4586330000000  0.3666560000000 1.0
C      1  0.5228360000000  0.6111150000000  0.7152720000000 1.0
C      1  0.5098250000000  0.5163130000000  0.7315810000000 1.0
C      1  0.4616120000000  0.5178670000000  0.3371000000000 1.0
C      1  0.3583640000000  0.4180610000000  0.6297930000000 1.0
C      1  0.2505230000000  0.4635510000000  0.4595770000000 1.0
C      1  0.7315170000000  0.5958440000000  0.5280940000000 1.0
END
