TITL C-986974-580-129 2.74137429937334e-06 3375 -348.930274698006 0 0 60 (C1) n - 1
REM
REM in /home/bkarasulu/work/CARBON/AIRSS/Generating-Clusters/REBO/Higher-Symm/Only-C60
REM
REM
REM
REM
REM
REM ./C.cell (a2850807a9bf4ad07a5b6933b78d9264)
REM AIRSS Version 0.9.1 bugfix July 2018 build 013d7b7c2542+ Fri, 06 Jul 2018 19:26:36 +0100
REM compiler GCC version 9.2.1 20190827 (Red Hat 9.2.1-1)
REM options -cpp -mtune=generic -march=x86-64 -g -O0 -fpre-include=/usr/include/finclude/math-vector-fortran.h
REM seed -27454860 -358607840 -273225616 -1538593485 2101457503 976976924 990185187 -1290172527 -596381208 816010385 -1573458817 1203850991 -644520445 -180229709 -1915675850 -1247735930 -1769405539 148731153 -317000680 -1265418702 -2075834836 -1408336686 1620183492 2007668907 -876608818 124062545 1759466740 2033447099 -254024126 1226358669 561880700 -485902498 1727260838
REM
CELL 1.54180   15.00000   15.00000   15.00000   90.00000   90.00000   90.00000
LATT -1
SFAC C  
C      1  0.4269750000000  0.4514250000000  0.5897140000000 1.0
C      1  0.6200150000000  0.2872610000000  0.4946920000000 1.0
C      1  0.4534630000000  0.4672980000000  0.3999910000000 1.0
C      1  0.3147230000000  0.5926760000000  0.3880270000000 1.0
C      1  0.3301950000000  0.6227190000000  0.4972500000000 1.0
C      1  0.3905930000000  0.5188380000000  0.7179990000000 1.0
C      1  0.2982650000000  0.3460310000000  0.4822570000000 1.0
C      1  0.3813040000000  0.3275890000000  0.4179360000000 1.0
C      1  0.3487480000000  0.5639580000000  0.2829370000000 1.0
C      1  0.4170010000000  0.6307760000000  0.3124590000000 1.0
C      1  0.4471350000000  0.4915090000000  0.4864870000000 1.0
C      1  0.5985570000000  0.3060740000000  0.4036440000000 1.0
C      1  0.6786960000000  0.3431620000000  0.5436320000000 1.0
C      1  0.3144640000000  0.3846970000000  0.5647120000000 1.0
C      1  0.5864470000000  0.6439010000000  0.3110940000000 1.0
C      1  0.5912660000000  0.3358910000000  0.3066230000000 1.0
C      1  0.4566690000000  0.5936380000000  0.7572070000000 1.0
C      1  0.6682010000000  0.6337550000000  0.3637970000000 1.0
C      1  0.5243350000000  0.3797910000000  0.4908070000000 1.0
C      1  0.2959680000000  0.4771180000000  0.5773580000000 1.0
C      1  0.3997900000000  0.6618330000000  0.4190080000000 1.0
C      1  0.5673180000000  0.5818530000000  0.2386010000000 1.0
C      1  0.6934020000000  0.5389330000000  0.3881770000000 1.0
C      1  0.5483190000000  0.8074060000000  0.5393770000000 1.0
C      1  0.4433450000000  0.6918580000000  0.6185560000000 1.0
C      1  0.4936460000000  0.3917660000000  0.2892930000000 1.0
C      1  0.6206070000000  0.5867480000000  0.6469120000000 1.0
C      1  0.6915530000000  0.5105350000000  0.6050300000000 1.0
C      1  0.5047140000000  0.5708760000000  0.5109900000000 1.0
C      1  0.3173410000000  0.4763610000000  0.3230890000000 1.0
C      1  0.2601970000000  0.4942990000000  0.4045970000000 1.0
C      1  0.7610300000000  0.4982040000000  0.4428190000000 1.0
C      1  0.6108300000000  0.4957650000000  0.4067850000000 1.0
C      1  0.2784890000000  0.5263950000000  0.4972840000000 1.0
C      1  0.4989700000000  0.4943590000000  0.7410480000000 1.0
C      1  0.3343220000000  0.5344590000000  0.6452970000000 1.0
C      1  0.5319620000000  0.4966090000000  0.3606700000000 1.0
C      1  0.7164130000000  0.4443330000000  0.5213500000000 1.0
C      1  0.3658290000000  0.6255510000000  0.5917920000000 1.0
C      1  0.5355280000000  0.3978600000000  0.7532680000000 1.0
C      1  0.4436290000000  0.3024440000000  0.5092840000000 1.0
C      1  0.5753510000000  0.4895330000000  0.6650790000000 1.0
C      1  0.5369280000000  0.4526410000000  0.5760600000000 1.0
C      1  0.5674200000000  0.3571550000000  0.6786420000000 1.0
C      1  0.4551910000000  0.5608810000000  0.5986390000000 1.0
C      1  0.4069210000000  0.3493790000000  0.6040870000000 1.0
C      1  0.5425700000000  0.2591780000000  0.5437550000000 1.0
C      1  0.5049370000000  0.6646910000000  0.3754940000000 1.0
C      1  0.5303470000000  0.7175850000000  0.5537700000000 1.0
C      1  0.6105040000000  0.4452190000000  0.4923830000000 1.0
C      1  0.5691470000000  0.6648130000000  0.6460540000000 1.0
C      1  0.4908410000000  0.3399030000000  0.3913110000000 1.0
C      1  0.3909400000000  0.4065960000000  0.3371650000000 1.0
C      1  0.4863290000000  0.6675810000000  0.7086570000000 1.0
C      1  0.6495000000000  0.4074190000000  0.6300270000000 1.0
C      1  0.5077680000000  0.3073970000000  0.6253290000000 1.0
C      1  0.6474980000000  0.6386980000000  0.4637040000000 1.0
C      1  0.6882330000000  0.5955830000000  0.5322600000000 1.0
C      1  0.5326860000000  0.4951890000000  0.2611890000000 1.0
C      1  0.5466370000000  0.6540050000000  0.4745430000000 1.0
END
