TITL C-986976-6631-561 0.0168830609745932 3375 -347.417444831831 0 0 60 (C1) n - 1
REM
REM in /home/bkarasulu/work/CARBON/AIRSS/Generating-Clusters/REBO/Higher-Symm/Only-C60
REM
REM
REM
REM
REM
REM ./C.cell (a2850807a9bf4ad07a5b6933b78d9264)
REM AIRSS Version 0.9.1 bugfix July 2018 build 013d7b7c2542+ Fri, 06 Jul 2018 19:26:36 +0100
REM compiler GCC version 9.2.1 20190827 (Red Hat 9.2.1-1)
REM options -cpp -mtune=generic -march=x86-64 -g -O0 -fpre-include=/usr/include/finclude/math-vector-fortran.h
REM seed -923972706 728880837 -1598560972 711862047 -1749385421 -1290699968 1642762436 -162840135 -588620803 86690429 -1099692024 574221238 -938406633 -1721405460 2044464002 -831211323 869746574 1329299668 1992423057 -1915696711 -742096893 1614900554 -788551132 -912334254 898618963 -1929027883 44209589 1625860141 70581642 -758819510 835165832 1737407170 666435206
REM
CELL 1.54180   15.00000   15.00000   15.00000   90.00000   90.00000   90.00000
LATT -1
SFAC C  
C      1  0.6248870000000  0.2364340000000  0.4306250000000 1.0
C      1  0.3788590000000  0.2428350000000  0.4405180000000 1.0
C      1  0.3224460000000  0.3264630000000  0.4094290000000 1.0
C      1  0.6780730000000  0.3239820000000  0.4031900000000 1.0
C      1  0.6413270000000  0.6640760000000  0.6361780000000 1.0
C      1  0.3614100000000  0.6554040000000  0.6351020000000 1.0
C      1  0.7017450000000  0.4853310000000  0.6224840000000 1.0
C      1  0.2848890000000  0.4941730000000  0.6208930000000 1.0
C      1  0.5452110000000  0.1939320000000  0.4159640000000 1.0
C      1  0.4554810000000  0.1978410000000  0.4210320000000 1.0
C      1  0.6391970000000  0.4960170000000  0.3410520000000 1.0
C      1  0.3639160000000  0.4906980000000  0.3502600000000 1.0
C      1  0.5785470000000  0.6912870000000  0.7009160000000 1.0
C      1  0.4195680000000  0.6868200000000  0.7016250000000 1.0
C      1  0.2941060000000  0.5471390000000  0.4936290000000 1.0
C      1  0.7131350000000  0.5514980000000  0.4903850000000 1.0
C      1  0.4186510000000  0.4900060000000  0.6770200000000 1.0
C      1  0.5778590000000  0.4978610000000  0.6693430000000 1.0
C      1  0.3065370000000  0.3952690000000  0.5768050000000 1.0
C      1  0.6748680000000  0.3949640000000  0.5654780000000 1.0
C      1  0.6045730000000  0.4586750000000  0.4302760000000 1.0
C      1  0.3958640000000  0.4462400000000  0.4381560000000 1.0
C      1  0.3261550000000  0.4622210000000  0.4984360000000 1.0
C      1  0.6724100000000  0.4705120000000  0.4933720000000 1.0
C      1  0.5694090000000  0.4244150000000  0.5982780000000 1.0
C      1  0.3899170000000  0.4029840000000  0.6538920000000 1.0
C      1  0.3336080000000  0.3859130000000  0.3374350000000 1.0
C      1  0.6668860000000  0.3884050000000  0.3360810000000 1.0
C      1  0.3362230000000  0.3068250000000  0.5207140000000 1.0
C      1  0.6549620000000  0.3041120000000  0.5128110000000 1.0
C      1  0.6105730000000  0.5906230000000  0.3309250000000 1.0
C      1  0.4080880000000  0.5734460000000  0.3383590000000 1.0
C      1  0.5550660000000  0.7318120000000  0.3844570000000 1.0
C      1  0.4426400000000  0.7360840000000  0.3676750000000 1.0
C      1  0.5835580000000  0.5665580000000  0.5167090000000 1.0
C      1  0.4235650000000  0.5490470000000  0.5242180000000 1.0
C      1  0.3493760000000  0.6337780000000  0.4760080000000 1.0
C      1  0.6655360000000  0.6452020000000  0.4748570000000 1.0
C      1  0.4238370000000  0.3878580000000  0.2912880000000 1.0
C      1  0.5772080000000  0.3894860000000  0.2910310000000 1.0
C      1  0.6707620000000  0.7068640000000  0.5590260000000 1.0
C      1  0.3415940000000  0.6977600000000  0.5550630000000 1.0
C      1  0.3701230000000  0.5576080000000  0.6143400000000 1.0
C      1  0.6334240000000  0.5679570000000  0.6115880000000 1.0
C      1  0.5685670000000  0.3187210000000  0.5787060000000 1.0
C      1  0.4062300000000  0.3137070000000  0.6052600000000 1.0
C      1  0.4492490000000  0.7787760000000  0.7128710000000 1.0
C      1  0.5435540000000  0.7815480000000  0.7123160000000 1.0
C      1  0.3815310000000  0.6525370000000  0.3831860000000 1.0
C      1  0.6292940000000  0.6684070000000  0.3821880000000 1.0
C      1  0.5011370000000  0.3551280000000  0.3528020000000 1.0
C      1  0.4875040000000  0.6901030000000  0.4542720000000 1.0
C      1  0.4993700000000  0.5330180000000  0.7064370000000 1.0
C      1  0.4999300000000  0.6291740000000  0.7165000000000 1.0
C      1  0.4916940000000  0.2772300000000  0.5978270000000 1.0
C      1  0.5116680000000  0.5547440000000  0.3450510000000 1.0
C      1  0.5127180000000  0.4783430000000  0.5247190000000 1.0
C      1  0.5005820000000  0.4157780000000  0.4373130000000 1.0
C      1  0.4970190000000  0.5888440000000  0.4527160000000 1.0
C      1  0.5013850000000  0.4672890000000  0.2836140000000 1.0
END
