TITL C-986975-4297-379 7.56330039709647e-05 3375 -337.452922502853 0 0 60 (C1) n - 1
REM
REM in /home/bkarasulu/work/CARBON/AIRSS/Generating-Clusters/REBO/Higher-Symm/Only-C60
REM
REM
REM
REM
REM
REM ./C.cell (a2850807a9bf4ad07a5b6933b78d9264)
REM AIRSS Version 0.9.1 bugfix July 2018 build 013d7b7c2542+ Fri, 06 Jul 2018 19:26:36 +0100
REM compiler GCC version 9.2.1 20190827 (Red Hat 9.2.1-1)
REM options -cpp -mtune=generic -march=x86-64 -g -O0 -fpre-include=/usr/include/finclude/math-vector-fortran.h
REM seed -1266796450 -1511090747 -1894188648 -529763603 -1457655149 1589365035 1412279125 -1249190611 -1004120518 1558202044 -487005948 -1327184810 -132216144 674853308 788205245 1846173990 -87311773 1376313748 -833168047 1580307006 1735207637 -1811835671 -1437250352 261881387 1975586470 -934526665 271450509 -2105656670 1634251584 1731115787 -1026064232 -1350179264 1129479023
REM
CELL 1.54180   15.00000   15.00000   15.00000   90.00000   90.00000   90.00000
LATT -1
SFAC C  
C      1  0.5919150000000  0.2807470000000  0.5289050000000 1.0
C      1  0.5902800000000  0.7208220000000  0.5293390000000 1.0
C      1  0.3393660000000  0.4579680000000  0.5519240000000 1.0
C      1  0.3366360000000  0.5469520000000  0.5538440000000 1.0
C      1  0.4649330000000  0.4345230000000  0.1890340000000 1.0
C      1  0.4557880000000  0.5258780000000  0.1909240000000 1.0
C      1  0.7279430000000  0.5462920000000  0.4471050000000 1.0
C      1  0.7333350000000  0.4540330000000  0.4501890000000 1.0
C      1  0.7029970000000  0.4416530000000  0.5790860000000 1.0
C      1  0.6859250000000  0.5463720000000  0.5897480000000 1.0
C      1  0.2921700000000  0.6163990000000  0.4464380000000 1.0
C      1  0.3089240000000  0.4029820000000  0.4343470000000 1.0
C      1  0.7315660000000  0.4134790000000  0.3626810000000 1.0
C      1  0.7177100000000  0.5787920000000  0.3577070000000 1.0
C      1  0.5497980000000  0.4089750000000  0.5083640000000 1.0
C      1  0.5438930000000  0.5979910000000  0.5099300000000 1.0
C      1  0.5078280000000  0.5974310000000  0.7005200000000 1.0
C      1  0.5209860000000  0.3961350000000  0.6932020000000 1.0
C      1  0.4966900000000  0.6901630000000  0.5518780000000 1.0
C      1  0.5013560000000  0.3187230000000  0.5446250000000 1.0
C      1  0.6320810000000  0.5490380000000  0.6792100000000 1.0
C      1  0.6485650000000  0.4430740000000  0.6631840000000 1.0
C      1  0.5687970000000  0.4315010000000  0.3331840000000 1.0
C      1  0.5539870000000  0.5445050000000  0.3395920000000 1.0
C      1  0.2624010000000  0.3591240000000  0.5098380000000 1.0
C      1  0.2547040000000  0.6485340000000  0.5315590000000 1.0
C      1  0.6367360000000  0.3049350000000  0.4308180000000 1.0
C      1  0.6214040000000  0.6793700000000  0.4304070000000 1.0
C      1  0.2728980000000  0.6023700000000  0.6241610000000 1.0
C      1  0.2674320000000  0.3926060000000  0.6102790000000 1.0
C      1  0.4438270000000  0.3405470000000  0.6315510000000 1.0
C      1  0.4402960000000  0.6641350000000  0.6382470000000 1.0
C      1  0.3958040000000  0.3533790000000  0.4029640000000 1.0
C      1  0.3714070000000  0.6749320000000  0.4109910000000 1.0
C      1  0.6558030000000  0.3937810000000  0.4995170000000 1.0
C      1  0.6538350000000  0.5992340000000  0.5052420000000 1.0
C      1  0.3506040000000  0.3905930000000  0.6662370000000 1.0
C      1  0.3445320000000  0.6234750000000  0.6855040000000 1.0
C      1  0.3901070000000  0.5675970000000  0.4161550000000 1.0
C      1  0.4017150000000  0.4648070000000  0.4120520000000 1.0
C      1  0.5129500000000  0.4488050000000  0.4226720000000 1.0
C      1  0.4962970000000  0.5562280000000  0.4313660000000 1.0
C      1  0.4898510000000  0.7919690000000  0.4316480000000 1.0
C      1  0.4895640000000  0.2129710000000  0.4238290000000 1.0
C      1  0.5063800000000  0.4521590000000  0.5964310000000 1.0
C      1  0.5199960000000  0.5546740000000  0.6011570000000 1.0
C      1  0.5750910000000  0.5518030000000  0.7664040000000 1.0
C      1  0.5867730000000  0.4461370000000  0.7501440000000 1.0
C      1  0.6503810000000  0.3717860000000  0.3516290000000 1.0
C      1  0.6325350000000  0.6132070000000  0.3500700000000 1.0
C      1  0.5714070000000  0.2229210000000  0.4105570000000 1.0
C      1  0.5662130000000  0.7685770000000  0.4074320000000 1.0
C      1  0.4239930000000  0.7290610000000  0.4813190000000 1.0
C      1  0.4329830000000  0.2848710000000  0.4700770000000 1.0
C      1  0.4959150000000  0.5732880000000  0.2571370000000 1.0
C      1  0.5146980000000  0.3936320000000  0.2530530000000 1.0
C      1  0.3728350000000  0.3495300000000  0.5417350000000 1.0
C      1  0.3687790000000  0.6563220000000  0.5495880000000 1.0
C      1  0.4118110000000  0.5512260000000  0.7017280000000 1.0
C      1  0.4145770000000  0.4669860000000  0.6615450000000 1.0
END
