TITL C-986978-6805-1170 -0.00244020490613411 3375 -344.754419079373 0 0 60 (C1) n - 1
REM
REM in /home/bkarasulu/work/CARBON/AIRSS/Generating-Clusters/REBO/Higher-Symm/Only-C60
REM
REM
REM
REM
REM
REM ./C.cell (a2850807a9bf4ad07a5b6933b78d9264)
REM AIRSS Version 0.9.1 bugfix July 2018 build 013d7b7c2542+ Fri, 06 Jul 2018 19:26:36 +0100
REM compiler GCC version 9.2.1 20190827 (Red Hat 9.2.1-1)
REM options -cpp -mtune=generic -march=x86-64 -g -O0 -fpre-include=/usr/include/finclude/math-vector-fortran.h
REM seed 212679403 -331698978 1027391262 -909915575 20690828 -154317517 2141367037 -1035764464 -1317023630 1209687720 1396946964 -1422521981 -252061034 -708758288 1713374748 1080621537 -1871369331 -1935344539 460875794 1533506290 1261195250 -1263737693 124465860 7992610 -1427082993 -409615620 1032601277 -681368250 719288529 -790674247 -822627029 -42753242 331656350
REM
CELL 1.54180   15.00000   15.00000   15.00000   90.00000   90.00000   90.00000
LATT -1
SFAC C  
C      1  0.3990700000000  0.6198680000000  0.7123910000000 1.0
C      1  0.3987730000000  0.6201310000000  0.2916270000000 1.0
C      1  0.4993260000000  0.4944850000000  0.4222780000000 1.0
C      1  0.4993410000000  0.4944560000000  0.5813180000000 1.0
C      1  0.5024600000000  0.6189600000000  0.3116970000000 1.0
C      1  0.5027410000000  0.6191000000000  0.6919520000000 1.0
C      1  0.4792730000000  0.5152510000000  0.2692730000000 1.0
C      1  0.4790160000000  0.5155230000000  0.7344470000000 1.0
C      1  0.3967580000000  0.4117950000000  0.4059530000000 1.0
C      1  0.3965280000000  0.4117280000000  0.5966060000000 1.0
C      1  0.3914100000000  0.5137360000000  0.4101650000000 1.0
C      1  0.3910150000000  0.5130590000000  0.5940140000000 1.0
C      1  0.7931000000000  0.6540500000000  0.5562390000000 1.0
C      1  0.7931610000000  0.6540660000000  0.4476810000000 1.0
C      1  0.7283200000000  0.5815150000000  0.5932560000000 1.0
C      1  0.7284600000000  0.5815060000000  0.4106780000000 1.0
C      1  0.6390470000000  0.6225210000000  0.3817050000000 1.0
C      1  0.6388600000000  0.6225510000000  0.6221950000000 1.0
C      1  0.4714190000000  0.3745810000000  0.3610280000000 1.0
C      1  0.4704250000000  0.3747220000000  0.6423490000000 1.0
C      1  0.5410180000000  0.6757590000000  0.6007810000000 1.0
C      1  0.5410330000000  0.6754470000000  0.4028690000000 1.0
C      1  0.7106040000000  0.4712240000000  0.4005410000000 1.0
C      1  0.7102950000000  0.4712460000000  0.6033770000000 1.0
C      1  0.5965260000000  0.2897630000000  0.5801230000000 1.0
C      1  0.5966790000000  0.2897000000000  0.4235890000000 1.0
C      1  0.6503020000000  0.3788930000000  0.4091810000000 1.0
C      1  0.6501160000000  0.3788860000000  0.5945800000000 1.0
C      1  0.5179340000000  0.4372480000000  0.6999460000000 1.0
C      1  0.5185520000000  0.4371830000000  0.3037980000000 1.0
C      1  0.6195940000000  0.4530140000000  0.3350530000000 1.0
C      1  0.6192310000000  0.4528110000000  0.6687730000000 1.0
C      1  0.5034950000000  0.3003000000000  0.4132230000000 1.0
C      1  0.5033050000000  0.3005070000000  0.5898910000000 1.0
C      1  0.3499970000000  0.5685870000000  0.3365020000000 1.0
C      1  0.3502490000000  0.5679640000000  0.6679920000000 1.0
C      1  0.5674240000000  0.5455520000000  0.6403450000000 1.0
C      1  0.5675610000000  0.5457830000000  0.3633220000000 1.0
C      1  0.4957710000000  0.6005330000000  0.5019330000000 1.0
C      1  0.4050560000000  0.5612570000000  0.5021860000000 1.0
C      1  0.2236450000000  0.5027040000000  0.5055550000000 1.0
C      1  0.5882830000000  0.5997760000000  0.5018830000000 1.0
C      1  0.3856260000000  0.7192160000000  0.5019780000000 1.0
C      1  0.7235810000000  0.7155970000000  0.5019330000000 1.0
C      1  0.3500600000000  0.8040220000000  0.5020270000000 1.0
C      1  0.4421750000000  0.2830660000000  0.5004560000000 1.0
C      1  0.6251140000000  0.2418100000000  0.5019090000000 1.0
C      1  0.6791850000000  0.1695280000000  0.5020430000000 1.0
C      1  0.6360980000000  0.6793940000000  0.5019640000000 1.0
C      1  0.7256840000000  0.5148750000000  0.5019690000000 1.0
C      1  0.4927730000000  0.7063180000000  0.5017650000000 1.0
C      1  0.3330390000000  0.2511220000000  0.5027880000000 1.0
C      1  0.2638110000000  0.3118820000000  0.5067330000000 1.0
C      1  0.5300210000000  0.4552570000000  0.5017810000000 1.0
C      1  0.2872730000000  0.4173170000000  0.4708650000000 1.0
C      1  0.1875540000000  0.3955570000000  0.5138050000000 1.0
C      1  0.3372760000000  0.6374360000000  0.5022600000000 1.0
C      1  0.6027800000000  0.3973190000000  0.5018250000000 1.0
C      1  0.3814110000000  0.3743860000000  0.5054480000000 1.0
C      1  0.2514530000000  0.5928890000000  0.5027280000000 1.0
END
