TITL C-986979-5873-976 -1.1878221850494e-05 3375 -344.548582552377 0 0 60 (C1) n - 1
REM
REM in /home/bkarasulu/work/CARBON/AIRSS/Generating-Clusters/REBO/Higher-Symm/Only-C60
REM
REM
REM
REM
REM
REM ./C.cell (a2850807a9bf4ad07a5b6933b78d9264)
REM AIRSS Version 0.9.1 bugfix July 2018 build 013d7b7c2542+ Fri, 06 Jul 2018 19:26:36 +0100
REM compiler GCC version 9.2.1 20190827 (Red Hat 9.2.1-1)
REM options -cpp -mtune=generic -march=x86-64 -g -O0 -fpre-include=/usr/include/finclude/math-vector-fortran.h
REM seed 709169834 1086586409 634184366 1171498126 -821599822 1711493162 -1501521612 1334914813 687171804 743358645 1513228067 -115723570 -1959461776 2145829664 -1911986742 -248514789 863825987 1147234844 1926954483 -1990796840 -1054291221 -458178066 -1106723357 -543048689 -1560784533 930893820 -1691865580 -668541504 -347223221 436865717 844350304 2091349950 701791084
REM
CELL 1.54180   15.00000   15.00000   15.00000   90.00000   90.00000   90.00000
LATT -1
SFAC C  
C      1  0.5487080000000  0.2930560000000  0.4222760000000 1.0
C      1  0.2997650000000  0.5604510000000  0.4312500000000 1.0
C      1  0.6390050000000  0.6483640000000  0.4321520000000 1.0
C      1  0.4838650000000  0.2923940000000  0.6179610000000 1.0
C      1  0.3362110000000  0.6087300000000  0.6190030000000 1.0
C      1  0.6780100000000  0.5775320000000  0.6377980000000 1.0
C      1  0.5532910000000  0.6685120000000  0.3655800000000 1.0
C      1  0.6109970000000  0.3697140000000  0.3783260000000 1.0
C      1  0.3320600000000  0.4697620000000  0.3831360000000 1.0
C      1  0.4084220000000  0.6649620000000  0.6867100000000 1.0
C      1  0.6777410000000  0.4849860000000  0.7053590000000 1.0
C      1  0.4271280000000  0.3421940000000  0.6899740000000 1.0
C      1  0.4104830000000  0.5516250000000  0.6731570000000 1.0
C      1  0.5882740000000  0.5562630000000  0.7016400000000 1.0
C      1  0.5131060000000  0.4131540000000  0.6627430000000 1.0
C      1  0.6738990000000  0.3800210000000  0.4704440000000 1.0
C      1  0.3099850000000  0.4036330000000  0.4726050000000 1.0
C      1  0.5316510000000  0.7181520000000  0.4663710000000 1.0
C      1  0.4629550000000  0.3169030000000  0.4490900000000 1.0
C      1  0.3632950000000  0.6265570000000  0.4469740000000 1.0
C      1  0.6647870000000  0.5614330000000  0.4575660000000 1.0
C      1  0.4465160000000  0.6282270000000  0.3793420000000 1.0
C      1  0.6280730000000  0.4824070000000  0.3931470000000 1.0
C      1  0.4213830000000  0.4002880000000  0.3997000000000 1.0
C      1  0.6218280000000  0.4536500000000  0.2149530000000 1.0
C      1  0.3961030000000  0.4099990000000  0.2206820000000 1.0
C      1  0.4765760000000  0.6173070000000  0.2038230000000 1.0
C      1  0.6907950000000  0.5314340000000  0.5445910000000 1.0
C      1  0.4288680000000  0.3032170000000  0.5365390000000 1.0
C      1  0.3782470000000  0.6618030000000  0.5327250000000 1.0
C      1  0.3448890000000  0.3474260000000  0.5529420000000 1.0
C      1  0.4605700000000  0.7121190000000  0.5471330000000 1.0
C      1  0.6922100000000  0.4356370000000  0.5553540000000 1.0
C      1  0.5783690000000  0.4401890000000  0.4863200000000 1.0
C      1  0.4051230000000  0.4629000000000  0.4940070000000 1.0
C      1  0.5025070000000  0.6102760000000  0.4727790000000 1.0
C      1  0.6197140000000  0.6743520000000  0.6368000000000 1.0
C      1  0.5832510000000  0.3034040000000  0.6247570000000 1.0
C      1  0.2937180000000  0.5038720000000  0.6309150000000 1.0
C      1  0.4200270000000  0.4622760000000  0.6382010000000 1.0
C      1  0.5053320000000  0.5871350000000  0.6429470000000 1.0
C      1  0.5851910000000  0.4843690000000  0.6175000000000 1.0
C      1  0.2456620000000  0.4899570000000  0.4819730000000 1.0
C      1  0.6380360000000  0.7315060000000  0.4913990000000 1.0
C      1  0.6343970000000  0.2807160000000  0.4745740000000 1.0
C      1  0.5582450000000  0.5345590000000  0.5326670000000 1.0
C      1  0.4875650000000  0.4237810000000  0.5520040000000 1.0
C      1  0.4520100000000  0.5518460000000  0.5466190000000 1.0
C      1  0.6436210000000  0.3930050000000  0.6466100000000 1.0
C      1  0.3376550000000  0.3997570000000  0.6469380000000 1.0
C      1  0.5080140000000  0.6932600000000  0.6402640000000 1.0
C      1  0.2212190000000  0.5012500000000  0.5720930000000 1.0
C      1  0.6607130000000  0.7358330000000  0.5814540000000 1.0
C      1  0.6287220000000  0.2472390000000  0.5623300000000 1.0
C      1  0.5640360000000  0.4145030000000  0.2982250000000 1.0
C      1  0.3908810000000  0.4845480000000  0.2996320000000 1.0
C      1  0.5404340000000  0.5985520000000  0.2898930000000 1.0
C      1  0.4286870000000  0.5737370000000  0.2903070000000 1.0
C      1  0.5994160000000  0.5213320000000  0.2963590000000 1.0
C      1  0.4677600000000  0.4039360000000  0.3013880000000 1.0
END
