TITL C-986975-4297-1083 0.0279729681725117 3375 -343.465876950647 0 0 60 (C1) n - 1
REM
REM in /home/bkarasulu/work/CARBON/AIRSS/Generating-Clusters/REBO/Higher-Symm/Only-C60
REM
REM
REM
REM
REM
REM ./C.cell (a2850807a9bf4ad07a5b6933b78d9264)
REM AIRSS Version 0.9.1 bugfix July 2018 build 013d7b7c2542+ Fri, 06 Jul 2018 19:26:36 +0100
REM compiler GCC version 9.2.1 20190827 (Red Hat 9.2.1-1)
REM options -cpp -mtune=generic -march=x86-64 -g -O0 -fpre-include=/usr/include/finclude/math-vector-fortran.h
REM seed 782235365 -1726650966 103761181 1263848307 -504808474 -1781873377 -721846729 -820629236 1731515859 2139219634 -1672364188 1741695819 1524399996 1486112181 493497952 -847438144 695299458 -71770749 -1972721240 -1453017562 1628741709 1684312686 1773301600 -1285752417 2139449331 -1950953431 -2046568863 -641663452 -637185226 -294929142 -635704309 1957389581 1238507481
REM
CELL 1.54180   15.00000   15.00000   15.00000   90.00000   90.00000   90.00000
LATT -1
SFAC C  
C      1  0.4045620000000  0.5921950000000  0.5820110000000 1.0
C      1  0.4040240000000  0.3830240000000  0.5385660000000 1.0
C      1  0.4040090000000  0.5243200000000  0.3802360000000 1.0
C      1  0.2982410000000  0.6069760000000  0.5034480000000 1.0
C      1  0.2981750000000  0.4437130000000  0.5915210000000 1.0
C      1  0.2976780000000  0.4489510000000  0.4061310000000 1.0
C      1  0.5645060000000  0.5997060000000  0.5359790000000 1.0
C      1  0.5632720000000  0.4197900000000  0.5699850000000 1.0
C      1  0.5657020000000  0.4820950000000  0.3950000000000 1.0
C      1  0.3506300000000  0.6930680000000  0.5146000000000 1.0
C      1  0.3508120000000  0.3904640000000  0.6599890000000 1.0
C      1  0.3503470000000  0.4158200000000  0.3257200000000 1.0
C      1  0.4740150000000  0.4460890000000  0.5294730000000 1.0
C      1  0.4749730000000  0.5008840000000  0.4380330000000 1.0
C      1  0.4743050000000  0.5528780000000  0.5314200000000 1.0
C      1  0.3041270000000  0.5444060000000  0.5933870000000 1.0
C      1  0.3032220000000  0.3969780000000  0.4923420000000 1.0
C      1  0.3037500000000  0.5583690000000  0.4152910000000 1.0
C      1  0.3514600000000  0.5974930000000  0.6822040000000 1.0
C      1  0.3507510000000  0.2935990000000  0.4931960000000 1.0
C      1  0.3512550000000  0.6079100000000  0.3244290000000 1.0
C      1  0.6734800000000  0.5994620000000  0.5155120000000 1.0
C      1  0.6727820000000  0.4368010000000  0.5783820000000 1.0
C      1  0.6745030000000  0.4630610000000  0.4066140000000 1.0
C      1  0.5024720000000  0.3170410000000  0.4309310000000 1.0
C      1  0.5044330000000  0.6481820000000  0.3738900000000 1.0
C      1  0.5039660000000  0.5339480000000  0.6941810000000 1.0
C      1  0.5832330000000  0.6368480000000  0.6379330000000 1.0
C      1  0.5843810000000  0.3132780000000  0.5502180000000 1.0
C      1  0.5822660000000  0.5518060000000  0.3116370000000 1.0
C      1  0.4105190000000  0.4964310000000  0.2727870000000 1.0
C      1  0.4165120000000  0.6992090000000  0.6071030000000 1.0
C      1  0.4169270000000  0.3078370000000  0.6183240000000 1.0
C      1  0.6927120000000  0.5631840000000  0.4217250000000 1.0
C      1  0.6928000000000  0.5361470000000  0.5939250000000 1.0
C      1  0.6939100000000  0.4003860000000  0.4852120000000 1.0
C      1  0.4517880000000  0.6111980000000  0.7049880000000 1.0
C      1  0.4512660000000  0.2675580000000  0.4922640000000 1.0
C      1  0.4520370000000  0.6199100000000  0.3011620000000 1.0
C      1  0.6350090000000  0.7051340000000  0.4994570000000 1.0
C      1  0.6353830000000  0.3975750000000  0.6782110000000 1.0
C      1  0.6359370000000  0.3961410000000  0.3234280000000 1.0
C      1  0.5159100000000  0.4524920000000  0.6600580000000 1.0
C      1  0.5155910000000  0.3884360000000  0.3791460000000 1.0
C      1  0.5159770000000  0.6600050000000  0.4615980000000 1.0
C      1  0.6429660000000  0.6199290000000  0.3589370000000 1.0
C      1  0.6434760000000  0.5621280000000  0.6749750000000 1.0
C      1  0.6444500000000  0.3171790000000  0.4672960000000 1.0
C      1  0.4566030000000  0.3752360000000  0.6981070000000 1.0
C      1  0.4574470000000  0.3966340000000  0.2926320000000 1.0
C      1  0.4568490000000  0.7324620000000  0.5083870000000 1.0
C      1  0.6279070000000  0.4809100000000  0.7263070000000 1.0
C      1  0.6275830000000  0.3133070000000  0.3716290000000 1.0
C      1  0.6270570000000  0.7050080000000  0.4033880000000 1.0
C      1  0.5016330000000  0.2502040000000  0.5877940000000 1.0
C      1  0.5003540000000  0.5442370000000  0.2373610000000 1.0
C      1  0.5012990000000  0.7031230000000  0.6721010000000 1.0
C      1  0.5515140000000  0.7267390000000  0.5713020000000 1.0
C      1  0.5512010000000  0.3241130000000  0.6608540000000 1.0
C      1  0.5560500000000  0.4479940000000  0.2672810000000 1.0
END
