TITL C-986976-6631-139 0.0208566938227344 3375 -356.938290897947 0 0 60 (Ci) n - 1
REM
REM in /home/bkarasulu/work/CARBON/AIRSS/Generating-Clusters/REBO/Higher-Symm/Only-C60
REM
REM
REM
REM
REM
REM ./C.cell (a2850807a9bf4ad07a5b6933b78d9264)
REM AIRSS Version 0.9.1 bugfix July 2018 build 013d7b7c2542+ Fri, 06 Jul 2018 19:26:36 +0100
REM compiler GCC version 9.2.1 20190827 (Red Hat 9.2.1-1)
REM options -cpp -mtune=generic -march=x86-64 -g -O0 -fpre-include=/usr/include/finclude/math-vector-fortran.h
REM seed -581555989 -1231038281 1266768063 469038427 572327668 756293805 2112252912 -1066034245 -1559370850 -1728705682 -822310005 757014085 -1816775534 -1128276929 -124793254 1258543194 1774368505 985953138 1346565172 -438907299 1319911545 -1540130675 -346660800 821002101 220434881 2034154613 1710169282 1948304600 -521309320 -938473444 1405754814 -611589072 -928521246
REM
CELL 1.54180   15.00000   15.00000   15.00000   90.00000   90.00000   90.00000
LATT -1
SFAC C  
C      1  0.5670150000000  0.1175290000000  0.5713100000000 1.0
C      1  0.6058410000000  0.1468300000000  0.4726610000000 1.0
C      1  0.5290720000000  0.1515490000000  0.3941270000000 1.0
C      1  0.4277010000000  0.1265440000000  0.4289960000000 1.0
C      1  0.3918550000000  0.1550840000000  0.5283300000000 1.0
C      1  0.4688590000000  0.1501210000000  0.6069910000000 1.0
C      1  0.5714810000000  0.8729220000000  0.5701410000000 1.0
C      1  0.6078020000000  0.8444460000000  0.4708490000000 1.0
C      1  0.5310000000000  0.8511620000000  0.3920020000000 1.0
C      1  0.4347620000000  0.8868460000000  0.4302720000000 1.0
C      1  0.3931840000000  0.8546490000000  0.5270980000000 1.0
C      1  0.4700980000000  0.8482060000000  0.6054930000000 1.0
C      1  0.3508200000000  0.7089790000000  0.6363720000000 1.0
C      1  0.5443100000000  0.7039500000000  0.6846350000000 1.0
C      1  0.6749280000000  0.6942790000000  0.5523800000000 1.0
C      1  0.6381090000000  0.7061660000000  0.3556150000000 1.0
C      1  0.4439310000000  0.7095200000000  0.3136470000000 1.0
C      1  0.3056640000000  0.7196750000000  0.4425020000000 1.0
C      1  0.3609840000000  0.2933450000000  0.6439230000000 1.0
C      1  0.5571880000000  0.2897800000000  0.6859750000000 1.0
C      1  0.6940720000000  0.2795150000000  0.5582890000000 1.0
C      1  0.6487220000000  0.2908550000000  0.3626420000000 1.0
C      1  0.4554150000000  0.2959310000000  0.3152450000000 1.0
C      1  0.3249120000000  0.3054860000000  0.4475540000000 1.0
C      1  0.4427940000000  0.2090570000000  0.3532630000000 1.0
C      1  0.3578370000000  0.2156280000000  0.4408610000000 1.0
C      1  0.3777080000000  0.2097020000000  0.6227470000000 1.0
C      1  0.5592890000000  0.2022300000000  0.6468610000000 1.0
C      1  0.6484120000000  0.1956190000000  0.5635150000000 1.0
C      1  0.6224690000000  0.2097690000000  0.3832890000000 1.0
C      1  0.4376150000000  0.7999330000000  0.3563900000000 1.0
C      1  0.3556550000000  0.8055100000000  0.4335730000000 1.0
C      1  0.3764790000000  0.7901530000000  0.6154150000000 1.0
C      1  0.5564520000000  0.7905950000000  0.6460390000000 1.0
C      1  0.6414650000000  0.7839500000000  0.5585040000000 1.0
C      1  0.6209620000000  0.7897940000000  0.3762770000000 1.0
C      1  0.5419680000000  0.4443840000000  0.6045760000000 1.0
C      1  0.6195870000000  0.4351350000000  0.5328740000000 1.0
C      1  0.5915440000000  0.4463990000000  0.4317380000000 1.0
C      1  0.4881070000000  0.4463940000000  0.4013780000000 1.0
C      1  0.4103090000000  0.4588730000000  0.4745880000000 1.0
C      1  0.4378680000000  0.4456510000000  0.5776580000000 1.0
C      1  0.5122440000000  0.5531100000000  0.5991680000000 1.0
C      1  0.5900940000000  0.5406490000000  0.5259290000000 1.0
C      1  0.5625720000000  0.5537790000000  0.4228900000000 1.0
C      1  0.4585300000000  0.5551720000000  0.3960130000000 1.0
C      1  0.3808770000000  0.5643930000000  0.4676890000000 1.0
C      1  0.4088470000000  0.5530670000000  0.5688180000000 1.0
C      1  0.3816110000000  0.3785350000000  0.6286440000000 1.0
C      1  0.5543620000000  0.3711200000000  0.6751960000000 1.0
C      1  0.6838030000000  0.3603250000000  0.5499280000000 1.0
C      1  0.6435040000000  0.3794910000000  0.3741250000000 1.0
C      1  0.4684530000000  0.3747340000000  0.3327670000000 1.0
C      1  0.3389740000000  0.3859110000000  0.4552160000000 1.0
C      1  0.3568180000000  0.6202440000000  0.6260890000000 1.0
C      1  0.5317660000000  0.6249540000000  0.6676040000000 1.0
C      1  0.6612920000000  0.6137340000000  0.5451810000000 1.0
C      1  0.6186480000000  0.6208600000000  0.3716840000000 1.0
C      1  0.4468070000000  0.6285680000000  0.3253480000000 1.0
C      1  0.3165510000000  0.6392080000000  0.4511130000000 1.0
END
