TITL C-986979-5873-302 -8.96599661733761e-07 3375 -355.508378027242 0 0 60 (Ci) n - 1
REM
REM in /home/bkarasulu/work/CARBON/AIRSS/Generating-Clusters/REBO/Higher-Symm/Only-C60
REM
REM
REM
REM
REM
REM ./C.cell (a2850807a9bf4ad07a5b6933b78d9264)
REM AIRSS Version 0.9.1 bugfix July 2018 build 013d7b7c2542+ Fri, 06 Jul 2018 19:26:36 +0100
REM compiler GCC version 9.2.1 20190827 (Red Hat 9.2.1-1)
REM options -cpp -mtune=generic -march=x86-64 -g -O0 -fpre-include=/usr/include/finclude/math-vector-fortran.h
REM seed -1788131706 -1839866389 -1913293672 222099087 658504866 1036519106 2038555898 -2125445298 -1922048303 1165619836 1158069361 1915509380 -232224472 1515807957 1194065340 -1498560904 -711287092 2024390693 -1211210732 1223007572 -1256011652 1464139834 -864647762 -10900332 -1549810992 145553964 -331898821 -360634529 -1049061621 -89704728 908769241 -906679742 -305524482
REM
CELL 1.54180   15.00000   15.00000   15.00000   90.00000   90.00000   90.00000
LATT -1
SFAC C  
C      1  0.3849270000000  0.5190730000000  0.3227120000000 1.0
C      1  0.5388130000000  0.6138430000000  0.3233630000000 1.0
C      1  0.5410010000000  0.4307260000000  0.3640890000000 1.0
C      1  0.4084220000000  0.4728740000000  0.6578540000000 1.0
C      1  0.5705710000000  0.3884480000000  0.6989840000000 1.0
C      1  0.5606580000000  0.5773420000000  0.6612580000000 1.0
C      1  0.6150730000000  0.4809270000000  0.6772880000000 1.0
C      1  0.4611870000000  0.3861570000000  0.6766370000000 1.0
C      1  0.4589990000000  0.5692740000000  0.6359110000000 1.0
C      1  0.5915780000000  0.5271260000000  0.3421460000000 1.0
C      1  0.4294290000000  0.6115520000000  0.3010160000000 1.0
C      1  0.4393420000000  0.4226580000000  0.3387420000000 1.0
C      1  0.6067740000000  0.7279820000000  0.4353480000000 1.0
C      1  0.6255270000000  0.3042210000000  0.4468720000000 1.0
C      1  0.2663170000000  0.4772180000000  0.4351770000000 1.0
C      1  0.5974440000000  0.2750030000000  0.5727900000000 1.0
C      1  0.6362350000000  0.7018240000000  0.5617470000000 1.0
C      1  0.2758860000000  0.5179840000000  0.5606570000000 1.0
C      1  0.3932260000000  0.2720180000000  0.5646520000000 1.0
C      1  0.3744730000000  0.6957790000000  0.5531290000000 1.0
C      1  0.7336830000000  0.5227820000000  0.5648220000000 1.0
C      1  0.4025560000000  0.7249970000000  0.4272100000000 1.0
C      1  0.3637650000000  0.2981760000000  0.4382540000000 1.0
C      1  0.7241150000000  0.4820160000000  0.4393430000000 1.0
C      1  0.3734740000000  0.6376500000000  0.6261370000000 1.0
C      1  0.6907320000000  0.5555550000000  0.6440230000000 1.0
C      1  0.4446820000000  0.2835400000000  0.6421550000000 1.0
C      1  0.3562120000000  0.3540550000000  0.3635250000000 1.0
C      1  0.6720790000000  0.4528860000000  0.3647040000000 1.0
C      1  0.4530790000000  0.7123660000000  0.3471140000000 1.0
C      1  0.6265260000000  0.3623500000000  0.3738630000000 1.0
C      1  0.3092680000000  0.4444450000000  0.3559770000000 1.0
C      1  0.5553180000000  0.7164600000000  0.3578450000000 1.0
C      1  0.6437880000000  0.6459450000000  0.6364750000000 1.0
C      1  0.3279210000000  0.5471140000000  0.6352960000000 1.0
C      1  0.5469210000000  0.2876340000000  0.6528860000000 1.0
C      1  0.4522160000000  0.3914620000000  0.5624220000000 1.0
C      1  0.4483800000000  0.5884180000000  0.5234070000000 1.0
C      1  0.6028180000000  0.4973750000000  0.5639470000000 1.0
C      1  0.4416810000000  0.5980240000000  0.4131070000000 1.0
C      1  0.4444780000000  0.4033500000000  0.4510980000000 1.0
C      1  0.5950220000000  0.5112600000000  0.4553500000000 1.0
C      1  0.5477840000000  0.6085380000000  0.4375780000000 1.0
C      1  0.5516200000000  0.4115820000000  0.4765930000000 1.0
C      1  0.3971820000000  0.5026240000000  0.4360530000000 1.0
C      1  0.5583190000000  0.4019760000000  0.5868930000000 1.0
C      1  0.5555220000000  0.5966500000000  0.5489020000000 1.0
C      1  0.4049780000000  0.4887400000000  0.5446500000000 1.0
C      1  0.6753280000000  0.3393340000000  0.5323380000000 1.0
C      1  0.2729080000000  0.4181160000000  0.5231400000000 1.0
C      1  0.5512340000000  0.7510660000000  0.5218270000000 1.0
C      1  0.6846600000000  0.6665560000000  0.4746180000000 1.0
C      1  0.2787260000000  0.5776350000000  0.4723200000000 1.0
C      1  0.5432630000000  0.2507060000000  0.4836340000000 1.0
C      1  0.3246720000000  0.6606660000000  0.4676620000000 1.0
C      1  0.7270920000000  0.5818840000000  0.4768600000000 1.0
C      1  0.4487660000000  0.2489340000000  0.4781730000000 1.0
C      1  0.3153390000000  0.3334440000000  0.5253820000000 1.0
C      1  0.7212740000000  0.4223660000000  0.5276800000000 1.0
C      1  0.4567370000000  0.7492940000000  0.5163660000000 1.0
END
