TITL C-986975-4297-724 -1.55854230888216e-06 3375 -347.921191614711 0 0 60 (Td) n - 1
REM
REM in /home/bkarasulu/work/CARBON/AIRSS/Generating-Clusters/REBO/Higher-Symm/Only-C60
REM
REM
REM
REM
REM
REM ./C.cell (a2850807a9bf4ad07a5b6933b78d9264)
REM AIRSS Version 0.9.1 bugfix July 2018 build 013d7b7c2542+ Fri, 06 Jul 2018 19:26:36 +0100
REM compiler GCC version 9.2.1 20190827 (Red Hat 9.2.1-1)
REM options -cpp -mtune=generic -march=x86-64 -g -O0 -fpre-include=/usr/include/finclude/math-vector-fortran.h
REM seed -1643733567 1228254775 -273346154 836046925 1020029720 -1660896954 1240646577 852769678 -1602965999 2138776209 -993644833 334375055 -49707964 -1369565159 -767348234 -883536188 671800574 -1564088076 -824973366 733491747 -828106796 482378087 1497514104 -719234215 -1528365773 -1069276517 -1541047348 -300013186 -956711300 -1425206948 -1633821587 151398215 -248749381
REM
CELL 1.54180   15.00000   15.00000   15.00000   90.00000   90.00000   90.00000
LATT -1
SFAC C  
C      1  0.4042590000000  0.2353930000000  0.5358900000000 1.0
C      1  0.5358900000000  0.4042590000000  0.2353930000000 1.0
C      1  0.2353930000000  0.5358900000000  0.4042590000000 1.0
C      1  0.4042590000000  0.7646070000000  0.4641100000000 1.0
C      1  0.5957410000000  0.7646070000000  0.5358900000000 1.0
C      1  0.5957410000000  0.2353930000000  0.4641100000000 1.0
C      1  0.5358900000000  0.5957410000000  0.7646070000000 1.0
C      1  0.4641100000000  0.5957410000000  0.2353930000000 1.0
C      1  0.4641100000000  0.4042590000000  0.7646070000000 1.0
C      1  0.2353930000000  0.4641100000000  0.5957410000000 1.0
C      1  0.7646070000000  0.4641100000000  0.4042590000000 1.0
C      1  0.7646070000000  0.5358900000000  0.5957410000000 1.0
C      1  0.4042590000000  0.5358900000000  0.2353930000000 1.0
C      1  0.5358900000000  0.2353930000000  0.4042590000000 1.0
C      1  0.2353930000000  0.4042590000000  0.5358900000000 1.0
C      1  0.4042590000000  0.4641100000000  0.7646070000000 1.0
C      1  0.5957410000000  0.5358900000000  0.7646070000000 1.0
C      1  0.5957410000000  0.4641100000000  0.2353930000000 1.0
C      1  0.5358900000000  0.7646070000000  0.5957410000000 1.0
C      1  0.4641100000000  0.2353930000000  0.5957410000000 1.0
C      1  0.4641100000000  0.7646070000000  0.4042590000000 1.0
C      1  0.2353930000000  0.5957410000000  0.4641100000000 1.0
C      1  0.7646070000000  0.4042590000000  0.4641100000000 1.0
C      1  0.7646070000000  0.5957410000000  0.5358900000000 1.0
C      1  0.3193430000000  0.3954540000000  0.4667430000000 1.0
C      1  0.4667430000000  0.3193430000000  0.3954540000000 1.0
C      1  0.3954540000000  0.4667430000000  0.3193420000000 1.0
C      1  0.3193430000000  0.6045460000000  0.5332570000000 1.0
C      1  0.6806570000000  0.6045460000000  0.4667430000000 1.0
C      1  0.6806570000000  0.3954540000000  0.5332570000000 1.0
C      1  0.4667430000000  0.6806570000000  0.6045460000000 1.0
C      1  0.5332570000000  0.6806580000000  0.3954540000000 1.0
C      1  0.5332570000000  0.3193420000000  0.6045460000000 1.0
C      1  0.3954540000000  0.5332570000000  0.6806570000000 1.0
C      1  0.6045460000000  0.5332570000000  0.3193430000000 1.0
C      1  0.6045460000000  0.4667430000000  0.6806570000000 1.0
C      1  0.3193430000000  0.4667430000000  0.3954540000000 1.0
C      1  0.4667430000000  0.3954540000000  0.3193430000000 1.0
C      1  0.3954540000000  0.3193420000000  0.4667430000000 1.0
C      1  0.3193430000000  0.5332570000000  0.6045460000000 1.0
C      1  0.6806580000000  0.4667430000000  0.6045460000000 1.0
C      1  0.6806570000000  0.5332570000000  0.3954540000000 1.0
C      1  0.4667430000000  0.6045460000000  0.6806570000000 1.0
C      1  0.5332570000000  0.3954540000000  0.6806580000000 1.0
C      1  0.5332570000000  0.6045460000000  0.3193420000000 1.0
C      1  0.3954540000000  0.6806570000000  0.5332570000000 1.0
C      1  0.6045460000000  0.3193430000000  0.5332570000000 1.0
C      1  0.6045460000000  0.6806570000000  0.4667430000000 1.0
C      1  0.3613000000000  0.5601060000000  0.4398940000000 1.0
C      1  0.4398940000000  0.3613000000000  0.5601060000000 1.0
C      1  0.5601060000000  0.4398940000000  0.3613000000000 1.0
C      1  0.3613000000000  0.4398940000000  0.5601060000000 1.0
C      1  0.6387000000000  0.4398940000000  0.4398940000000 1.0
C      1  0.6387000000000  0.5601060000000  0.5601060000000 1.0
C      1  0.4398940000000  0.6387000000000  0.4398940000000 1.0
C      1  0.5601060000000  0.6387000000000  0.5601060000000 1.0
C      1  0.5601060000000  0.3613000000000  0.4398940000000 1.0
C      1  0.4398940000000  0.4398940000000  0.6387000000000 1.0
C      1  0.4398940000000  0.5601060000000  0.3613000000000 1.0
C      1  0.5601060000000  0.5601060000000  0.6387000000000 1.0
END
