TITL C-986974-580-185 -7.29753657095684e-06 3375 -344.87308452437 0 0 60 (C1) n - 1
REM
REM in /home/bkarasulu/work/CARBON/AIRSS/Generating-Clusters/REBO/Higher-Symm/Only-C60
REM
REM
REM
REM
REM
REM ./C.cell (a2850807a9bf4ad07a5b6933b78d9264)
REM AIRSS Version 0.9.1 bugfix July 2018 build 013d7b7c2542+ Fri, 06 Jul 2018 19:26:36 +0100
REM compiler GCC version 9.2.1 20190827 (Red Hat 9.2.1-1)
REM options -cpp -mtune=generic -march=x86-64 -g -O0 -fpre-include=/usr/include/finclude/math-vector-fortran.h
REM seed -702660417 556435181 1914876881 69543753 -69521678 -1418128844 -396451260 -74438705 -709759625 2049534826 -524727189 1754465046 -1228528338 -1202691416 -1477240065 1002400898 1767897884 -1902900741 -195839497 -369143065 2140762108 -1166059165 1457238682 -1118154657 -1529738054 1345769223 -201172670 -1580303495 -1642215579 -1873371771 30091354 2043139358 -372163310
REM
CELL 1.54180   15.00000   15.00000   15.00000   90.00000   90.00000   90.00000
LATT -1
SFAC C  
C      1  0.3334770000000  0.6254730000000  0.5428700000000 1.0
C      1  0.6684420000000  0.6289310000000  0.4570510000000 1.0
C      1  0.3296500000000  0.6237660000000  0.4479030000000 1.0
C      1  0.6723170000000  0.6269060000000  0.5520860000000 1.0
C      1  0.4409530000000  0.7554840000000  0.4376030000000 1.0
C      1  0.5592970000000  0.7569660000000  0.5628350000000 1.0
C      1  0.4478080000000  0.7543330000000  0.5411100000000 1.0
C      1  0.5524450000000  0.7560910000000  0.4594200000000 1.0
C      1  0.3743060000000  0.7232780000000  0.6883130000000 1.0
C      1  0.6268410000000  0.7273210000000  0.3122580000000 1.0
C      1  0.3543840000000  0.7217580000000  0.2972590000000 1.0
C      1  0.6468300000000  0.7244910000000  0.7028250000000 1.0
C      1  0.6227910000000  0.4457400000000  0.2543900000000 1.0
C      1  0.3927780000000  0.4444480000000  0.7380080000000 1.0
C      1  0.6294690000000  0.4366700000000  0.7469950000000 1.0
C      1  0.3865250000000  0.4340960000000  0.2589440000000 1.0
C      1  0.5540680000000  0.3873760000000  0.2608940000000 1.0
C      1  0.4587240000000  0.3821320000000  0.7253850000000 1.0
C      1  0.5562150000000  0.3845630000000  0.7386870000000 1.0
C      1  0.4567900000000  0.3774030000000  0.2741300000000 1.0
C      1  0.5489490000000  0.3298680000000  0.3572370000000 1.0
C      1  0.4387400000000  0.3235140000000  0.6393180000000 1.0
C      1  0.5466610000000  0.3295870000000  0.6406130000000 1.0
C      1  0.4415340000000  0.3209060000000  0.3633840000000 1.0
C      1  0.6480520000000  0.3594330000000  0.5996490000000 1.0
C      1  0.3414280000000  0.3528250000000  0.4015710000000 1.0
C      1  0.6492070000000  0.3642540000000  0.3975510000000 1.0
C      1  0.3392100000000  0.3575500000000  0.6013560000000 1.0
C      1  0.5379210000000  0.7660110000000  0.3473720000000 1.0
C      1  0.4621790000000  0.7642280000000  0.6532020000000 1.0
C      1  0.5586410000000  0.7690990000000  0.6756860000000 1.0
C      1  0.4414140000000  0.7682890000000  0.3248140000000 1.0
C      1  0.6962200000000  0.4447000000000  0.5474900000000 1.0
C      1  0.3019000000000  0.4431450000000  0.4516670000000 1.0
C      1  0.6949840000000  0.4478580000000  0.4526720000000 1.0
C      1  0.3030360000000  0.4461220000000  0.5470410000000 1.0
C      1  0.3932350000000  0.2678270000000  0.4495210000000 1.0
C      1  0.5940710000000  0.2763520000000  0.5523660000000 1.0
C      1  0.3892160000000  0.2707240000000  0.5572450000000 1.0
C      1  0.5986810000000  0.2800900000000  0.4432300000000 1.0
C      1  0.3268410000000  0.4476610000000  0.3408840000000 1.0
C      1  0.6785070000000  0.4512520000000  0.6589920000000 1.0
C      1  0.3319360000000  0.4563710000000  0.6566310000000 1.0
C      1  0.6722520000000  0.4605150000000  0.3423090000000 1.0
C      1  0.6447860000000  0.7010780000000  0.6016220000000 1.0
C      1  0.3566450000000  0.6980490000000  0.3983840000000 1.0
C      1  0.6353730000000  0.7039590000000  0.4123630000000 1.0
C      1  0.3660070000000  0.7003190000000  0.5881090000000 1.0
C      1  0.4432140000000  0.1819180000000  0.5377210000000 1.0
C      1  0.5518150000000  0.1878250000000  0.4626020000000 1.0
C      1  0.4534940000000  0.1765270000000  0.4305120000000 1.0
C      1  0.5425720000000  0.1798290000000  0.5691610000000 1.0
C      1  0.6430590000000  0.5396580000000  0.4159740000000 1.0
C      1  0.3587670000000  0.5356580000000  0.5833320000000 1.0
C      1  0.6486980000000  0.5358700000000  0.5917130000000 1.0
C      1  0.3531680000000  0.5324000000000  0.4082580000000 1.0
C      1  0.4530380000000  0.5266150000000  0.5453420000000 1.0
C      1  0.5487370000000  0.5285500000000  0.4541860000000 1.0
C      1  0.4494540000000  0.5275620000000  0.4413070000000 1.0
C      1  0.5522460000000  0.5287700000000  0.5586490000000 1.0
END
