TITL C-986978-6805-1006 0.112786239171105 3375 -342.499001258412 0 0 60 (C1) n - 1
REM
REM in /home/bkarasulu/work/CARBON/AIRSS/Generating-Clusters/REBO/Higher-Symm/Only-C60
REM
REM
REM
REM
REM
REM ./C.cell (a2850807a9bf4ad07a5b6933b78d9264)
REM AIRSS Version 0.9.1 bugfix July 2018 build 013d7b7c2542+ Fri, 06 Jul 2018 19:26:36 +0100
REM compiler GCC version 9.2.1 20190827 (Red Hat 9.2.1-1)
REM options -cpp -mtune=generic -march=x86-64 -g -O0 -fpre-include=/usr/include/finclude/math-vector-fortran.h
REM seed -801474356 968884254 1286260497 -3621636 1260523883 298567959 -238530281 723636101 1526847170 -1208299088 -1485118106 -1917893507 -1999366726 -901581061 -1022423027 1810594203 -642734796 -812057135 -1168406583 886682995 -1264080878 -1112874270 -1418776439 -2057568904 -1018339705 657968308 -1291568123 1821621894 1155164305 522392384 -539241188 -197734270 440119675
REM
CELL 1.54180   15.00000   15.00000   15.00000   90.00000   90.00000   90.00000
LATT -1
SFAC C  
C      1  0.4148950000000  0.4445360000000  0.3858720000000 1.0
C      1  0.4028130000000  0.4293280000000  0.6123050000000 1.0
C      1  0.4205890000000  0.6209940000000  0.5170740000000 1.0
C      1  0.4145410000000  0.5554330000000  0.3864420000000 1.0
C      1  0.4039200000000  0.5703380000000  0.6130500000000 1.0
C      1  0.4201430000000  0.3789220000000  0.5164790000000 1.0
C      1  0.5834190000000  0.6892550000000  0.4865210000000 1.0
C      1  0.5782340000000  0.3953640000000  0.3326530000000 1.0
C      1  0.5704830000000  0.4094400000000  0.6698910000000 1.0
C      1  0.5826470000000  0.3104470000000  0.4877720000000 1.0
C      1  0.5767300000000  0.6036660000000  0.3319030000000 1.0
C      1  0.5732050000000  0.5859200000000  0.6667340000000 1.0
C      1  0.4715510000000  0.6470470000000  0.3484870000000 1.0
C      1  0.4738110000000  0.3015940000000  0.4504580000000 1.0
C      1  0.4691310000000  0.5563340000000  0.7058530000000 1.0
C      1  0.4721880000000  0.3533620000000  0.3479590000000 1.0
C      1  0.4740740000000  0.6984860000000  0.4512270000000 1.0
C      1  0.4666660000000  0.4415780000000  0.7059880000000 1.0
C      1  0.4829030000000  0.7203690000000  0.5666450000000 1.0
C      1  0.4713940000000  0.4437490000000  0.2720900000000 1.0
C      1  0.4649540000000  0.3311530000000  0.6659130000000 1.0
C      1  0.4807540000000  0.2782030000000  0.5656320000000 1.0
C      1  0.4687620000000  0.5583840000000  0.2712330000000 1.0
C      1  0.4693080000000  0.6667050000000  0.6668090000000 1.0
C      1  0.5746480000000  0.4486970000000  0.2388920000000 1.0
C      1  0.5680760000000  0.3010210000000  0.6631280000000 1.0
C      1  0.5881620000000  0.7461070000000  0.5771980000000 1.0
C      1  0.5706950000000  0.5479300000000  0.2394710000000 1.0
C      1  0.5724850000000  0.6950900000000  0.6615480000000 1.0
C      1  0.5859480000000  0.2523350000000  0.5777990000000 1.0
C      1  0.6611490000000  0.4459050000000  0.6749510000000 1.0
C      1  0.6746750000000  0.6670250000000  0.4502720000000 1.0
C      1  0.6712010000000  0.3781990000000  0.3632700000000 1.0
C      1  0.6640030000000  0.5456590000000  0.6653040000000 1.0
C      1  0.6745940000000  0.3364320000000  0.4549570000000 1.0
C      1  0.6697780000000  0.6226230000000  0.3602010000000 1.0
C      1  0.5121380000000  0.5495710000000  0.5825030000000 1.0
C      1  0.5279080000000  0.5479700000000  0.4118470000000 1.0
C      1  0.5338850000000  0.4062270000000  0.4988510000000 1.0
C      1  0.5116610000000  0.4490410000000  0.5833310000000 1.0
C      1  0.5287280000000  0.4516370000000  0.4121950000000 1.0
C      1  0.5342240000000  0.5933550000000  0.4984020000000 1.0
C      1  0.3240100000000  0.3620090000000  0.4782660000000 1.0
C      1  0.3083560000000  0.5463760000000  0.6323760000000 1.0
C      1  0.3205950000000  0.5905180000000  0.3996970000000 1.0
C      1  0.3243840000000  0.6378940000000  0.4787540000000 1.0
C      1  0.3075510000000  0.4538890000000  0.6316830000000 1.0
C      1  0.3207550000000  0.4093970000000  0.3991720000000 1.0
C      1  0.2548670000000  0.6609070000000  0.5371360000000 1.0
C      1  0.2514360000000  0.4540360000000  0.3548900000000 1.0
C      1  0.2435560000000  0.3883540000000  0.6135590000000 1.0
C      1  0.2545830000000  0.3389570000000  0.5368010000000 1.0
C      1  0.2513800000000  0.5460520000000  0.3550980000000 1.0
C      1  0.2442750000000  0.6118520000000  0.6141380000000 1.0
C      1  0.7223140000000  0.4540160000000  0.4164570000000 1.0
C      1  0.7257770000000  0.4531540000000  0.5930570000000 1.0
C      1  0.7332010000000  0.6029380000000  0.5057390000000 1.0
C      1  0.7235080000000  0.5491100000000  0.4139880000000 1.0
C      1  0.7313020000000  0.5593990000000  0.5883220000000 1.0
C      1  0.7270800000000  0.4057090000000  0.5117580000000 1.0
END
