TITL C-986973-6940-736 -0.00978499330414463 3375 -331.740464630416 0 0 60 (C3) n - 1
REM
REM in /home/bkarasulu/work/CARBON/AIRSS/Generating-Clusters/REBO/Higher-Symm/Only-C60
REM
REM
REM
REM
REM
REM ./C.cell (a2850807a9bf4ad07a5b6933b78d9264)
REM AIRSS Version 0.9.1 bugfix July 2018 build 013d7b7c2542+ Fri, 06 Jul 2018 19:26:36 +0100
REM compiler GCC version 9.2.1 20190827 (Red Hat 9.2.1-1)
REM options -cpp -mtune=generic -march=x86-64 -g -O0 -fpre-include=/usr/include/finclude/math-vector-fortran.h
REM seed -2060842399 59608603 621974131 -1964973283 -1805593292 1677511194 1700701342 1252253107 1113270084 701063430 -2031962097 -1492580677 -991995610 -1436982264 -721740091 474507847 1569200400 724228344 1947972515 -1059325204 -1869280520 1874883824 -869570033 -490833326 1066916893 -950883964 1218577778 1013767895 683585924 -377749361 -2100936835 -2021225152 334153243
REM
CELL 1.54180   15.00000   15.00000   15.00000   90.00000   90.00000   90.00000
LATT -1
SFAC C  
C      1  0.4688670000000  0.4950630000000  0.2290190000000 1.0
C      1  0.4688520000000  0.7372140000000  0.6311250000000 1.0
C      1  0.4689010000000  0.2677780000000  0.6398280000000 1.0
C      1  0.2824640000000  0.5471850000000  0.4542710000000 1.0
C      1  0.2825370000000  0.5159410000000  0.5638290000000 1.0
C      1  0.2825020000000  0.4366890000000  0.4819750000000 1.0
C      1  0.7636710000000  0.4762830000000  0.6632050000000 1.0
C      1  0.7636780000000  0.3705100000000  0.3978550000000 1.0
C      1  0.7636990000000  0.6531800000000  0.4389350000000 1.0
C      1  0.3977290000000  0.4854000000000  0.7088740000000 1.0
C      1  0.3977550000000  0.3263290000000  0.3828560000000 1.0
C      1  0.3978630000000  0.6886010000000  0.4080210000000 1.0
C      1  0.4130620000000  0.5721670000000  0.6545450000000 1.0
C      1  0.4130430000000  0.3301130000000  0.4851870000000 1.0
C      1  0.4129760000000  0.5977680000000  0.3605580000000 1.0
C      1  0.5787070000000  0.6958700000000  0.5317800000000 1.0
C      1  0.5786700000000  0.3745650000000  0.6537010000000 1.0
C      1  0.5786660000000  0.4296420000000  0.3145100000000 1.0
C      1  0.6148170000000  0.4361480000000  0.5147920000000 1.0
C      1  0.6148250000000  0.5191030000000  0.4373150000000 1.0
C      1  0.6148250000000  0.5447250000000  0.5478940000000 1.0
C      1  0.4185010000000  0.7318840000000  0.5496790000000 1.0
C      1  0.4184870000000  0.3409300000000  0.6759240000000 1.0
C      1  0.4184810000000  0.4272010000000  0.2743120000000 1.0
C      1  0.5677830000000  0.6506470000000  0.4090230000000 1.0
C      1  0.5677620000000  0.5034780000000  0.6759180000000 1.0
C      1  0.5677540000000  0.3459180000000  0.4150280000000 1.0
C      1  0.3181230000000  0.4591400000000  0.6525300000000 1.0
C      1  0.3181620000000  0.3883150000000  0.3884180000000 1.0
C      1  0.3182470000000  0.6523340000000  0.4588780000000 1.0
C      1  0.6577080000000  0.4067140000000  0.3807070000000 1.0
C      1  0.6577220000000  0.6499380000000  0.4788520000000 1.0
C      1  0.6577050000000  0.4433410000000  0.6404240000000 1.0
C      1  0.5444730000000  0.6787070000000  0.6207780000000 1.0
C      1  0.5444950000000  0.3060440000000  0.5943360000000 1.0
C      1  0.5444470000000  0.5153260000000  0.2849170000000 1.0
C      1  0.5145560000000  0.4758530000000  0.4316420000000 1.0
C      1  0.5144790000000  0.5712550000000  0.5132940000000 1.0
C      1  0.5145940000000  0.4528040000000  0.5552550000000 1.0
C      1  0.3393550000000  0.4533510000000  0.3223980000000 1.0
C      1  0.3394430000000  0.6770880000000  0.5482210000000 1.0
C      1  0.3393460000000  0.3694590000000  0.6292480000000 1.0
C      1  0.5122020000000  0.3511380000000  0.5069230000000 1.0
C      1  0.5121650000000  0.5684300000000  0.3677090000000 1.0
C      1  0.5122120000000  0.5804640000000  0.6254630000000 1.0
C      1  0.4149410000000  0.5560140000000  0.4650260000000 1.0
C      1  0.4149820000000  0.5022590000000  0.5661400000000 1.0
C      1  0.4149220000000  0.4416170000000  0.4690340000000 1.0
C      1  0.3282140000000  0.5399760000000  0.3573530000000 1.0
C      1  0.3283020000000  0.6035810000000  0.6058400000000 1.0
C      1  0.3282560000000  0.3564100000000  0.5367620000000 1.0
C      1  0.7306470000000  0.4809520000000  0.5615010000000 1.0
C      1  0.7306500000000  0.4562330000000  0.4527640000000 1.0
C      1  0.7306520000000  0.5627690000000  0.4857250000000 1.0
C      1  0.6442660000000  0.5813750000000  0.3662750000000 1.0
C      1  0.6443140000000  0.5751260000000  0.6373360000000 1.0
C      1  0.6443010000000  0.3435030000000  0.4963790000000 1.0
C      1  0.4898100000000  0.7133190000000  0.4630170000000 1.0
C      1  0.4897080000000  0.4253950000000  0.7030750000000 1.0
C      1  0.4897210000000  0.3614380000000  0.3338230000000 1.0
END
