TITL C-986978-6805-1169 -0.0199778611323855 3375 -333.646370308727 0 0 60 (C2) n - 1
REM
REM in /home/bkarasulu/work/CARBON/AIRSS/Generating-Clusters/REBO/Higher-Symm/Only-C60
REM
REM
REM
REM
REM
REM ./C.cell (a2850807a9bf4ad07a5b6933b78d9264)
REM AIRSS Version 0.9.1 bugfix July 2018 build 013d7b7c2542+ Fri, 06 Jul 2018 19:26:36 +0100
REM compiler GCC version 9.2.1 20190827 (Red Hat 9.2.1-1)
REM options -cpp -mtune=generic -march=x86-64 -g -O0 -fpre-include=/usr/include/finclude/math-vector-fortran.h
REM seed 1835722353 96331483 -587469600 1290802905 296480430 -960461001 -2029998959 1223642586 1278030494 -1116012142 1175198899 -1887376766 1916768813 151211713 1902249442 -708586589 362179349 -1914953333 955840875 -1147282007 -1421231812 -1176743026 -1210253805 -30942028 -1103034435 -1577786166 -748390815 1329499575 13902624 1200963205 -1038379829 -1737025536 -1283515119
REM
CELL 1.54180   15.00000   15.00000   15.00000   90.00000   90.00000   90.00000
LATT -1
SFAC C  
C      1  0.6720330000000  0.5351630000000  0.4104610000000 1.0
C      1  0.3279740000000  0.4648350000000  0.4104610000000 1.0
C      1  0.4884610000000  0.6398130000000  0.5548460000000 1.0
C      1  0.5115390000000  0.3601870000000  0.5548460000000 1.0
C      1  0.5308960000000  0.4557330000000  0.5195050000000 1.0
C      1  0.4691030000000  0.5442670000000  0.5195050000000 1.0
C      1  0.5056440000000  0.2994170000000  0.4370220000000 1.0
C      1  0.4943540000000  0.7005670000000  0.4370190000000 1.0
C      1  0.6932690000000  0.6404770000000  0.5072240000000 1.0
C      1  0.3067330000000  0.3595250000000  0.5072230000000 1.0
C      1  0.5350190000000  0.2747280000000  0.6531730000000 1.0
C      1  0.4649790000000  0.7252710000000  0.6531710000000 1.0
C      1  0.3739250000000  0.3232790000000  0.3413710000000 1.0
C      1  0.6260660000000  0.6767170000000  0.3413720000000 1.0
C      1  0.4965890000000  0.4448710000000  0.3917070000000 1.0
C      1  0.5034060000000  0.5551270000000  0.3917050000000 1.0
C      1  0.3003640000000  0.5545080000000  0.5412700000000 1.0
C      1  0.6996360000000  0.4454890000000  0.5412690000000 1.0
C      1  0.4024500000000  0.6780250000000  0.4465530000000 1.0
C      1  0.5975480000000  0.3219750000000  0.4465570000000 1.0
C      1  0.4704240000000  0.2536120000000  0.5693540000000 1.0
C      1  0.5295790000000  0.7463900000000  0.5693510000000 1.0
C      1  0.3032730000000  0.5691220000000  0.3872900000000 1.0
C      1  0.6967270000000  0.4308820000000  0.3872880000000 1.0
C      1  0.5932550000000  0.6926140000000  0.4923970000000 1.0
C      1  0.4067440000000  0.3073870000000  0.4923990000000 1.0
C      1  0.7229900000000  0.5333200000000  0.5328650000000 1.0
C      1  0.2770090000000  0.4666790000000  0.5328640000000 1.0
C      1  0.5830340000000  0.5847210000000  0.4591220000000 1.0
C      1  0.4169650000000  0.4152850000000  0.4591180000000 1.0
C      1  0.3832750000000  0.4226330000000  0.6923880000000 1.0
C      1  0.6167240000000  0.5773690000000  0.6923840000000 1.0
C      1  0.3660640000000  0.6442480000000  0.3586300000000 1.0
C      1  0.6339380000000  0.3557550000000  0.3586290000000 1.0
C      1  0.5611600000000  0.3750670000000  0.6514580000000 1.0
C      1  0.4388420000000  0.6249320000000  0.6514560000000 1.0
C      1  0.6400740000000  0.3617240000000  0.5246110000000 1.0
C      1  0.3599230000000  0.6382740000000  0.5246120000000 1.0
C      1  0.5974100000000  0.5663400000000  0.5626940000000 1.0
C      1  0.4025890000000  0.4336610000000  0.5626970000000 1.0
C      1  0.5969430000000  0.4549320000000  0.4384760000000 1.0
C      1  0.4030570000000  0.5450690000000  0.4384770000000 1.0
C      1  0.4764650000000  0.5389760000000  0.2622680000000 1.0
C      1  0.5235330000000  0.4610220000000  0.2622710000000 1.0
C      1  0.6671640000000  0.4892510000000  0.7029250000000 1.0
C      1  0.3328360000000  0.5107470000000  0.7029250000000 1.0
C      1  0.4813160000000  0.4544140000000  0.6436160000000 1.0
C      1  0.5186820000000  0.5455890000000  0.6436150000000 1.0
C      1  0.6951420000000  0.6018110000000  0.6139130000000 1.0
C      1  0.3048580000000  0.3981870000000  0.6139150000000 1.0
C      1  0.4216080000000  0.3384730000000  0.6250310000000 1.0
C      1  0.5783930000000  0.6615300000000  0.6250290000000 1.0
C      1  0.3126750000000  0.3602300000000  0.3970480000000 1.0
C      1  0.6873240000000  0.6397700000000  0.3970410000000 1.0
C      1  0.3467900000000  0.5855640000000  0.6339560000000 1.0
C      1  0.6532100000000  0.4144370000000  0.6339550000000 1.0
C      1  0.5719030000000  0.3891140000000  0.2919120000000 1.0
C      1  0.4281120000000  0.6108920000000  0.2919200000000 1.0
C      1  0.4644890000000  0.3444340000000  0.3569180000000 1.0
C      1  0.5355110000000  0.6555690000000  0.3569220000000 1.0
END
