TITL C-986979-5873-141 -0.0705660432528798 3375 -339.920997481014 0 0 60 (C1) n - 1
REM
REM in /home/bkarasulu/work/CARBON/AIRSS/Generating-Clusters/REBO/Higher-Symm/Only-C60
REM
REM
REM
REM
REM
REM ./C.cell (a2850807a9bf4ad07a5b6933b78d9264)
REM AIRSS Version 0.9.1 bugfix July 2018 build 013d7b7c2542+ Fri, 06 Jul 2018 19:26:36 +0100
REM compiler GCC version 9.2.1 20190827 (Red Hat 9.2.1-1)
REM options -cpp -mtune=generic -march=x86-64 -g -O0 -fpre-include=/usr/include/finclude/math-vector-fortran.h
REM seed 1324386838 -331702480 -1025363533 288770568 1015681601 -832531155 -49935210 624736872 1888093675 -935365813 -956923388 -1319203761 60264421 1218438827 1183535476 1537047232 615276144 758045376 1957167357 -1403458596 -1689487382 522337891 1722527258 -159664216 -656731528 1332581740 -714622582 -1103040084 1117347997 -265652885 -1568258249 459682702 1770448579
REM
CELL 1.54180   15.00000   15.00000   15.00000   90.00000   90.00000   90.00000
LATT -1
SFAC C  
C      1  0.6753310000000  0.2970060000000  0.4517810000000 1.0
C      1  0.4117010000000  0.3173440000000  0.3558430000000 1.0
C      1  0.3818230000000  0.5234280000000  0.6837720000000 1.0
C      1  0.3939890000000  0.4124430000000  0.6921300000000 1.0
C      1  0.3579700000000  0.2528610000000  0.3371570000000 1.0
C      1  0.6336150000000  0.6261670000000  0.6767660000000 1.0
C      1  0.5682980000000  0.6038480000000  0.3196210000000 1.0
C      1  0.4875220000000  0.6419220000000  0.3891840000000 1.0
C      1  0.3296610000000  0.6959820000000  0.5083610000000 1.0
C      1  0.5210150000000  0.6371350000000  0.6908050000000 1.0
C      1  0.5304320000000  0.3330910000000  0.6227940000000 1.0
C      1  0.4247210000000  0.7100180000000  0.5226160000000 1.0
C      1  0.4468030000000  0.6614180000000  0.6150560000000 1.0
C      1  0.4949640000000  0.3908940000000  0.7139070000000 1.0
C      1  0.3835660000000  0.5105450000000  0.5749990000000 1.0
C      1  0.3081980000000  0.6403060000000  0.4203910000000 1.0
C      1  0.4166360000000  0.3367230000000  0.6244260000000 1.0
C      1  0.3468450000000  0.6087490000000  0.3175070000000 1.0
C      1  0.6194010000000  0.3394790000000  0.3659570000000 1.0
C      1  0.7198370000000  0.4642660000000  0.3997460000000 1.0
C      1  0.4772460000000  0.5532890000000  0.7298000000000 1.0
C      1  0.5119810000000  0.3368360000000  0.3746790000000 1.0
C      1  0.2135760000000  0.3107190000000  0.5325460000000 1.0
C      1  0.7011570000000  0.5350750000000  0.5516400000000 1.0
C      1  0.3554570000000  0.6210610000000  0.6437030000000 1.0
C      1  0.5425360000000  0.4450800000000  0.3924400000000 1.0
C      1  0.3739970000000  0.4906790000000  0.4434920000000 1.0
C      1  0.6251170000000  0.3816070000000  0.6080190000000 1.0
C      1  0.4018260000000  0.5841480000000  0.4106300000000 1.0
C      1  0.5766930000000  0.6871300000000  0.6043680000000 1.0
C      1  0.5107400000000  0.6015480000000  0.5467760000000 1.0
C      1  0.3041820000000  0.4495070000000  0.5208480000000 1.0
C      1  0.6076870000000  0.6042170000000  0.4575150000000 1.0
C      1  0.7202160000000  0.5925240000000  0.6346500000000 1.0
C      1  0.4914740000000  0.3038280000000  0.5201560000000 1.0
C      1  0.4121590000000  0.4232140000000  0.3796390000000 1.0
C      1  0.5369880000000  0.4784530000000  0.7251910000000 1.0
C      1  0.4587020000000  0.5917290000000  0.2916290000000 1.0
C      1  0.2913120000000  0.6616510000000  0.5906140000000 1.0
C      1  0.6632100000000  0.6184490000000  0.3621610000000 1.0
C      1  0.3521010000000  0.5213530000000  0.2597920000000 1.0
C      1  0.7147650000000  0.4365430000000  0.5646790000000 1.0
C      1  0.6421950000000  0.4393820000000  0.3392540000000 1.0
C      1  0.4981470000000  0.7055980000000  0.4620730000000 1.0
C      1  0.7027010000000  0.3248830000000  0.5532820000000 1.0
C      1  0.6522500000000  0.7642500000000  0.4810260000000 1.0
C      1  0.4757430000000  0.4740980000000  0.5486020000000 1.0
C      1  0.5913840000000  0.6978010000000  0.5042180000000 1.0
C      1  0.7072430000000  0.5554100000000  0.4460090000000 1.0
C      1  0.5598510000000  0.4638300000000  0.6227900000000 1.0
C      1  0.5305950000000  0.5230400000000  0.4662840000000 1.0
C      1  0.5546190000000  0.4996990000000  0.2978640000000 1.0
C      1  0.7394050000000  0.3896820000000  0.4662200000000 1.0
C      1  0.5660820000000  0.2773870000000  0.4494050000000 1.0
C      1  0.3779070000000  0.3080860000000  0.5393460000000 1.0
C      1  0.4576870000000  0.3958810000000  0.4803880000000 1.0
C      1  0.2961330000000  0.3511950000000  0.5234640000000 1.0
C      1  0.5997500000000  0.5565740000000  0.5921560000000 1.0
C      1  0.3100130000000  0.5625650000000  0.5039750000000 1.0
C      1  0.4428430000000  0.4783740000000  0.2958560000000 1.0
END
