TITL C-986978-6805-1175 0.0110231951619641 3375 -344.776064447359 0 0 60 (C1) n - 1
REM
REM in /home/bkarasulu/work/CARBON/AIRSS/Generating-Clusters/REBO/Higher-Symm/Only-C60
REM
REM
REM
REM
REM
REM ./C.cell (a2850807a9bf4ad07a5b6933b78d9264)
REM AIRSS Version 0.9.1 bugfix July 2018 build 013d7b7c2542+ Fri, 06 Jul 2018 19:26:36 +0100
REM compiler GCC version 9.2.1 20190827 (Red Hat 9.2.1-1)
REM options -cpp -mtune=generic -march=x86-64 -g -O0 -fpre-include=/usr/include/finclude/math-vector-fortran.h
REM seed 1379869149 -1446203244 493694917 1616380835 342503777 -1518264348 -37389840 1611246201 -1554290009 995197112 551584074 1977918047 -1657140633 -2007283468 1798429222 -1320850828 150955727 2044240080 -1744721821 -1229297500 -379392383 1945548472 -1356369640 1586023177 -2008875630 -833406552 1547188618 1384060175 -1420796419 2136646846 -12292746 711755991 -1163148343
REM
CELL 1.54180   15.00000   15.00000   15.00000   90.00000   90.00000   90.00000
LATT -1
SFAC C  
C      1  0.2968540000000  0.5456210000000  0.6159620000000 1.0
C      1  0.6272750000000  0.4929500000000  0.3622600000000 1.0
C      1  0.3766630000000  0.5935880000000  0.3428270000000 1.0
C      1  0.4960880000000  0.5503340000000  0.6079730000000 1.0
C      1  0.6476220000000  0.3174930000000  0.5504070000000 1.0
C      1  0.5814070000000  0.6285730000000  0.6873850000000 1.0
C      1  0.6144280000000  0.4153350000000  0.6804600000000 1.0
C      1  0.7148220000000  0.6065680000000  0.3765200000000 1.0
C      1  0.5149730000000  0.3042720000000  0.6392150000000 1.0
C      1  0.5882580000000  0.6703630000000  0.6057610000000 1.0
C      1  0.6650910000000  0.6424590000000  0.5628450000000 1.0
C      1  0.2752920000000  0.4591330000000  0.6333550000000 1.0
C      1  0.5852400000000  0.3755220000000  0.3153640000000 1.0
C      1  0.4842000000000  0.5941030000000  0.7712460000000 1.0
C      1  0.5611810000000  0.4136720000000  0.5182780000000 1.0
C      1  0.5561120000000  0.5905200000000  0.4184990000000 1.0
C      1  0.6087010000000  0.3286170000000  0.6393560000000 1.0
C      1  0.5346950000000  0.4480410000000  0.2777400000000 1.0
C      1  0.3393770000000  0.3744780000000  0.6332670000000 1.0
C      1  0.4442030000000  0.3936500000000  0.4332740000000 1.0
C      1  0.5270500000000  0.3270570000000  0.3928220000000 1.0
C      1  0.3844300000000  0.3077300000000  0.3886380000000 1.0
C      1  0.5176990000000  0.6889320000000  0.3833750000000 1.0
C      1  0.7328140000000  0.4540740000000  0.4883380000000 1.0
C      1  0.6758580000000  0.5358150000000  0.5246050000000 1.0
C      1  0.3814610000000  0.6909850000000  0.6620860000000 1.0
C      1  0.3870950000000  0.3273440000000  0.5463680000000 1.0
C      1  0.4994680000000  0.7476790000000  0.4518950000000 1.0
C      1  0.4979520000000  0.5519560000000  0.4934060000000 1.0
C      1  0.5918270000000  0.2924720000000  0.4730220000000 1.0
C      1  0.6794230000000  0.3707810000000  0.3546580000000 1.0
C      1  0.4413660000000  0.4260940000000  0.2740980000000 1.0
C      1  0.5110800000000  0.4619280000000  0.6781550000000 1.0
C      1  0.4441030000000  0.3377610000000  0.3126990000000 1.0
C      1  0.7445240000000  0.4391210000000  0.3931800000000 1.0
C      1  0.4749780000000  0.6225800000000  0.3190200000000 1.0
C      1  0.4859140000000  0.3431790000000  0.5490250000000 1.0
C      1  0.4030170000000  0.7493790000000  0.4862030000000 1.0
C      1  0.6078100000000  0.4237260000000  0.4360130000000 1.0
C      1  0.3249810000000  0.5703650000000  0.5218880000000 1.0
C      1  0.6017460000000  0.5281540000000  0.6853000000000 1.0
C      1  0.3353820000000  0.5989150000000  0.6800710000000 1.0
C      1  0.3823740000000  0.4992120000000  0.2900990000000 1.0
C      1  0.4401250000000  0.4633480000000  0.4959240000000 1.0
C      1  0.5057000000000  0.6989260000000  0.5534860000000 1.0
C      1  0.3331230000000  0.3296880000000  0.4698260000000 1.0
C      1  0.7286850000000  0.5204830000000  0.3328220000000 1.0
C      1  0.2729180000000  0.4015330000000  0.4623980000000 1.0
C      1  0.6518560000000  0.5988390000000  0.4421900000000 1.0
C      1  0.5462200000000  0.5436770000000  0.3153680000000 1.0
C      1  0.4462680000000  0.6012540000000  0.6866700000000 1.0
C      1  0.4087090000000  0.4520400000000  0.5848420000000 1.0
C      1  0.4068060000000  0.7383660000000  0.5880950000000 1.0
C      1  0.2758240000000  0.4889370000000  0.4600560000000 1.0
C      1  0.4251300000000  0.6238640000000  0.5225740000000 1.0
C      1  0.7223860000000  0.3733720000000  0.5354820000000 1.0
C      1  0.5903650000000  0.4945460000000  0.5763820000000 1.0
C      1  0.2905880000000  0.5854180000000  0.4137700000000 1.0
C      1  0.3655700000000  0.6617650000000  0.4341670000000 1.0
C      1  0.4448950000000  0.3834170000000  0.6689930000000 1.0
END
