TITL C-986979-5873-372 5.72848270622357e-06 3375 -342.919392207311 0 0 60 (C6) n - 1
REM
REM in /home/bkarasulu/work/CARBON/AIRSS/Generating-Clusters/REBO/Higher-Symm/Only-C60
REM
REM
REM
REM
REM
REM ./C.cell (a2850807a9bf4ad07a5b6933b78d9264)
REM AIRSS Version 0.9.1 bugfix July 2018 build 013d7b7c2542+ Fri, 06 Jul 2018 19:26:36 +0100
REM compiler GCC version 9.2.1 20190827 (Red Hat 9.2.1-1)
REM options -cpp -mtune=generic -march=x86-64 -g -O0 -fpre-include=/usr/include/finclude/math-vector-fortran.h
REM seed -1832003651 -1952208407 2046075951 1209865766 1454740172 -1444460225 816223275 -66691995 -339672242 902295900 507691446 -92660494 1886100396 -1877890283 -1044697669 9177559 1639567980 -565219473 1784862510 2021944905 288332789 2040237843 964564217 -786518527 -1211510562 -440958529 381451691 -59005094 -530525795 1685073385 1973217730 -1085846929 -1405106322
REM
CELL 1.54180   15.00000   15.00000   15.00000   90.00000   90.00000   90.00000
LATT -1
SFAC C  
C      1  0.6200460000000  0.3770670000000  0.3518630000000 1.0
C      1  0.6664860000000  0.5424960000000  0.3518630000000 1.0
C      1  0.5464400000000  0.6654290000000  0.3518630000000 1.0
C      1  0.3799540000000  0.6229330000000  0.3518630000000 1.0
C      1  0.3335140000000  0.4575040000000  0.3518630000000 1.0
C      1  0.4535600000000  0.3345710000000  0.3518630000000 1.0
C      1  0.5008080000000  0.7338020000000  0.4251380000000 1.0
C      1  0.2979260000000  0.6176010000000  0.4251380000000 1.0
C      1  0.2971180000000  0.3837990000000  0.4251380000000 1.0
C      1  0.4991920000000  0.2661980000000  0.4251380000000 1.0
C      1  0.7020740000000  0.3823990000000  0.4251380000000 1.0
C      1  0.7028820000000  0.6162010000000  0.4251380000000 1.0
C      1  0.3937970000000  0.4601570000000  0.6213900000000 1.0
C      1  0.4814030000000  0.3881040000000  0.6213900000000 1.0
C      1  0.5876070000000  0.4279470000000  0.6213900000000 1.0
C      1  0.6062030000000  0.5398430000000  0.6213900000000 1.0
C      1  0.5185970000000  0.6118960000000  0.6213900000000 1.0
C      1  0.4123930000000  0.5720530000000  0.6213900000000 1.0
C      1  0.3299750000000  0.7160190000000  0.5507010000000 1.0
C      1  0.2279090000000  0.4607640000000  0.5507010000000 1.0
C      1  0.3979340000000  0.2447450000000  0.5507010000000 1.0
C      1  0.6700250000000  0.2839810000000  0.5507010000000 1.0
C      1  0.7720910000000  0.5392360000000  0.5507010000000 1.0
C      1  0.6020660000000  0.7552550000000  0.5507010000000 1.0
C      1  0.4231130000000  0.7498970000000  0.5015370000000 1.0
C      1  0.2451400000000  0.5583620000000  0.5015370000000 1.0
C      1  0.3220270000000  0.3084660000000  0.5015370000000 1.0
C      1  0.5768870000000  0.2501030000000  0.5015370000000 1.0
C      1  0.7548600000000  0.4416380000000  0.5015370000000 1.0
C      1  0.6779730000000  0.6915340000000  0.5015370000000 1.0
C      1  0.2564970000000  0.3831090000000  0.5516700000000 1.0
C      1  0.4794790000000  0.2306750000000  0.5516700000000 1.0
C      1  0.7229820000000  0.3475660000000  0.5516700000000 1.0
C      1  0.7435030000000  0.6168910000000  0.5516700000000 1.0
C      1  0.5205210000000  0.7693250000000  0.5516700000000 1.0
C      1  0.2770180000000  0.6524340000000  0.5516700000000 1.0
C      1  0.6825800000000  0.5104500000000  0.4566390000000 1.0
C      1  0.5822400000000  0.6633440000000  0.4566390000000 1.0
C      1  0.3996600000000  0.6528940000000  0.4566390000000 1.0
C      1  0.3174200000000  0.4895500000000  0.4566390000000 1.0
C      1  0.4177600000000  0.3366560000000  0.4566390000000 1.0
C      1  0.6003400000000  0.3471060000000  0.4566390000000 1.0
C      1  0.5780930000000  0.5764280000000  0.2974260000000 1.0
C      1  0.4728570000000  0.6058450000000  0.2974260000000 1.0
C      1  0.3947650000000  0.5294160000000  0.2974260000000 1.0
C      1  0.4219070000000  0.4235720000000  0.2974260000000 1.0
C      1  0.5271430000000  0.3941550000000  0.2974260000000 1.0
C      1  0.6052350000000  0.4705840000000  0.2974260000000 1.0
C      1  0.3971260000000  0.4938240000000  0.5148790000000 1.0
C      1  0.4539120000000  0.4078210000000  0.5148790000000 1.0
C      1  0.5567850000000  0.4139970000000  0.5148790000000 1.0
C      1  0.6028740000000  0.5061760000000  0.5148790000000 1.0
C      1  0.5460880000000  0.5921790000000  0.5148790000000 1.0
C      1  0.4432150000000  0.5860030000000  0.5148790000000 1.0
C      1  0.4450240000000  0.5847320000000  0.7287580000000 1.0
C      1  0.3991320000000  0.4947550000000  0.7287580000000 1.0
C      1  0.4541080000000  0.4100230000000  0.7287580000000 1.0
C      1  0.5549760000000  0.4152680000000  0.7287580000000 1.0
C      1  0.6008680000000  0.5052450000000  0.7287580000000 1.0
C      1  0.5458920000000  0.5899770000000  0.7287580000000 1.0
END
