TITL C-986975-4297-973 0.0884307797560111 3375 -325.241789870598 0 0 60 (C4) n - 1
REM
REM in /home/bkarasulu/work/CARBON/AIRSS/Generating-Clusters/REBO/Higher-Symm/Only-C60
REM
REM
REM
REM
REM
REM ./C.cell (a2850807a9bf4ad07a5b6933b78d9264)
REM AIRSS Version 0.9.1 bugfix July 2018 build 013d7b7c2542+ Fri, 06 Jul 2018 19:26:36 +0100
REM compiler GCC version 9.2.1 20190827 (Red Hat 9.2.1-1)
REM options -cpp -mtune=generic -march=x86-64 -g -O0 -fpre-include=/usr/include/finclude/math-vector-fortran.h
REM seed -389193454 -324416182 -57457289 -1563834568 971634274 136905638 -2064481692 350289127 -2026732705 1612300205 -568562283 1511640812 9904065 -1296831973 1466125888 1454701817 1798813627 2060532598 -210970266 304951528 -1460527076 654037899 909164461 -541471081 -857011035 -1720564282 -240818805 -1780022874 439153115 -1303313480 246137196 -1019910454 3430604
REM
CELL 1.54180   15.00000   15.00000   15.00000   90.00000   90.00000   90.00000
LATT -1
SFAC C  
C      1  0.4248780000000  0.4729530000000  0.2522970000000 1.0
C      1  0.4729440000000  0.5751120000000  0.2522770000000 1.0
C      1  0.5751240000000  0.5270490000000  0.2522960000000 1.0
C      1  0.5270530000000  0.4248900000000  0.2522770000000 1.0
C      1  0.3944340000000  0.7024840000000  0.5476320000000 1.0
C      1  0.7024840000000  0.6055470000000  0.5476300000000 1.0
C      1  0.6055680000000  0.2975200000000  0.5476330000000 1.0
C      1  0.2975150000000  0.3944580000000  0.5476290000000 1.0
C      1  0.4477640000000  0.2722860000000  0.5496110000000 1.0
C      1  0.2722930000000  0.5522310000000  0.5496230000000 1.0
C      1  0.5522300000000  0.7276940000000  0.5496020000000 1.0
C      1  0.7277080000000  0.4477680000000  0.5496190000000 1.0
C      1  0.6100790000000  0.4794360000000  0.4975080000000 1.0
C      1  0.4794300000000  0.3899280000000  0.4974520000000 1.0
C      1  0.3899210000000  0.5205600000000  0.4975080000000 1.0
C      1  0.5205760000000  0.6100910000000  0.4974580000000 1.0
C      1  0.5721270000000  0.4952290000000  0.4004340000000 1.0
C      1  0.4951460000000  0.4278970000000  0.4004570000000 1.0
C      1  0.4278550000000  0.5047720000000  0.4004390000000 1.0
C      1  0.5048610000000  0.5721040000000  0.4004600000000 1.0
C      1  0.6420800000000  0.5135960000000  0.7044690000000 1.0
C      1  0.5135930000000  0.3579280000000  0.7044740000000 1.0
C      1  0.3579180000000  0.4864040000000  0.7044680000000 1.0
C      1  0.4864060000000  0.6420750000000  0.7044700000000 1.0
C      1  0.4346600000000  0.3184560000000  0.6304260000000 1.0
C      1  0.3184660000000  0.5653500000000  0.6304480000000 1.0
C      1  0.5653410000000  0.6815410000000  0.6304300000000 1.0
C      1  0.6815360000000  0.4346520000000  0.6304440000000 1.0
C      1  0.4282640000000  0.6049340000000  0.5427700000000 1.0
C      1  0.6049350000000  0.5717310000000  0.5427660000000 1.0
C      1  0.5717270000000  0.3950630000000  0.5427660000000 1.0
C      1  0.3950660000000  0.4282680000000  0.5427670000000 1.0
C      1  0.5069300000000  0.3231010000000  0.3740340000000 1.0
C      1  0.3230700000000  0.4930850000000  0.3739860000000 1.0
C      1  0.4930610000000  0.6769020000000  0.3740270000000 1.0
C      1  0.6769340000000  0.5069170000000  0.3739900000000 1.0
C      1  0.5959910000000  0.6110670000000  0.7099050000000 1.0
C      1  0.6110680000000  0.4040060000000  0.7099040000000 1.0
C      1  0.4040120000000  0.3889350000000  0.7099060000000 1.0
C      1  0.3889330000000  0.5959950000000  0.7099030000000 1.0
C      1  0.4260360000000  0.4868410000000  0.6229660000000 1.0
C      1  0.4868450000000  0.5739730000000  0.6229640000000 1.0
C      1  0.5739660000000  0.5131580000000  0.6229670000000 1.0
C      1  0.5131520000000  0.4260250000000  0.6229670000000 1.0
C      1  0.7647620000000  0.5369450000000  0.5445280000000 1.0
C      1  0.5369460000000  0.2352380000000  0.5445390000000 1.0
C      1  0.2352390000000  0.4630560000000  0.5445250000000 1.0
C      1  0.4630520000000  0.7647610000000  0.5445360000000 1.0
C      1  0.6867800000000  0.4191290000000  0.4478910000000 1.0
C      1  0.4191570000000  0.3132420000000  0.4478610000000 1.0
C      1  0.3132150000000  0.5808840000000  0.4478970000000 1.0
C      1  0.5808400000000  0.6867700000000  0.4478810000000 1.0
C      1  0.3886320000000  0.6338100000000  0.3797390000000 1.0
C      1  0.6338300000000  0.6114590000000  0.3797450000000 1.0
C      1  0.6113830000000  0.3661860000000  0.3797380000000 1.0
C      1  0.3661740000000  0.3885070000000  0.3797530000000 1.0
C      1  0.6297470000000  0.4380530000000  0.2958260000000 1.0
C      1  0.4380250000000  0.3702340000000  0.2958320000000 1.0
C      1  0.3702570000000  0.5619450000000  0.2958170000000 1.0
C      1  0.5619730000000  0.6297740000000  0.2958320000000 1.0
END
