TITL C-986973-6940-1114 0.0153935834524041 3375 -336.916469266281 0 0 60 (Ci) n - 1
REM
REM in /home/bkarasulu/work/CARBON/AIRSS/Generating-Clusters/REBO/Higher-Symm/Only-C60
REM
REM
REM
REM
REM
REM ./C.cell (a2850807a9bf4ad07a5b6933b78d9264)
REM AIRSS Version 0.9.1 bugfix July 2018 build 013d7b7c2542+ Fri, 06 Jul 2018 19:26:36 +0100
REM compiler GCC version 9.2.1 20190827 (Red Hat 9.2.1-1)
REM options -cpp -mtune=generic -march=x86-64 -g -O0 -fpre-include=/usr/include/finclude/math-vector-fortran.h
REM seed -1081444679 1888951387 -2095259326 1811674982 1693086642 180117402 1072392762 -1869350969 1337447920 1034481809 995354460 586731759 -33244115 -2069715309 1208530299 941740377 1871821795 -148911761 464551331 -1019634953 -516397335 270305229 1929161299 -1434576319 -1266557217 -820058575 288536214 1719761585 1862670614 1651366940 -729514514 -1468363013 882280756
REM
CELL 1.54180   15.00000   15.00000   15.00000   90.00000   90.00000   90.00000
LATT -1
SFAC C  
C      1  0.4655890000000  0.5186650000000  0.2685900000000 1.0
C      1  0.5343560000000  0.4813500000000  0.7314570000000 1.0
C      1  0.7132910000000  0.3617930000000  0.4201980000000 1.0
C      1  0.2867240000000  0.6382600000000  0.5797120000000 1.0
C      1  0.6223800000000  0.5269990000000  0.6814620000000 1.0
C      1  0.3775720000000  0.4729270000000  0.3185360000000 1.0
C      1  0.4175550000000  0.3768500000000  0.5118840000000 1.0
C      1  0.5824760000000  0.6231530000000  0.4881270000000 1.0
C      1  0.6488830000000  0.4371480000000  0.5085340000000 1.0
C      1  0.3510980000000  0.5628670000000  0.4914520000000 1.0
C      1  0.2549770000000  0.5415290000000  0.5412830000000 1.0
C      1  0.7450160000000  0.4585130000000  0.4587190000000 1.0
C      1  0.4319030000000  0.6795200000000  0.5066740000000 1.0
C      1  0.5681380000000  0.3205000000000  0.4933030000000 1.0
C      1  0.2629670000000  0.3207260000000  0.5568950000000 1.0
C      1  0.7371610000000  0.6793260000000  0.4432890000000 1.0
C      1  0.5003170000000  0.6377540000000  0.5490490000000 1.0
C      1  0.4997440000000  0.3622810000000  0.4508980000000 1.0
C      1  0.4895690000000  0.3976040000000  0.3651520000000 1.0
C      1  0.5103940000000  0.6023620000000  0.6348020000000 1.0
C      1  0.6264610000000  0.5112070000000  0.4312020000000 1.0
C      1  0.3735310000000  0.4888060000000  0.5687880000000 1.0
C      1  0.6205460000000  0.3592420000000  0.5843330000000 1.0
C      1  0.3794740000000  0.6407470000000  0.4156290000000 1.0
C      1  0.4402660000000  0.3322920000000  0.6069990000000 1.0
C      1  0.5598050000000  0.6677210000000  0.3930110000000 1.0
C      1  0.6276860000000  0.3159680000000  0.3717360000000 1.0
C      1  0.3722690000000  0.6841030000000  0.6281840000000 1.0
C      1  0.6446710000000  0.6884850000000  0.5859800000000 1.0
C      1  0.3553040000000  0.3114880000000  0.4140910000000 1.0
C      1  0.3591150000000  0.3970810000000  0.6294680000000 1.0
C      1  0.6408920000000  0.6028850000000  0.3705260000000 1.0
C      1  0.6877940000000  0.6308630000000  0.5061380000000 1.0
C      1  0.3122410000000  0.3691420000000  0.4939380000000 1.0
C      1  0.2697750000000  0.4606260000000  0.4686490000000 1.0
C      1  0.7302380000000  0.5393590000000  0.5314130000000 1.0
C      1  0.2871590000000  0.4862590000000  0.3814080000000 1.0
C      1  0.7128400000000  0.5137000000000  0.6186480000000 1.0
C      1  0.3822140000000  0.5083260000000  0.6759480000000 1.0
C      1  0.6177300000000  0.4916550000000  0.3240470000000 1.0
C      1  0.4102300000000  0.5326600000000  0.4014540000000 1.0
C      1  0.5897740000000  0.4673180000000  0.5985240000000 1.0
C      1  0.6719620000000  0.3067860000000  0.4965270000000 1.0
C      1  0.3280740000000  0.6932330000000  0.5033730000000 1.0
C      1  0.6061460000000  0.6324970000000  0.6722230000000 1.0
C      1  0.3938550000000  0.3674400000000  0.3278040000000 1.0
C      1  0.5294640000000  0.4539150000000  0.3058950000000 1.0
C      1  0.4704720000000  0.5460630000000  0.6941150000000 1.0
C      1  0.4983190000000  0.6712670000000  0.3246550000000 1.0
C      1  0.5017330000000  0.3287740000000  0.6753810000000 1.0
C      1  0.3880090000000  0.4163370000000  0.7349070000000 1.0
C      1  0.6119740000000  0.5836340000000  0.2650800000000 1.0
C      1  0.5450050000000  0.5183510000000  0.5105840000000 1.0
C      1  0.4549910000000  0.4816730000000  0.4894340000000 1.0
C      1  0.5444750000000  0.2762560000000  0.3596220000000 1.0
C      1  0.4554930000000  0.7237590000000  0.6402510000000 1.0
C      1  0.5517730000000  0.7280520000000  0.6375120000000 1.0
C      1  0.4481620000000  0.2718800000000  0.3624920000000 1.0
C      1  0.5126730000000  0.6026650000000  0.2563910000000 1.0
C      1  0.4872940000000  0.3973570000000  0.7436230000000 1.0
END
