TITL C-986972-3822-5 -1.25093575379293e-06 3375 -410.523898574978 0 0 60 (Ih) n - 1
REM
REM in /home/bkarasulu/work/CARBON/AIRSS/Generating-Clusters/REBO/Higher-Symm/Only-C60
REM
REM
REM
REM
REM
REM ./C.cell (a2850807a9bf4ad07a5b6933b78d9264)
REM AIRSS Version 0.9.1 bugfix July 2018 build 013d7b7c2542+ Fri, 06 Jul 2018 19:26:36 +0100
REM compiler GCC version 9.2.1 20190827 (Red Hat 9.2.1-1)
REM options -cpp -mtune=generic -march=x86-64 -g -O0 -fpre-include=/usr/include/finclude/math-vector-fortran.h
REM seed -837915219 970083945 638198737 1433079828 737868415 1841521845 788240071 -1854651967 908317362 1260011650 929948551 -1398033382 -458304971 -1502909547 376866949 254087618 2021724859 607889398 458684255 -1606904188 -2018231339 393663227 -1043361884 294714422 -1563474864 1843693368 -1467987430 -522182755 641107977 -1934783875 1190612463 1582163521 -1850900288
REM
CELL 1.54180   15.00000   15.00000   15.00000   90.00000   90.00000   90.00000
LATT -1
SFAC C  
C      1  0.4511010000000  0.6560880000000  0.6755880000000 1.0
C      1  0.6755880000000  0.4511010000000  0.6560880000000 1.0
C      1  0.6560880000000  0.6755880000000  0.4511010000000 1.0
C      1  0.4511010000000  0.3439120000000  0.3244120000000 1.0
C      1  0.5488990000000  0.3439120000000  0.6755880000000 1.0
C      1  0.5488990000000  0.6560880000000  0.3244120000000 1.0
C      1  0.6755880000000  0.5488990000000  0.3439120000000 1.0
C      1  0.3244120000000  0.5488990000000  0.6560880000000 1.0
C      1  0.3244120000000  0.4511010000000  0.3439120000000 1.0
C      1  0.6560880000000  0.3244120000000  0.5488990000000 1.0
C      1  0.3439120000000  0.3244120000000  0.4511010000000 1.0
C      1  0.3439120000000  0.6755880000000  0.5488990000000 1.0
C      1  0.5488990000000  0.6560880000000  0.6755880000000 1.0
C      1  0.3244120000000  0.4511010000000  0.6560880000000 1.0
C      1  0.3439120000000  0.6755880000000  0.4511010000000 1.0
C      1  0.5488990000000  0.3439120000000  0.3244120000000 1.0
C      1  0.4511010000000  0.3439120000000  0.6755880000000 1.0
C      1  0.4511010000000  0.6560880000000  0.3244120000000 1.0
C      1  0.3244120000000  0.5488990000000  0.3439120000000 1.0
C      1  0.6755880000000  0.5488990000000  0.6560880000000 1.0
C      1  0.6755880000000  0.4511010000000  0.3439120000000 1.0
C      1  0.3439120000000  0.3244120000000  0.5488990000000 1.0
C      1  0.6560880000000  0.3244120000000  0.4511010000000 1.0
C      1  0.6560880000000  0.6755880000000  0.5488990000000 1.0
C      1  0.4208790000000  0.7049870000000  0.4035330000000 1.0
C      1  0.4035330000000  0.4208790000000  0.7049870000000 1.0
C      1  0.7049870000000  0.4035330000000  0.4208790000000 1.0
C      1  0.4208790000000  0.2950130000000  0.5964670000000 1.0
C      1  0.5791210000000  0.2950130000000  0.4035330000000 1.0
C      1  0.5791210000000  0.7049870000000  0.5964670000000 1.0
C      1  0.4035330000000  0.5791210000000  0.2950130000000 1.0
C      1  0.5964670000000  0.5791210000000  0.7049870000000 1.0
C      1  0.5964670000000  0.4208790000000  0.2950130000000 1.0
C      1  0.7049870000000  0.5964670000000  0.5791210000000 1.0
C      1  0.2950130000000  0.5964670000000  0.4208790000000 1.0
C      1  0.2950130000000  0.4035330000000  0.5791210000000 1.0
C      1  0.5791210000000  0.7049870000000  0.4035330000000 1.0
C      1  0.5964670000000  0.4208790000000  0.7049870000000 1.0
C      1  0.2950130000000  0.4035330000000  0.4208790000000 1.0
C      1  0.5791210000000  0.2950130000000  0.5964670000000 1.0
C      1  0.4208790000000  0.2950130000000  0.4035330000000 1.0
C      1  0.4208790000000  0.7049870000000  0.5964670000000 1.0
C      1  0.5964670000000  0.5791210000000  0.2950130000000 1.0
C      1  0.4035330000000  0.5791210000000  0.7049870000000 1.0
C      1  0.4035330000000  0.4208790000000  0.2950130000000 1.0
C      1  0.2950130000000  0.5964670000000  0.5791210000000 1.0
C      1  0.7049870000000  0.5964670000000  0.4208790000000 1.0
C      1  0.7049870000000  0.4035330000000  0.5791210000000 1.0
C      1  0.5000000000000  0.7352080000000  0.5475680000000 1.0
C      1  0.5475680000000  0.5000000000000  0.7352080000000 1.0
C      1  0.7352080000000  0.5475680000000  0.5000000000000 1.0
C      1  0.5000000000000  0.2647920000000  0.4524320000000 1.0
C      1  0.5000000000000  0.2647920000000  0.5475680000000 1.0
C      1  0.5000000000000  0.7352080000000  0.4524320000000 1.0
C      1  0.5475680000000  0.5000000000000  0.2647920000000 1.0
C      1  0.4524320000000  0.5000000000000  0.7352080000000 1.0
C      1  0.4524320000000  0.5000000000000  0.2647920000000 1.0
C      1  0.7352080000000  0.4524320000000  0.5000000000000 1.0
C      1  0.2647920000000  0.4524320000000  0.5000000000000 1.0
C      1  0.2647920000000  0.5475680000000  0.5000000000000 1.0
END
