TITL C-986975-4297-18 -7.96241833338248e-06 3375 -335.93896858577 0 0 60 (C1) n - 1
REM
REM in /home/bkarasulu/work/CARBON/AIRSS/Generating-Clusters/REBO/Higher-Symm/Only-C60
REM
REM
REM
REM
REM
REM ./C.cell (a2850807a9bf4ad07a5b6933b78d9264)
REM AIRSS Version 0.9.1 bugfix July 2018 build 013d7b7c2542+ Fri, 06 Jul 2018 19:26:36 +0100
REM compiler GCC version 9.2.1 20190827 (Red Hat 9.2.1-1)
REM options -cpp -mtune=generic -march=x86-64 -g -O0 -fpre-include=/usr/include/finclude/math-vector-fortran.h
REM seed 670447562 427368669 -47175576 1527497834 954317227 1681616091 1356169891 -32002580 1799664149 1638154755 91347022 -1509121394 -624469314 -2056635101 164310752 -1226567504 591500623 -1601348790 -1373727978 -1500009387 -1861527755 1904265130 -354732676 -284497999 2115009180 -1378011431 -1702157158 -935923942 962085511 -1310344285 -1074556498 -1083191969 1763079119
REM
CELL 1.54180   15.00000   15.00000   15.00000   90.00000   90.00000   90.00000
LATT -1
SFAC C  
C      1  0.3526240000000  0.6023090000000  0.3662830000000 1.0
C      1  0.3509720000000  0.5936050000000  0.6229120000000 1.0
C      1  0.3697620000000  0.3165770000000  0.6417550000000 1.0
C      1  0.3517150000000  0.3257380000000  0.3500810000000 1.0
C      1  0.3576670000000  0.4967190000000  0.3678210000000 1.0
C      1  0.3583190000000  0.4873390000000  0.6300480000000 1.0
C      1  0.4180040000000  0.6434330000000  0.4441750000000 1.0
C      1  0.4229960000000  0.6264000000000  0.5423800000000 1.0
C      1  0.5888860000000  0.5628780000000  0.4238220000000 1.0
C      1  0.5971640000000  0.5603690000000  0.5833750000000 1.0
C      1  0.5588080000000  0.6483760000000  0.6755610000000 1.0
C      1  0.5627510000000  0.6460750000000  0.3232140000000 1.0
C      1  0.4268460000000  0.5303670000000  0.4498990000000 1.0
C      1  0.4366520000000  0.5166280000000  0.5571640000000 1.0
C      1  0.3062000000000  0.4047490000000  0.6104510000000 1.0
C      1  0.2972210000000  0.4188850000000  0.3850350000000 1.0
C      1  0.2863260000000  0.6277210000000  0.4531660000000 1.0
C      1  0.2900470000000  0.6239950000000  0.5358730000000 1.0
C      1  0.4280340000000  0.4618120000000  0.7029990000000 1.0
C      1  0.4222620000000  0.4677700000000  0.2931580000000 1.0
C      1  0.4970560000000  0.5394560000000  0.2798830000000 1.0
C      1  0.4989040000000  0.5363910000000  0.7139470000000 1.0
C      1  0.2890090000000  0.3253140000000  0.4444920000000 1.0
C      1  0.3157190000000  0.3186910000000  0.5416820000000 1.0
C      1  0.6089310000000  0.5574200000000  0.2867490000000 1.0
C      1  0.6081830000000  0.5661960000000  0.7214560000000 1.0
C      1  0.7230260000000  0.4715540000000  0.5652740000000 1.0
C      1  0.7080340000000  0.4641630000000  0.4565590000000 1.0
C      1  0.3908990000000  0.2734000000000  0.4417570000000 1.0
C      1  0.4194920000000  0.2728290000000  0.5513230000000 1.0
C      1  0.4473830000000  0.6276070000000  0.6728240000000 1.0
C      1  0.4499720000000  0.6352180000000  0.3161720000000 1.0
C      1  0.6077650000000  0.4204000000000  0.4493970000000 1.0
C      1  0.6246730000000  0.4330080000000  0.5552200000000 1.0
C      1  0.4561590000000  0.3127150000000  0.2131130000000 1.0
C      1  0.4601610000000  0.3095130000000  0.7886740000000 1.0
C      1  0.6726390000000  0.6383610000000  0.5515850000000 1.0
C      1  0.6711210000000  0.6356130000000  0.4518590000000 1.0
C      1  0.4700790000000  0.7056590000000  0.5936070000000 1.0
C      1  0.4736750000000  0.7147110000000  0.3946240000000 1.0
C      1  0.7273200000000  0.5604150000000  0.4087000000000 1.0
C      1  0.7357460000000  0.5733020000000  0.6012730000000 1.0
C      1  0.5202830000000  0.3893040000000  0.6396970000000 1.0
C      1  0.5020840000000  0.3933300000000  0.3691440000000 1.0
C      1  0.4915750000000  0.3098340000000  0.4460850000000 1.0
C      1  0.5191380000000  0.3109530000000  0.5568140000000 1.0
C      1  0.5687480000000  0.4541380000000  0.3087210000000 1.0
C      1  0.5822890000000  0.4581530000000  0.6992920000000 1.0
C      1  0.5284250000000  0.4867270000000  0.5818570000000 1.0
C      1  0.5209480000000  0.4897980000000  0.4268480000000 1.0
C      1  0.6691140000000  0.4858880000000  0.3508430000000 1.0
C      1  0.6820160000000  0.5016230000000  0.6674160000000 1.0
C      1  0.5439600000000  0.7493040000000  0.5451220000000 1.0
C      1  0.5468620000000  0.7521040000000  0.4489470000000 1.0
C      1  0.4283970000000  0.3625090000000  0.2956160000000 1.0
C      1  0.4398420000000  0.3569720000000  0.7025820000000 1.0
C      1  0.6163640000000  0.3345100000000  0.5669290000000 1.0
C      1  0.5936880000000  0.3256920000000  0.4359770000000 1.0
C      1  0.6048760000000  0.6920270000000  0.3954030000000 1.0
C      1  0.6021900000000  0.6934550000000  0.6033640000000 1.0
END
