TITL C-986975-4297-1130 -1.31857529088805e-05 3375 -346.80228420607 0 0 60 (C1) n - 1
REM
REM in /home/bkarasulu/work/CARBON/AIRSS/Generating-Clusters/REBO/Higher-Symm/Only-C60
REM
REM
REM
REM
REM
REM ./C.cell (a2850807a9bf4ad07a5b6933b78d9264)
REM AIRSS Version 0.9.1 bugfix July 2018 build 013d7b7c2542+ Fri, 06 Jul 2018 19:26:36 +0100
REM compiler GCC version 9.2.1 20190827 (Red Hat 9.2.1-1)
REM options -cpp -mtune=generic -march=x86-64 -g -O0 -fpre-include=/usr/include/finclude/math-vector-fortran.h
REM seed 1761517618 1404439205 1220369022 -751612082 -1422057264 1878047260 1660010801 867018173 162072836 1048714140 -1696089751 -1755881249 -1277128094 1844137907 -205569880 951341754 1463629971 -449454487 -157089663 -1987123206 -158409316 -1140267772 848733338 -58663883 -392902599 -2084609602 -1993292307 -2122247222 -2109658677 -1464602643 1130980452 -1398518856 -212509763
REM
CELL 1.54180   15.00000   15.00000   15.00000   90.00000   90.00000   90.00000
LATT -1
SFAC C  
C      1  0.4226960000000  0.7170540000000  0.6064710000000 1.0
C      1  0.3139150000000  0.5102950000000  0.3612380000000 1.0
C      1  0.4230880000000  0.5033970000000  0.2440010000000 1.0
C      1  0.5945540000000  0.6701500000000  0.6715420000000 1.0
C      1  0.4216720000000  0.7160820000000  0.4947650000000 1.0
C      1  0.4557550000000  0.3903620000000  0.7322000000000 1.0
C      1  0.5520810000000  0.5160210000000  0.6950320000000 1.0
C      1  0.6116960000000  0.5881270000000  0.4255410000000 1.0
C      1  0.5909550000000  0.4891920000000  0.2665510000000 1.0
C      1  0.4830530000000  0.6571480000000  0.6614310000000 1.0
C      1  0.3733410000000  0.6527100000000  0.4138640000000 1.0
C      1  0.6820110000000  0.3687490000000  0.5912840000000 1.0
C      1  0.5430140000000  0.4443520000000  0.6089800000000 1.0
C      1  0.4043370000000  0.3759630000000  0.3408900000000 1.0
C      1  0.4819840000000  0.2339550000000  0.5728550000000 1.0
C      1  0.4162850000000  0.5685290000000  0.6851650000000 1.0
C      1  0.3886100000000  0.4515240000000  0.4702900000000 1.0
C      1  0.5815150000000  0.7551520000000  0.5128900000000 1.0
C      1  0.3247900000000  0.5230400000000  0.5247870000000 1.0
C      1  0.6003320000000  0.4572920000000  0.5112890000000 1.0
C      1  0.5463310000000  0.2829060000000  0.6227910000000 1.0
C      1  0.6559880000000  0.3455650000000  0.4059470000000 1.0
C      1  0.6449560000000  0.6623600000000  0.5034710000000 1.0
C      1  0.4257750000000  0.6094630000000  0.5279140000000 1.0
C      1  0.4701650000000  0.4990440000000  0.7569220000000 1.0
C      1  0.3487480000000  0.3555210000000  0.5013850000000 1.0
C      1  0.5169600000000  0.6025510000000  0.3904650000000 1.0
C      1  0.4117460000000  0.6544960000000  0.3274220000000 1.0
C      1  0.2902500000000  0.3831360000000  0.5810360000000 1.0
C      1  0.4526320000000  0.5445470000000  0.4435190000000 1.0
C      1  0.6607200000000  0.2432860000000  0.3840510000000 1.0
C      1  0.6480600000000  0.5114330000000  0.3622120000000 1.0
C      1  0.5058160000000  0.7585940000000  0.4589210000000 1.0
C      1  0.4978170000000  0.4493490000000  0.4843860000000 1.0
C      1  0.6231490000000  0.2992940000000  0.5670890000000 1.0
C      1  0.4061320000000  0.5968900000000  0.2449410000000 1.0
C      1  0.7070150000000  0.5330960000000  0.6574840000000 1.0
C      1  0.6049980000000  0.5642460000000  0.5352460000000 1.0
C      1  0.3365850000000  0.6639540000000  0.5822430000000 1.0
C      1  0.6051710000000  0.5901810000000  0.2913830000000 1.0
C      1  0.5978020000000  0.2775500000000  0.4696510000000 1.0
C      1  0.6523810000000  0.4343450000000  0.4269720000000 1.0
C      1  0.5302770000000  0.5761950000000  0.6035350000000 1.0
C      1  0.4545230000000  0.5082230000000  0.5709160000000 1.0
C      1  0.5193170000000  0.6520080000000  0.2879520000000 1.0
C      1  0.3226760000000  0.5716450000000  0.4343260000000 1.0
C      1  0.5097430000000  0.4689260000000  0.2262830000000 1.0
C      1  0.3014980000000  0.4259770000000  0.6503780000000 1.0
C      1  0.5187980000000  0.7153160000000  0.3772820000000 1.0
C      1  0.4221760000000  0.3339090000000  0.4172360000000 1.0
C      1  0.6916250000000  0.1757900000000  0.3340970000000 1.0
C      1  0.6322310000000  0.5828790000000  0.6888310000000 1.0
C      1  0.3739390000000  0.4647770000000  0.7072050000000 1.0
C      1  0.4946730000000  0.2614950000000  0.4631910000000 1.0
C      1  0.3948150000000  0.2601280000000  0.5203710000000 1.0
C      1  0.3317570000000  0.5657040000000  0.6099280000000 1.0
C      1  0.5148620000000  0.3618210000000  0.6633670000000 1.0
C      1  0.6306020000000  0.7191230000000  0.5998930000000 1.0
C      1  0.7113700000000  0.4489000000000  0.6215640000000 1.0
C      1  0.3702390000000  0.4562860000000  0.3071240000000 1.0
END
