TITL C-986974-580-836 4.70028490549039e-06 3375 -340.482336561823 0 0 60 (C5) n - 1
REM
REM in /home/bkarasulu/work/CARBON/AIRSS/Generating-Clusters/REBO/Higher-Symm/Only-C60
REM
REM
REM
REM
REM
REM ./C.cell (a2850807a9bf4ad07a5b6933b78d9264)
REM AIRSS Version 0.9.1 bugfix July 2018 build 013d7b7c2542+ Fri, 06 Jul 2018 19:26:36 +0100
REM compiler GCC version 9.2.1 20190827 (Red Hat 9.2.1-1)
REM options -cpp -mtune=generic -march=x86-64 -g -O0 -fpre-include=/usr/include/finclude/math-vector-fortran.h
REM seed -570748158 -953998438 -487083697 592546101 548426678 239241932 1479560662 -768923365 -1773103276 1850955643 -2137077395 138950394 1386878637 -1277313548 816712274 1273727437 398381315 -1314537784 1202032528 817962986 626118636 -135994819 -727936154 1345262129 -1556359367 571564917 -1158507316 -636803209 1406779699 -865582093 1307621974 490714430 -589397906
REM
CELL 1.54180   15.00000   15.00000   15.00000   90.00000   90.00000   90.00000
LATT -1
SFAC C  
C      1  0.5127670000000  0.7185990000000  0.3464820000000 1.0
C      1  0.5127610000000  0.4215460000000  0.2446600000000 1.0
C      1  0.5127560000000  0.2329130000000  0.4957090000000 1.0
C      1  0.5127600000000  0.4133850000000  0.7526890000000 1.0
C      1  0.5127660000000  0.7135550000000  0.6604610000000 1.0
C      1  0.3175230000000  0.3319780000000  0.4989290000000 1.0
C      1  0.3175250000000  0.4470630000000  0.6594710000000 1.0
C      1  0.3175290000000  0.6353100000000  0.5996290000000 1.0
C      1  0.3175300000000  0.6365690000000  0.4021030000000 1.0
C      1  0.3175260000000  0.4490990000000  0.3398670000000 1.0
C      1  0.6732470000000  0.4810160000000  0.7930360000000 1.0
C      1  0.6732530000000  0.7728250000000  0.6086040000000 1.0
C      1  0.6732520000000  0.6875940000000  0.2740860000000 1.0
C      1  0.6732440000000  0.3431090000000  0.2517730000000 1.0
C      1  0.6732410000000  0.2154370000000  0.5725020000000 1.0
C      1  0.3572640000000  0.5456820000000  0.6498570000000 1.0
C      1  0.3572670000000  0.6566410000000  0.5028650000000 1.0
C      1  0.3572650000000  0.5511320000000  0.3519140000000 1.0
C      1  0.3572610000000  0.3749650000000  0.4056120000000 1.0
C      1  0.3572610000000  0.3715960000000  0.5897510000000 1.0
C      1  0.4541040000000  0.5488070000000  0.6580240000000 1.0
C      1  0.4541070000000  0.6653720000000  0.5024150000000 1.0
C      1  0.4541050000000  0.5534000000000  0.3434690000000 1.0
C      1  0.4541010000000  0.3676320000000  0.4008430000000 1.0
C      1  0.4541000000000  0.3647930000000  0.5952490000000 1.0
C      1  0.6894850000000  0.4458740000000  0.4367330000000 1.0
C      1  0.6894850000000  0.4231010000000  0.5319230000000 1.0
C      1  0.6894860000000  0.5065940000000  0.5829960000000 1.0
C      1  0.6894880000000  0.5809690000000  0.5193720000000 1.0
C      1  0.6894870000000  0.5434420000000  0.4289770000000 1.0
C      1  0.4971010000000  0.3383330000000  0.6935710000000 1.0
C      1  0.4971070000000  0.6341390000000  0.7135710000000 1.0
C      1  0.4971100000000  0.7445700000000  0.4384230000000 1.0
C      1  0.4971050000000  0.5170130000000  0.2483720000000 1.0
C      1  0.4970990000000  0.2659450000000  0.4060620000000 1.0
C      1  0.5010960000000  0.3299040000000  0.3114830000000 1.0
C      1  0.5010940000000  0.2681470000000  0.6035160000000 1.0
C      1  0.5011000000000  0.5268030000000  0.7524930000000 1.0
C      1  0.5011050000000  0.7484180000000  0.5525330000000 1.0
C      1  0.5011030000000  0.6267280000000  0.2799740000000 1.0
C      1  0.6002020000000  0.6526390000000  0.3173290000000 1.0
C      1  0.6001960000000  0.3734360000000  0.2983810000000 1.0
C      1  0.6001930000000  0.2691370000000  0.5580640000000 1.0
C      1  0.6001980000000  0.4838800000000  0.7375040000000 1.0
C      1  0.6002030000000  0.7208970000000  0.5887220000000 1.0
C      1  0.6137190000000  0.3698960000000  0.5535410000000 1.0
C      1  0.6137220000000  0.5107140000000  0.6402790000000 1.0
C      1  0.6137250000000  0.6367220000000  0.5331570000000 1.0
C      1  0.6137240000000  0.5737820000000  0.3802130000000 1.0
C      1  0.6137200000000  0.4088740000000  0.3928110000000 1.0
C      1  0.2622380000000  0.4327210000000  0.5618630000000 1.0
C      1  0.2622410000000  0.5380480000000  0.5831080000000 1.0
C      1  0.2622420000000  0.5908020000000  0.4895000000000 1.0
C      1  0.2622400000000  0.5180770000000  0.4104030000000 1.0
C      1  0.2622380000000  0.4203780000000  0.4551250000000 1.0
C      1  0.5212450000000  0.4235630000000  0.5454940000000 1.0
C      1  0.5212470000000  0.5196460000000  0.5867540000000 1.0
C      1  0.5212480000000  0.5885790000000  0.5081230000000 1.0
C      1  0.5212470000000  0.5350980000000  0.4182660000000 1.0
C      1  0.5212450000000  0.4331120000000  0.4413630000000 1.0
END
