TITL C-986976-6631-243 -1.09317024565894e-06 3375 -339.996214087772 0 0 60 (C2) n - 1
REM
REM in /home/bkarasulu/work/CARBON/AIRSS/Generating-Clusters/REBO/Higher-Symm/Only-C60
REM
REM
REM
REM
REM
REM ./C.cell (a2850807a9bf4ad07a5b6933b78d9264)
REM AIRSS Version 0.9.1 bugfix July 2018 build 013d7b7c2542+ Fri, 06 Jul 2018 19:26:36 +0100
REM compiler GCC version 9.2.1 20190827 (Red Hat 9.2.1-1)
REM options -cpp -mtune=generic -march=x86-64 -g -O0 -fpre-include=/usr/include/finclude/math-vector-fortran.h
REM seed -260116444 -633357981 178401044 1086427634 -1837349618 2104823171 1089095928 -569987970 -851539772 -1468675359 -369367406 -552493348 1390025504 -1873537383 -968428123 -2020582683 -1157397090 1472504390 1940557607 -1564330519 -1700773094 1870219341 -2145381532 -127608530 371648162 -2087498188 -1510182900 967738418 -1554304013 93003974 475374795 1265740738 -54675915
REM
CELL 1.54180   15.00000   15.00000   15.00000   90.00000   90.00000   90.00000
LATT -1
SFAC C  
C      1  0.3945330000000  0.6186600000000  0.3539740000000 1.0
C      1  0.3797860000000  0.3936660000000  0.6474310000000 1.0
C      1  0.6054680000000  0.3813400000000  0.3539740000000 1.0
C      1  0.6202140000000  0.6063340000000  0.6474320000000 1.0
C      1  0.5436830000000  0.3198240000000  0.6660020000000 1.0
C      1  0.6813160000000  0.5442500000000  0.3314880000000 1.0
C      1  0.4563160000000  0.6801760000000  0.6660030000000 1.0
C      1  0.3186850000000  0.4557510000000  0.3314870000000 1.0
C      1  0.3384930000000  0.2794190000000  0.4934320000000 1.0
C      1  0.7202460000000  0.3422830000000  0.5060720000000 1.0
C      1  0.6615070000000  0.7205810000000  0.4934340000000 1.0
C      1  0.2797540000000  0.6577170000000  0.5060710000000 1.0
C      1  0.3057990000000  0.5690430000000  0.3329280000000 1.0
C      1  0.4306390000000  0.3052230000000  0.6668280000000 1.0
C      1  0.6942020000000  0.4309570000000  0.3329290000000 1.0
C      1  0.5693600000000  0.6947760000000  0.6668290000000 1.0
C      1  0.4414630000000  0.5484630000000  0.6612020000000 1.0
C      1  0.4503160000000  0.4406690000000  0.3392470000000 1.0
C      1  0.5585370000000  0.4515370000000  0.6612020000000 1.0
C      1  0.5496850000000  0.5593320000000  0.3392480000000 1.0
C      1  0.2771940000000  0.3360360000000  0.5383900000000 1.0
C      1  0.6635280000000  0.2795300000000  0.4631760000000 1.0
C      1  0.7228060000000  0.6639640000000  0.5383920000000 1.0
C      1  0.3364720000000  0.7204700000000  0.4631760000000 1.0
C      1  0.3856910000000  0.4984070000000  0.4128680000000 1.0
C      1  0.5021130000000  0.3883430000000  0.5851790000000 1.0
C      1  0.6143090000000  0.5015940000000  0.4128690000000 1.0
C      1  0.4978870000000  0.6116570000000  0.5851790000000 1.0
C      1  0.3184780000000  0.5888960000000  0.5569540000000 1.0
C      1  0.4078730000000  0.3177700000000  0.4430880000000 1.0
C      1  0.6815220000000  0.4111040000000  0.5569550000000 1.0
C      1  0.5921270000000  0.6822300000000  0.4430890000000 1.0
C      1  0.5683080000000  0.5336900000000  0.6991770000000 1.0
C      1  0.4671690000000  0.5674480000000  0.3018950000000 1.0
C      1  0.4316910000000  0.4663090000000  0.6991760000000 1.0
C      1  0.5328320000000  0.4325530000000  0.3018950000000 1.0
C      1  0.5229900000000  0.6206790000000  0.7363840000000 1.0
C      1  0.3800640000000  0.5230990000000  0.2632730000000 1.0
C      1  0.4770090000000  0.3793210000000  0.7363840000000 1.0
C      1  0.6199370000000  0.4769020000000  0.2632730000000 1.0
C      1  0.5014470000000  0.6596710000000  0.4823340000000 1.0
C      1  0.3428470000000  0.4979610000000  0.5180150000000 1.0
C      1  0.4985530000000  0.3403290000000  0.4823330000000 1.0
C      1  0.6571530000000  0.5020390000000  0.5180160000000 1.0
C      1  0.3208430000000  0.4119480000000  0.5766130000000 1.0
C      1  0.5872870000000  0.3219330000000  0.4242450000000 1.0
C      1  0.6791570000000  0.5880510000000  0.5766140000000 1.0
C      1  0.4127140000000  0.6780670000000  0.4242450000000 1.0
C      1  0.8120320000000  0.6779600000000  0.5420160000000 1.0
C      1  0.3227680000000  0.8098140000000  0.4629370000000 1.0
C      1  0.1879680000000  0.3220400000000  0.5420130000000 1.0
C      1  0.6772320000000  0.1901870000000  0.4629370000000 1.0
C      1  0.6187930000000  0.6283800000000  0.3730190000000 1.0
C      1  0.3717870000000  0.6167520000000  0.6270410000000 1.0
C      1  0.3812070000000  0.3716210000000  0.3730180000000 1.0
C      1  0.6282120000000  0.3832480000000  0.6270420000000 1.0
C      1  0.4514760000000  0.5597970000000  0.4719060000000 1.0
C      1  0.4482960000000  0.4580350000000  0.5228800000000 1.0
C      1  0.5485240000000  0.4402030000000  0.4719060000000 1.0
C      1  0.5517040000000  0.5419650000000  0.5228800000000 1.0
END
