TITL C-986974-580-797 3.43474577364839e-05 3375 -335.88099176944 0 0 60 (C1) n - 1
REM
REM in /home/bkarasulu/work/CARBON/AIRSS/Generating-Clusters/REBO/Higher-Symm/Only-C60
REM
REM
REM
REM
REM
REM ./C.cell (a2850807a9bf4ad07a5b6933b78d9264)
REM AIRSS Version 0.9.1 bugfix July 2018 build 013d7b7c2542+ Fri, 06 Jul 2018 19:26:36 +0100
REM compiler GCC version 9.2.1 20190827 (Red Hat 9.2.1-1)
REM options -cpp -mtune=generic -march=x86-64 -g -O0 -fpre-include=/usr/include/finclude/math-vector-fortran.h
REM seed 1303587430 -1678637079 -1823508156 476570834 -1765980810 251211630 802800345 -462380112 313068458 -1380908191 -1924867000 -751784367 -1778212707 -759139532 -1486587527 1369353472 -186409102 -49591581 596217983 -2072279087 182455237 1166282191 -1323917594 -107853783 -1905421896 -68641672 478943995 849841284 1112131274 -170304867 -1071970259 1659084500 -1007288503
REM
CELL 1.54180   15.00000   15.00000   15.00000   90.00000   90.00000   90.00000
LATT -1
SFAC C  
C      1  0.4323300000000  0.4713780000000  0.5658610000000 1.0
C      1  0.4120090000000  0.3854660000000  0.5213720000000 1.0
C      1  0.4125840000000  0.4081280000000  0.4253400000000 1.0
C      1  0.4329030000000  0.5067000000000  0.4211070000000 1.0
C      1  0.4117580000000  0.5998420000000  0.4319510000000 1.0
C      1  0.4098250000000  0.6250190000000  0.5248040000000 1.0
C      1  0.4109180000000  0.5611130000000  0.5967960000000 1.0
C      1  0.4476260000000  0.4089790000000  0.6824020000000 1.0
C      1  0.4532180000000  0.2861610000000  0.5444330000000 1.0
C      1  0.4534460000000  0.3296000000000  0.3594940000000 1.0
C      1  0.4466490000000  0.4990140000000  0.2888630000000 1.0
C      1  0.4516550000000  0.6707460000000  0.3585640000000 1.0
C      1  0.4511230000000  0.7219550000000  0.5481290000000 1.0
C      1  0.4521600000000  0.5912150000000  0.6941720000000 1.0
C      1  0.5049830000000  0.3364750000000  0.6320030000000 1.0
C      1  0.5074650000000  0.2875190000000  0.4502470000000 1.0
C      1  0.5063150000000  0.4037860000000  0.3039960000000 1.0
C      1  0.5033480000000  0.5863380000000  0.3032000000000 1.0
C      1  0.5029020000000  0.7089170000000  0.4476300000000 1.0
C      1  0.5034980000000  0.6694160000000  0.6294190000000 1.0
C      1  0.5061010000000  0.5015360000000  0.7109670000000 1.0
C      1  0.3403430000000  0.3022450000000  0.5426700000000 1.0
C      1  0.3407070000000  0.3435100000000  0.3686790000000 1.0
C      1  0.3569040000000  0.4995650000000  0.3123370000000 1.0
C      1  0.3389840000000  0.6575050000000  0.3693930000000 1.0
C      1  0.3378300000000  0.7056250000000  0.5441980000000 1.0
C      1  0.3393280000000  0.5848900000000  0.6795450000000 1.0
C      1  0.3574430000000  0.4190370000000  0.6622890000000 1.0
C      1  0.6188320000000  0.4973020000000  0.6945260000000 1.0
C      1  0.6179740000000  0.3466960000000  0.6195120000000 1.0
C      1  0.6195720000000  0.3070660000000  0.4530400000000 1.0
C      1  0.6188810000000  0.4134220000000  0.3198080000000 1.0
C      1  0.6160610000000  0.5831390000000  0.3198890000000 1.0
C      1  0.6148740000000  0.6906100000000  0.4531640000000 1.0
C      1  0.6153970000000  0.6528490000000  0.6188350000000 1.0
C      1  0.6745460000000  0.6279030000000  0.5265080000000 1.0
C      1  0.6757380000000  0.5562680000000  0.6161510000000 1.0
C      1  0.6809490000000  0.4415090000000  0.6162630000000 1.0
C      1  0.6792040000000  0.3701570000000  0.5262630000000 1.0
C      1  0.6792770000000  0.3959200000000  0.4142550000000 1.0
C      1  0.6795430000000  0.4995030000000  0.3643840000000 1.0
C      1  0.6755540000000  0.6026820000000  0.4146320000000 1.0
C      1  0.5439660000000  0.5665670000000  0.6010560000000 1.0
C      1  0.5497380000000  0.4604650000000  0.6141740000000 1.0
C      1  0.5471480000000  0.3803260000000  0.5371290000000 1.0
C      1  0.5473160000000  0.3920570000000  0.4302160000000 1.0
C      1  0.5483620000000  0.4822390000000  0.3729160000000 1.0
C      1  0.5435150000000  0.5877830000000  0.4085160000000 1.0
C      1  0.5423640000000  0.6230290000000  0.5106430000000 1.0
C      1  0.2928830000000  0.5000480000000  0.3872610000000 1.0
C      1  0.2794940000000  0.5894100000000  0.4262190000000 1.0
C      1  0.2773060000000  0.6138490000000  0.5229490000000 1.0
C      1  0.2787310000000  0.5491760000000  0.5991380000000 1.0
C      1  0.2925940000000  0.4515680000000  0.5952680000000 1.0
C      1  0.2792470000000  0.3876600000000  0.5217660000000 1.0
C      1  0.2797820000000  0.4105090000000  0.4253610000000 1.0
C      1  0.5951260000000  0.5015320000000  0.4960410000000 1.0
C      1  0.6853330000000  0.4992510000000  0.4969090000000 1.0
C      1  0.7728750000000  0.4966470000000  0.4977930000000 1.0
C      1  0.5008990000000  0.4975740000000  0.4961040000000 1.0
END
