TITL C-986973-6940-777 -5.70257280210225e-06 3375 -336.753561830994 0 0 60 (C2) n - 1
REM
REM in /home/bkarasulu/work/CARBON/AIRSS/Generating-Clusters/REBO/Higher-Symm/Only-C60
REM
REM
REM
REM
REM
REM ./C.cell (a2850807a9bf4ad07a5b6933b78d9264)
REM AIRSS Version 0.9.1 bugfix July 2018 build 013d7b7c2542+ Fri, 06 Jul 2018 19:26:36 +0100
REM compiler GCC version 9.2.1 20190827 (Red Hat 9.2.1-1)
REM options -cpp -mtune=generic -march=x86-64 -g -O0 -fpre-include=/usr/include/finclude/math-vector-fortran.h
REM seed -1724376641 86663070 -1344291714 509981241 2110047197 -943122044 -603145351 -1069800395 -1755401637 -2080610294 -142016899 2137285417 -1669872122 -1220600598 -94997486 41957633 769428897 655966507 81616040 -618364749 -1597487180 -546142179 1851813198 1075180132 -1920987681 12318297 -1054510800 -1295706910 -1310691600 -139737939 1734299447 -1939128549 894173725
REM
CELL 1.54180   15.00000   15.00000   15.00000   90.00000   90.00000   90.00000
LATT -1
SFAC C  
C      1  0.5971540000000  0.7113360000000  0.4360170000000 1.0
C      1  0.4028440000000  0.7113350000000  0.5639850000000 1.0
C      1  0.3710560000000  0.5010330000000  0.6289600000000 1.0
C      1  0.6289440000000  0.5010350000000  0.3710400000000 1.0
C      1  0.4441200000000  0.4018130000000  0.4831660000000 1.0
C      1  0.5558810000000  0.4018130000000  0.5168330000000 1.0
C      1  0.6472890000000  0.6736640000000  0.6347300000000 1.0
C      1  0.3527100000000  0.6736640000000  0.3652710000000 1.0
C      1  0.6598060000000  0.4818240000000  0.5396420000000 1.0
C      1  0.3401940000000  0.4818230000000  0.4603580000000 1.0
C      1  0.5458930000000  0.3585150000000  0.7121620000000 1.0
C      1  0.4541080000000  0.3585160000000  0.2878360000000 1.0
C      1  0.4338010000000  0.4605670000000  0.2584920000000 1.0
C      1  0.5661990000000  0.4605660000000  0.7415080000000 1.0
C      1  0.5797340000000  0.5521330000000  0.5756090000000 1.0
C      1  0.4202650000000  0.5521330000000  0.4243920000000 1.0
C      1  0.6443260000000  0.3408300000000  0.5269910000000 1.0
C      1  0.3556760000000  0.3408290000000  0.4730080000000 1.0
C      1  0.3918140000000  0.3077430000000  0.5608450000000 1.0
C      1  0.6081870000000  0.3077450000000  0.4391530000000 1.0
C      1  0.5348310000000  0.6075070000000  0.3069970000000 1.0
C      1  0.4651680000000  0.6075050000000  0.6930040000000 1.0
C      1  0.5376650000000  0.5066050000000  0.2568020000000 1.0
C      1  0.4623350000000  0.5066020000000  0.7431980000000 1.0
C      1  0.5414190000000  0.2961390000000  0.6175330000000 1.0
C      1  0.4585830000000  0.2961390000000  0.3824650000000 1.0
C      1  0.6695530000000  0.7601260000000  0.4624780000000 1.0
C      1  0.3304450000000  0.7601240000000  0.5375250000000 1.0
C      1  0.5556910000000  0.7007340000000  0.3323230000000 1.0
C      1  0.4443070000000  0.7007320000000  0.6676790000000 1.0
C      1  0.5327650000000  0.5523990000000  0.4051740000000 1.0
C      1  0.4672350000000  0.5523980000000  0.5948260000000 1.0
C      1  0.7250960000000  0.3227360000000  0.5895150000000 1.0
C      1  0.2749060000000  0.3227350000000  0.4104840000000 1.0
C      1  0.5199680000000  0.4399590000000  0.4165400000000 1.0
C      1  0.4800320000000  0.4399580000000  0.5834600000000 1.0
C      1  0.4249740000000  0.6160970000000  0.5145310000000 1.0
C      1  0.5750250000000  0.6160980000000  0.4854700000000 1.0
C      1  0.4152130000000  0.6917640000000  0.4329740000000 1.0
C      1  0.5847860000000  0.6917640000000  0.5670270000000 1.0
C      1  0.4450740000000  0.5740500000000  0.2507440000000 1.0
C      1  0.5549250000000  0.5740480000000  0.7492560000000 1.0
C      1  0.4923550000000  0.7385340000000  0.4098960000000 1.0
C      1  0.5076430000000  0.7385330000000  0.5901060000000 1.0
C      1  0.3571540000000  0.6093960000000  0.3027840000000 1.0
C      1  0.6428450000000  0.6093950000000  0.6972170000000 1.0
C      1  0.3125390000000  0.4237310000000  0.3759140000000 1.0
C      1  0.6874620000000  0.4237310000000  0.6240850000000 1.0
C      1  0.5159070000000  0.2812170000000  0.4526270000000 1.0
C      1  0.4840940000000  0.2812160000000  0.5473710000000 1.0
C      1  0.3233360000000  0.4556700000000  0.5477730000000 1.0
C      1  0.6766640000000  0.4556710000000  0.4522270000000 1.0
C      1  0.6309700000000  0.5043580000000  0.6660210000000 1.0
C      1  0.3690300000000  0.5043580000000  0.3339790000000 1.0
C      1  0.6379320000000  0.3287660000000  0.6594640000000 1.0
C      1  0.3620700000000  0.3287670000000  0.3405350000000 1.0
C      1  0.4551700000000  0.4150060000000  0.6855180000000 1.0
C      1  0.5448310000000  0.4150080000000  0.3144810000000 1.0
C      1  0.6331410000000  0.3857560000000  0.3732720000000 1.0
C      1  0.3668600000000  0.3857540000000  0.6267270000000 1.0
END
