TITL C-986977-940-64 0.00254315453936659 3375 -344.69184108744 0 0 60 (C1) n - 1
REM
REM in /home/bkarasulu/work/CARBON/AIRSS/Generating-Clusters/REBO/Higher-Symm/Only-C60
REM
REM
REM
REM
REM
REM ./C.cell (a2850807a9bf4ad07a5b6933b78d9264)
REM AIRSS Version 0.9.1 bugfix July 2018 build 013d7b7c2542+ Fri, 06 Jul 2018 19:26:36 +0100
REM compiler GCC version 9.2.1 20190827 (Red Hat 9.2.1-1)
REM options -cpp -mtune=generic -march=x86-64 -g -O0 -fpre-include=/usr/include/finclude/math-vector-fortran.h
REM seed -588480375 1570329813 916488018 1972519309 -10814325 1882425376 1555145874 -331220894 2026082577 47537963 711048382 1827855152 -1882693668 -1476014119 769866396 -961542783 -832843386 145408252 602826383 -565412583 296019731 1524073374 1633691393 751404304 -1527297069 -1938640168 -399511579 -127491133 1768078223 1750927641 881558629 -804040675 1176487691
REM
CELL 1.54180   15.00000   15.00000   15.00000   90.00000   90.00000   90.00000
LATT -1
SFAC C  
C      1  0.4508870000000  0.5725610000000  0.5556640000000 1.0
C      1  0.3889060000000  0.6670070000000  0.5558400000000 1.0
C      1  0.4302810000000  0.4325610000000  0.6812980000000 1.0
C      1  0.7022260000000  0.6413350000000  0.5431140000000 1.0
C      1  0.4060680000000  0.5596100000000  0.2827890000000 1.0
C      1  0.3485510000000  0.4753390000000  0.3164830000000 1.0
C      1  0.4565990000000  0.2489620000000  0.6130300000000 1.0
C      1  0.5679940000000  0.6609620000000  0.4583740000000 1.0
C      1  0.7365520000000  0.5493750000000  0.5989890000000 1.0
C      1  0.5954880000000  0.2976080000000  0.3659030000000 1.0
C      1  0.5181170000000  0.2300400000000  0.3994650000000 1.0
C      1  0.4533460000000  0.7346160000000  0.5113480000000 1.0
C      1  0.3471920000000  0.6391250000000  0.3225630000000 1.0
C      1  0.4340420000000  0.3789430000000  0.5977010000000 1.0
C      1  0.4915730000000  0.4299260000000  0.5230710000000 1.0
C      1  0.4602050000000  0.4383970000000  0.4248090000000 1.0
C      1  0.6810060000000  0.5254700000000  0.4043210000000 1.0
C      1  0.5277310000000  0.5686160000000  0.4839650000000 1.0
C      1  0.4007560000000  0.6405260000000  0.6577210000000 1.0
C      1  0.6353210000000  0.2719810000000  0.5175340000000 1.0
C      1  0.4971950000000  0.5599620000000  0.3150280000000 1.0
C      1  0.4428280000000  0.3145410000000  0.3810350000000 1.0
C      1  0.6286770000000  0.3641540000000  0.4215640000000 1.0
C      1  0.3064200000000  0.3764030000000  0.4443510000000 1.0
C      1  0.2853330000000  0.5541200000000  0.4659830000000 1.0
C      1  0.5496520000000  0.7229210000000  0.5407830000000 1.0
C      1  0.4850310000000  0.6729510000000  0.7057770000000 1.0
C      1  0.5345500000000  0.3227580000000  0.5881490000000 1.0
C      1  0.6145400000000  0.3802090000000  0.5316000000000 1.0
C      1  0.6718610000000  0.6533550000000  0.4410400000000 1.0
C      1  0.5976190000000  0.2149410000000  0.4702610000000 1.0
C      1  0.2925660000000  0.4539550000000  0.5192530000000 1.0
C      1  0.4875960000000  0.4080060000000  0.7477820000000 1.0
C      1  0.3471830000000  0.5405600000000  0.5573770000000 1.0
C      1  0.4232410000000  0.5285530000000  0.6584290000000 1.0
C      1  0.3005710000000  0.6530330000000  0.5074970000000 1.0
C      1  0.5219220000000  0.7030900000000  0.3733970000000 1.0
C      1  0.2866040000000  0.7193210000000  0.4446250000000 1.0
C      1  0.3035380000000  0.5536920000000  0.3661790000000 1.0
C      1  0.6793850000000  0.5365130000000  0.5038450000000 1.0
C      1  0.4826490000000  0.3229840000000  0.4871530000000 1.0
C      1  0.5865960000000  0.4905930000000  0.5449830000000 1.0
C      1  0.5007050000000  0.5178130000000  0.3989120000000 1.0
C      1  0.5620520000000  0.6322040000000  0.3156340000000 1.0
C      1  0.7236360000000  0.4978740000000  0.6712180000000 1.0
C      1  0.5143160000000  0.5798500000000  0.6857300000000 1.0
C      1  0.6722420000000  0.4362660000000  0.3788760000000 1.0
C      1  0.3856960000000  0.2580780000000  0.5514600000000 1.0
C      1  0.6406340000000  0.4605410000000  0.7122980000000 1.0
C      1  0.6341550000000  0.6288730000000  0.6570710000000 1.0
C      1  0.6511010000000  0.6066040000000  0.3511930000000 1.0
C      1  0.3407510000000  0.3553320000000  0.5492550000000 1.0
C      1  0.4421310000000  0.7397350000000  0.4128230000000 1.0
C      1  0.6224000000000  0.2897780000000  0.2777690000000 1.0
C      1  0.5782970000000  0.4113490000000  0.7608860000000 1.0
C      1  0.3542220000000  0.7182460000000  0.3768870000000 1.0
C      1  0.6263760000000  0.7009340000000  0.5944180000000 1.0
C      1  0.5963290000000  0.5283950000000  0.6462720000000 1.0
C      1  0.3774000000000  0.3966490000000  0.3739540000000 1.0
C      1  0.4191590000000  0.2319060000000  0.4552670000000 1.0
END
