TITL C-986978-6805-836 -0.0421364932704221 3375 -321.717090887204 0 0 60 (C1) n - 1
REM
REM in /home/bkarasulu/work/CARBON/AIRSS/Generating-Clusters/REBO/Higher-Symm/Only-C60
REM
REM
REM
REM
REM
REM ./C.cell (a2850807a9bf4ad07a5b6933b78d9264)
REM AIRSS Version 0.9.1 bugfix July 2018 build 013d7b7c2542+ Fri, 06 Jul 2018 19:26:36 +0100
REM compiler GCC version 9.2.1 20190827 (Red Hat 9.2.1-1)
REM options -cpp -mtune=generic -march=x86-64 -g -O0 -fpre-include=/usr/include/finclude/math-vector-fortran.h
REM seed 1152793061 850982081 -770600825 1474234986 585915615 1047348894 1183524597 -929119776 1932312975 -752399262 1684424152 347891149 -273424796 282197293 -1650597821 1376245239 -1726004952 -388644015 82380966 -321058073 -1450106651 563374898 -1981185806 1510995437 -57836055 -121272304 659925050 83721251 -1337058524 -1526198438 -486333153 784702313 -1905768646
REM
CELL 1.54180   15.00000   15.00000   15.00000   90.00000   90.00000   90.00000
LATT -1
SFAC C  
C      1  0.4466470000000  0.1994060000000  0.6906790000000 1.0
C      1  0.6575190000000  0.2069650000000  0.4471440000000 1.0
C      1  0.3701850000000  0.1885970000000  0.3818690000000 1.0
C      1  0.4487370000000  0.7950520000000  0.6889520000000 1.0
C      1  0.6663930000000  0.7986760000000  0.4503000000000 1.0
C      1  0.3903210000000  0.7848650000000  0.3636220000000 1.0
C      1  0.5373930000000  0.2057540000000  0.6801600000000 1.0
C      1  0.3342960000000  0.2115830000000  0.4631140000000 1.0
C      1  0.6191470000000  0.2064350000000  0.3641310000000 1.0
C      1  0.5398520000000  0.7943950000000  0.6799850000000 1.0
C      1  0.3560870000000  0.7916580000000  0.4480610000000 1.0
C      1  0.6264200000000  0.8035220000000  0.3682650000000 1.0
C      1  0.4457710000000  0.6218870000000  0.5795520000000 1.0
C      1  0.6111340000000  0.6254940000000  0.4809120000000 1.0
C      1  0.4474260000000  0.6030450000000  0.3939840000000 1.0
C      1  0.4494430000000  0.3716340000000  0.5886120000000 1.0
C      1  0.6134710000000  0.3787100000000  0.4870020000000 1.0
C      1  0.4513960000000  0.3643570000000  0.4037540000000 1.0
C      1  0.5566480000000  0.6332310000000  0.5729260000000 1.0
C      1  0.3915850000000  0.6209350000000  0.4873090000000 1.0
C      1  0.5493830000000  0.6205490000000  0.3893270000000 1.0
C      1  0.5601770000000  0.3733160000000  0.5782790000000 1.0
C      1  0.3947250000000  0.3858940000000  0.4978000000000 1.0
C      1  0.5534790000000  0.3869160000000  0.3952120000000 1.0
C      1  0.6365310000000  0.4462620000000  0.3750030000000 1.0
C      1  0.3159850000000  0.4468760000000  0.4644370000000 1.0
C      1  0.5402370000000  0.4397860000000  0.6577870000000 1.0
C      1  0.6353080000000  0.5676080000000  0.3638440000000 1.0
C      1  0.3024440000000  0.5677210000000  0.4717640000000 1.0
C      1  0.5421470000000  0.5612880000000  0.6479830000000 1.0
C      1  0.3732360000000  0.4269610000000  0.3734240000000 1.0
C      1  0.6953680000000  0.4414280000000  0.4667020000000 1.0
C      1  0.4319550000000  0.4338380000000  0.6722990000000 1.0
C      1  0.3593850000000  0.5477280000000  0.3811180000000 1.0
C      1  0.6941660000000  0.5628970000000  0.4561860000000 1.0
C      1  0.4336040000000  0.5550780000000  0.6599030000000 1.0
C      1  0.2194560000000  0.4654680000000  0.4911780000000 1.0
C      1  0.6117360000000  0.4453190000000  0.7374190000000 1.0
C      1  0.6714030000000  0.4692600000000  0.2816070000000 1.0
C      1  0.2012110000000  0.5548220000000  0.4996120000000 1.0
C      1  0.6077300000000  0.5351520000000  0.7216970000000 1.0
C      1  0.6739240000000  0.5590960000000  0.2646410000000 1.0
C      1  0.7868710000000  0.4745590000000  0.4931180000000 1.0
C      1  0.3623650000000  0.4433860000000  0.7513970000000 1.0
C      1  0.3356010000000  0.4590190000000  0.2845520000000 1.0
C      1  0.7955390000000  0.5652830000000  0.4874430000000 1.0
C      1  0.3688980000000  0.5330470000000  0.7349050000000 1.0
C      1  0.3163400000000  0.5483060000000  0.2827320000000 1.0
C      1  0.4420870000000  0.2623400000000  0.6062040000000 1.0
C      1  0.6136400000000  0.2718100000000  0.5115880000000 1.0
C      1  0.4480350000000  0.2544800000000  0.4088200000000 1.0
C      1  0.4498670000000  0.7317010000000  0.6042950000000 1.0
C      1  0.6224000000000  0.7310430000000  0.5120750000000 1.0
C      1  0.4560680000000  0.7130740000000  0.4076660000000 1.0
C      1  0.5641480000000  0.2640450000000  0.6023990000000 1.0
C      1  0.3926510000000  0.2766990000000  0.5153380000000 1.0
C      1  0.5511140000000  0.2766260000000  0.4067870000000 1.0
C      1  0.5717730000000  0.7384620000000  0.6023670000000 1.0
C      1  0.3980870000000  0.7269620000000  0.5141310000000 1.0
C      1  0.5610550000000  0.7296960000000  0.4066320000000 1.0
END
