TITL C-986979-5873-248 0.0217150813679033 3375 -339.204498588439 0 0 60 (C1) n - 1
REM
REM in /home/bkarasulu/work/CARBON/AIRSS/Generating-Clusters/REBO/Higher-Symm/Only-C60
REM
REM
REM
REM
REM
REM ./C.cell (a2850807a9bf4ad07a5b6933b78d9264)
REM AIRSS Version 0.9.1 bugfix July 2018 build 013d7b7c2542+ Fri, 06 Jul 2018 19:26:36 +0100
REM compiler GCC version 9.2.1 20190827 (Red Hat 9.2.1-1)
REM options -cpp -mtune=generic -march=x86-64 -g -O0 -fpre-include=/usr/include/finclude/math-vector-fortran.h
REM seed -1111311021 -1906681802 1768561824 1014206028 -1946962078 -2143157488 198719795 -874268411 -656316574 631826919 1013456995 389968041 -1445549505 2001287776 543594360 2037573339 1673743031 2031086808 365271467 420417112 -2066815245 960477897 417449811 -160517775 -169001347 949008085 -1941012105 -673261657 -60591077 -630109507 -176767108 277924052 -2000552689
REM
CELL 1.54180   15.00000   15.00000   15.00000   90.00000   90.00000   90.00000
LATT -1
SFAC C  
C      1  0.5557790000000  0.4299810000000  0.6276810000000 1.0
C      1  0.4474200000000  0.4579250000000  0.6090230000000 1.0
C      1  0.4462620000000  0.5649500000000  0.5760870000000 1.0
C      1  0.5503380000000  0.5408290000000  0.6107410000000 1.0
C      1  0.5395990000000  0.5516000000000  0.3845690000000 1.0
C      1  0.4295640000000  0.5558720000000  0.3673070000000 1.0
C      1  0.4579950000000  0.4476070000000  0.3823390000000 1.0
C      1  0.5645780000000  0.4478690000000  0.4178680000000 1.0
C      1  0.4011090000000  0.6847670000000  0.6120300000000 1.0
C      1  0.6736340000000  0.5894520000000  0.6011720000000 1.0
C      1  0.6075370000000  0.3115190000000  0.5969000000000 1.0
C      1  0.3285910000000  0.3989920000000  0.6081480000000 1.0
C      1  0.3993040000000  0.3287870000000  0.3888730000000 1.0
C      1  0.6844150000000  0.4009120000000  0.3853270000000 1.0
C      1  0.5897590000000  0.6740910000000  0.3954510000000 1.0
C      1  0.3117240000000  0.6078100000000  0.3996140000000 1.0
C      1  0.5745010000000  0.2817760000000  0.4300800000000 1.0
C      1  0.2765670000000  0.4292720000000  0.4449310000000 1.0
C      1  0.4194000000000  0.7283500000000  0.4469440000000 1.0
C      1  0.7152920000000  0.5739210000000  0.4348060000000 1.0
C      1  0.5742710000000  0.7156220000000  0.5620930000000 1.0
C      1  0.2825030000000  0.5743090000000  0.5669090000000 1.0
C      1  0.4295260000000  0.2769550000000  0.5518160000000 1.0
C      1  0.7282790000000  0.4192480000000  0.5498920000000 1.0
C      1  0.4964880000000  0.6863300000000  0.3824890000000 1.0
C      1  0.6916430000000  0.4926770000000  0.3721990000000 1.0
C      1  0.4917700000000  0.3161690000000  0.3720040000000 1.0
C      1  0.3040870000000  0.5128990000000  0.3803550000000 1.0
C      1  0.5128240000000  0.3042630000000  0.6162750000000 1.0
C      1  0.6858060000000  0.4964440000000  0.6137560000000 1.0
C      1  0.4929690000000  0.6922680000000  0.6249310000000 1.0
C      1  0.3163020000000  0.4915100000000  0.6253140000000 1.0
C      1  0.3855120000000  0.6747150000000  0.3584520000000 1.0
C      1  0.6553880000000  0.5982640000000  0.3422930000000 1.0
C      1  0.5992460000000  0.3445540000000  0.3419560000000 1.0
C      1  0.3360610000000  0.4057290000000  0.3575070000000 1.0
C      1  0.4058390000000  0.3366180000000  0.6392630000000 1.0
C      1  0.6745470000000  0.3855700000000  0.6384150000000 1.0
C      1  0.5984530000000  0.6555990000000  0.6545190000000 1.0
C      1  0.3450220000000  0.5988840000000  0.6555100000000 1.0
C      1  0.4714920000000  0.5260820000000  0.2729660000000 1.0
C      1  0.5827060000000  0.5469600000000  0.2793640000000 1.0
C      1  0.5649250000000  0.4384120000000  0.3037530000000 1.0
C      1  0.4580480000000  0.4155550000000  0.2733860000000 1.0
C      1  0.4177620000000  0.4563230000000  0.7188690000000 1.0
C      1  0.5282750000000  0.4710620000000  0.7227400000000 1.0
C      1  0.5480300000000  0.5822260000000  0.7167630000000 1.0
C      1  0.4404010000000  0.5635620000000  0.6900020000000 1.0
C      1  0.6319030000000  0.3017450000000  0.5022470000000 1.0
C      1  0.3061600000000  0.3715230000000  0.5161290000000 1.0
C      1  0.3680350000000  0.6995320000000  0.5225540000000 1.0
C      1  0.6871310000000  0.6209310000000  0.5109530000000 1.0
C      1  0.6211410000000  0.6872880000000  0.4858730000000 1.0
C      1  0.3025680000000  0.6315180000000  0.4946350000000 1.0
C      1  0.3717420000000  0.3062960000000  0.4806960000000 1.0
C      1  0.6997230000000  0.3675530000000  0.4744510000000 1.0
C      1  0.4577150000000  0.4603800000000  0.4956390000000 1.0
C      1  0.4422900000000  0.5715920000000  0.4723010000000 1.0
C      1  0.5525000000000  0.5535350000000  0.4976650000000 1.0
C      1  0.5675480000000  0.4430160000000  0.5228720000000 1.0
END
