TITL C-986975-4297-80 -1.13641914817966e-05 3375 -338.112300954336 0 0 60 (C2) n - 1
REM
REM in /home/bkarasulu/work/CARBON/AIRSS/Generating-Clusters/REBO/Higher-Symm/Only-C60
REM
REM
REM
REM
REM
REM ./C.cell (a2850807a9bf4ad07a5b6933b78d9264)
REM AIRSS Version 0.9.1 bugfix July 2018 build 013d7b7c2542+ Fri, 06 Jul 2018 19:26:36 +0100
REM compiler GCC version 9.2.1 20190827 (Red Hat 9.2.1-1)
REM options -cpp -mtune=generic -march=x86-64 -g -O0 -fpre-include=/usr/include/finclude/math-vector-fortran.h
REM seed 2088979070 2045194265 -1257479301 -2024091428 -935050747 -320855473 1647246092 -697988789 675992567 1313731245 -605516396 -1828642293 1763118036 1188086897 -907957509 -719651375 1403113473 -20734184 -1505399923 -1633900113 452964439 622965137 1997770610 1624811584 -580890557 1182442919 884301370 -828405063 926372582 1476927048 -353270025 -1313108040 2082008975
REM
CELL 1.54180   15.00000   15.00000   15.00000   90.00000   90.00000   90.00000
LATT -1
SFAC C  
C      1  0.2920820000000  0.4415820000000  0.3922710000000 1.0
C      1  0.2898170000000  0.3891450000000  0.5585250000000 1.0
C      1  0.2920820000000  0.5584180000000  0.6077290000000 1.0
C      1  0.2898170000000  0.6108550000000  0.4414750000000 1.0
C      1  0.5806960000000  0.2795200000000  0.5845950000000 1.0
C      1  0.5746160000000  0.5794210000000  0.7114400000000 1.0
C      1  0.5806960000000  0.7204800000000  0.4154050000000 1.0
C      1  0.5746160000000  0.4205790000000  0.2885600000000 1.0
C      1  0.5359170000000  0.4891240000000  0.7467610000000 1.0
C      1  0.5346950000000  0.7547960000000  0.5068960000000 1.0
C      1  0.5359170000000  0.5108760000000  0.2532390000000 1.0
C      1  0.5346950000000  0.2452040000000  0.4931040000000 1.0
C      1  0.3939440000000  0.3209670000000  0.4498210000000 1.0
C      1  0.3968820000000  0.4487030000000  0.6699240000000 1.0
C      1  0.3939440000000  0.6790330000000  0.5501790000000 1.0
C      1  0.3968820000000  0.5512970000000  0.3300760000000 1.0
C      1  0.4454030000000  0.7179890000000  0.4771970000000 1.0
C      1  0.4489120000000  0.4792710000000  0.2921520000000 1.0
C      1  0.4454030000000  0.2820110000000  0.5228030000000 1.0
C      1  0.4489120000000  0.5207290000000  0.7078480000000 1.0
C      1  0.3428400000000  0.3752010000000  0.3360180000000 1.0
C      1  0.3384410000000  0.3346820000000  0.6281390000000 1.0
C      1  0.3428400000000  0.6247990000000  0.6639820000000 1.0
C      1  0.3384410000000  0.6653180000000  0.3718610000000 1.0
C      1  0.4582350000000  0.5295740000000  0.5666110000000 1.0
C      1  0.4584880000000  0.5765270000000  0.4666330000000 1.0
C      1  0.4582350000000  0.4704260000000  0.4333890000000 1.0
C      1  0.4584880000000  0.4234730000000  0.5333670000000 1.0
C      1  0.4409710000000  0.6597410000000  0.3904950000000 1.0
C      1  0.4451740000000  0.3919530000000  0.3510150000000 1.0
C      1  0.4409710000000  0.3402590000000  0.6095050000000 1.0
C      1  0.4451740000000  0.6080470000000  0.6489850000000 1.0
C      1  0.5468950000000  0.3670800000000  0.5337550000000 1.0
C      1  0.5490900000000  0.5308600000000  0.6213620000000 1.0
C      1  0.5468950000000  0.6329200000000  0.4662450000000 1.0
C      1  0.5490900000000  0.4691400000000  0.3786380000000 1.0
C      1  0.6034210000000  0.6421800000000  0.3470070000000 1.0
C      1  0.5954850000000  0.3466090000000  0.3560100000000 1.0
C      1  0.6034210000000  0.3578200000000  0.6529930000000 1.0
C      1  0.5954850000000  0.6533910000000  0.6439900000000 1.0
C      1  0.5028940000000  0.4017100000000  0.6820070000000 1.0
C      1  0.5006010000000  0.6909020000000  0.5951190000000 1.0
C      1  0.5028940000000  0.5982900000000  0.3179930000000 1.0
C      1  0.5006010000000  0.3090980000000  0.4048810000000 1.0
C      1  0.6260400000000  0.5024370000000  0.5666110000000 1.0
C      1  0.6242360000000  0.5836250000000  0.4987330000000 1.0
C      1  0.6260400000000  0.4975640000000  0.4333890000000 1.0
C      1  0.6242360000000  0.4163750000000  0.5012670000000 1.0
C      1  0.6746550000000  0.4188810000000  0.6234650000000 1.0
C      1  0.6672320000000  0.6277060000000  0.5857280000000 1.0
C      1  0.6746550000000  0.5811190000000  0.3765350000000 1.0
C      1  0.6672320000000  0.3722940000000  0.4142720000000 1.0
C      1  0.7457540000000  0.5686810000000  0.5505390000000 1.0
C      1  0.7501840000000  0.5399630000000  0.4467790000000 1.0
C      1  0.7457540000000  0.4313190000000  0.4494610000000 1.0
C      1  0.7501840000000  0.4600370000000  0.5532210000000 1.0
C      1  0.3188320000000  0.4660810000000  0.6178600000000 1.0
C      1  0.3175680000000  0.6234120000000  0.5332150000000 1.0
C      1  0.3188320000000  0.5339190000000  0.3821400000000 1.0
C      1  0.3175680000000  0.3765880000000  0.4667850000000 1.0
END
