TITL C-986978-6805-602 -5.66922409544934e-06 3375 -353.463593193813 0 0 60 (D6h) n - 1
REM
REM in /home/bkarasulu/work/CARBON/AIRSS/Generating-Clusters/REBO/Higher-Symm/Only-C60
REM
REM
REM
REM
REM
REM ./C.cell (a2850807a9bf4ad07a5b6933b78d9264)
REM AIRSS Version 0.9.1 bugfix July 2018 build 013d7b7c2542+ Fri, 06 Jul 2018 19:26:36 +0100
REM compiler GCC version 9.2.1 20190827 (Red Hat 9.2.1-1)
REM options -cpp -mtune=generic -march=x86-64 -g -O0 -fpre-include=/usr/include/finclude/math-vector-fortran.h
REM seed -1967530998 169437879 -1376670439 570707662 1579109817 259425812 -1213944059 -2104642292 -2013159559 165675491 528873259 1942888808 441402299 -144002968 -2107908855 745397013 1411076505 -1469890245 -466852423 -310528474 1860038473 -1703200816 -422617580 118589334 -1414208912 -717665355 812611719 -1925622843 -660443308 371684811 -1233655791 1551544058 2055718858
REM
CELL 1.54180   15.00000   15.00000   15.00000   90.00000   90.00000   90.00000
LATT -1
SFAC C  
C      1  0.4513510000000  0.5666150000000  0.4247440000000 1.0
C      1  0.5408490000000  0.5666150000000  0.4202410000000 1.0
C      1  0.5894980000000  0.5666150000000  0.4954970000000 1.0
C      1  0.5486490000000  0.5666150000000  0.5752560000000 1.0
C      1  0.4591510000000  0.5666150000000  0.5797590000000 1.0
C      1  0.4105020000000  0.5666150000000  0.5045030000000 1.0
C      1  0.4513510000000  0.4333850000000  0.4247440000000 1.0
C      1  0.5408490000000  0.4333850000000  0.4202410000000 1.0
C      1  0.5894980000000  0.4333850000000  0.4954970000000 1.0
C      1  0.5486490000000  0.4333850000000  0.5752560000000 1.0
C      1  0.4591510000000  0.4333850000000  0.5797590000000 1.0
C      1  0.4105020000000  0.4333850000000  0.5045030000000 1.0
C      1  0.6043510000000  0.4033910000000  0.6614220000000 1.0
C      1  0.4123800000000  0.4033910000000  0.6710810000000 1.0
C      1  0.3080290000000  0.4033910000000  0.5096590000000 1.0
C      1  0.3956490000000  0.4033910000000  0.3385780000000 1.0
C      1  0.5876200000000  0.4033910000000  0.3289190000000 1.0
C      1  0.6919710000000  0.4033910000000  0.4903410000000 1.0
C      1  0.6043510000000  0.5966090000000  0.6614220000000 1.0
C      1  0.4123800000000  0.5966090000000  0.6710810000000 1.0
C      1  0.3080290000000  0.5966090000000  0.5096590000000 1.0
C      1  0.3956490000000  0.5966090000000  0.3385780000000 1.0
C      1  0.5876200000000  0.5966090000000  0.3289190000000 1.0
C      1  0.6919710000000  0.5966090000000  0.4903410000000 1.0
C      1  0.6791510000000  0.5472530000000  0.5917530000000 1.0
C      1  0.5101150000000  0.5472530000000  0.7010260000000 1.0
C      1  0.3309640000000  0.5472530000000  0.6092730000000 1.0
C      1  0.3208490000000  0.5472530000000  0.4082470000000 1.0
C      1  0.4898850000000  0.5472530000000  0.2989740000000 1.0
C      1  0.6690360000000  0.5472530000000  0.3907270000000 1.0
C      1  0.6791510000000  0.4527470000000  0.5917530000000 1.0
C      1  0.5101150000000  0.4527470000000  0.7010260000000 1.0
C      1  0.3309640000000  0.4527470000000  0.6092730000000 1.0
C      1  0.3208490000000  0.4527470000000  0.4082470000000 1.0
C      1  0.4898850000000  0.4527470000000  0.2989740000000 1.0
C      1  0.6690360000000  0.4527470000000  0.3907270000000 1.0
C      1  0.4009010000000  0.2575690000000  0.4492460000000 1.0
C      1  0.4944050000000  0.2575690000000  0.3888010000000 1.0
C      1  0.5935040000000  0.2575690000000  0.4395550000000 1.0
C      1  0.5990990000000  0.2575690000000  0.5507540000000 1.0
C      1  0.5055950000000  0.2575690000000  0.6111990000000 1.0
C      1  0.4064960000000  0.2575690000000  0.5604450000000 1.0
C      1  0.4009010000000  0.7424310000000  0.4492460000000 1.0
C      1  0.4944050000000  0.7424310000000  0.3888010000000 1.0
C      1  0.5935040000000  0.7424310000000  0.4395550000000 1.0
C      1  0.5990990000000  0.7424310000000  0.5507540000000 1.0
C      1  0.5055950000000  0.7424310000000  0.6111990000000 1.0
C      1  0.4064960000000  0.7424310000000  0.5604450000000 1.0
C      1  0.4166990000000  0.6983920000000  0.6626490000000 1.0
C      1  0.3174910000000  0.6983920000000  0.5091830000000 1.0
C      1  0.4007930000000  0.6983920000000  0.3465340000000 1.0
C      1  0.5833010000000  0.6983920000000  0.3373510000000 1.0
C      1  0.6825090000000  0.6983920000000  0.4908170000000 1.0
C      1  0.5992070000000  0.6983920000000  0.6534660000000 1.0
C      1  0.4166990000000  0.3016080000000  0.6626490000000 1.0
C      1  0.3174910000000  0.3016080000000  0.5091830000000 1.0
C      1  0.4007930000000  0.3016080000000  0.3465340000000 1.0
C      1  0.5833010000000  0.3016080000000  0.3373510000000 1.0
C      1  0.6825090000000  0.3016080000000  0.4908170000000 1.0
C      1  0.5992070000000  0.3016080000000  0.6534660000000 1.0
END
