TITL C-986974-580-356 -0.000405583980862884 3375 -361.563209923853 0 0 60 (C1) n - 1
REM
REM in /home/bkarasulu/work/CARBON/AIRSS/Generating-Clusters/REBO/Higher-Symm/Only-C60
REM
REM
REM
REM
REM
REM ./C.cell (a2850807a9bf4ad07a5b6933b78d9264)
REM AIRSS Version 0.9.1 bugfix July 2018 build 013d7b7c2542+ Fri, 06 Jul 2018 19:26:36 +0100
REM compiler GCC version 9.2.1 20190827 (Red Hat 9.2.1-1)
REM options -cpp -mtune=generic -march=x86-64 -g -O0 -fpre-include=/usr/include/finclude/math-vector-fortran.h
REM seed -2135439012 322593857 -767064203 -391959972 220502804 1722537294 -1540376248 -1875868156 -733707905 -914797178 76856775 -1337590010 1010329273 -93578684 -1051230408 -1078841108 -1374750823 -1203355063 1309018242 -1914971942 241565728 26300728 -1800541481 2139714978 -484879522 -1613234242 1530740066 -1166687691 -1142518407 -929844478 1735217816 259842715 1689214820
REM
CELL 1.54180   15.00000   15.00000   15.00000   90.00000   90.00000   90.00000
LATT -1
SFAC C  
C      1  0.3061690000000  0.2955020000000  0.4532140000000 1.0
C      1  0.2994050000000  0.6346220000000  0.3530190000000 1.0
C      1  0.3002880000000  0.5812950000000  0.7151240000000 1.0
C      1  0.3027090000000  0.2880010000000  0.5372230000000 1.0
C      1  0.3030710000000  0.6503700000000  0.6664750000000 1.0
C      1  0.3004680000000  0.5627820000000  0.3086600000000 1.0
C      1  0.6299270000000  0.3508640000000  0.5461000000000 1.0
C      1  0.6321200000000  0.5235490000000  0.3518390000000 1.0
C      1  0.6362350000000  0.6239000000000  0.5835160000000 1.0
C      1  0.6483650000000  0.3503440000000  0.4340300000000 1.0
C      1  0.6157800000000  0.5329210000000  0.6338110000000 1.0
C      1  0.6410950000000  0.6257930000000  0.3999860000000 1.0
C      1  0.5294250000000  0.4041100000000  0.5490910000000 1.0
C      1  0.5366260000000  0.4842700000000  0.3998490000000 1.0
C      1  0.5386120000000  0.5857820000000  0.5392210000000 1.0
C      1  0.5520600000000  0.3978600000000  0.4494990000000 1.0
C      1  0.5159820000000  0.4960890000000  0.5937630000000 1.0
C      1  0.5470430000000  0.5826570000000  0.4354170000000 1.0
C      1  0.5840040000000  0.4419900000000  0.6940720000000 1.0
C      1  0.5943670000000  0.3499110000000  0.3339470000000 1.0
C      1  0.5849360000000  0.7093210000000  0.4483350000000 1.0
C      1  0.5909750000000  0.4383290000000  0.2886760000000 1.0
C      1  0.5914570000000  0.3541080000000  0.6540730000000 1.0
C      1  0.5852160000000  0.7097340000000  0.5449200000000 1.0
C      1  0.3846000000000  0.6750780000000  0.6084670000000 1.0
C      1  0.3825540000000  0.3158780000000  0.5952650000000 1.0
C      1  0.3845460000000  0.5037290000000  0.3053780000000 1.0
C      1  0.3821460000000  0.6704170000000  0.4020130000000 1.0
C      1  0.3901750000000  0.3270920000000  0.4032890000000 1.0
C      1  0.3776200000000  0.5133600000000  0.7140510000000 1.0
C      1  0.7079930000000  0.3944430000000  0.6034320000000 1.0
C      1  0.7254360000000  0.4783540000000  0.3732340000000 1.0
C      1  0.7280650000000  0.6222210000000  0.5369410000000 1.0
C      1  0.7335520000000  0.4039580000000  0.4109970000000 1.0
C      1  0.7019110000000  0.4697050000000  0.6386800000000 1.0
C      1  0.7309110000000  0.6260620000000  0.4528000000000 1.0
C      1  0.4269260000000  0.5892630000000  0.5605690000000 1.0
C      1  0.4214700000000  0.4086420000000  0.5601310000000 1.0
C      1  0.4301100000000  0.5028420000000  0.4008090000000 1.0
C      1  0.4358140000000  0.5938770000000  0.4547560000000 1.0
C      1  0.4390630000000  0.4098530000000  0.4519400000000 1.0
C      1  0.4086490000000  0.4997430000000  0.6140810000000 1.0
C      1  0.4213770000000  0.7582490000000  0.4555750000000 1.0
C      1  0.4218800000000  0.4139200000000  0.7425290000000 1.0
C      1  0.4253320000000  0.3324140000000  0.3004460000000 1.0
C      1  0.4224800000000  0.7589870000000  0.5487780000000 1.0
C      1  0.4226350000000  0.4138230000000  0.2555230000000 1.0
C      1  0.4239070000000  0.3335290000000  0.6967980000000 1.0
C      1  0.4749400000000  0.6479430000000  0.3394320000000 1.0
C      1  0.4761360000000  0.5710060000000  0.7125230000000 1.0
C      1  0.4827900000000  0.2841350000000  0.4530570000000 1.0
C      1  0.4793000000000  0.6505550000000  0.6663660000000 1.0
C      1  0.4773360000000  0.5682600000000  0.2948580000000 1.0
C      1  0.4788980000000  0.2809700000000  0.5452040000000 1.0
C      1  0.5033060000000  0.7243780000000  0.4024520000000 1.0
C      1  0.5030170000000  0.4748320000000  0.7359620000000 1.0
C      1  0.5102400000000  0.3034870000000  0.3519490000000 1.0
C      1  0.5068750000000  0.7253150000000  0.5974450000000 1.0
C      1  0.5052750000000  0.4747360000000  0.2579490000000 1.0
C      1  0.5064010000000  0.3048420000000  0.6424590000000 1.0
END
