TITL C-986976-6631-60 7.10431754157025e-05 3375 -351.080799616782 0 0 60 (D2) n - 1
REM
REM in /home/bkarasulu/work/CARBON/AIRSS/Generating-Clusters/REBO/Higher-Symm/Only-C60
REM
REM
REM
REM
REM
REM ./C.cell (a2850807a9bf4ad07a5b6933b78d9264)
REM AIRSS Version 0.9.1 bugfix July 2018 build 013d7b7c2542+ Fri, 06 Jul 2018 19:26:36 +0100
REM compiler GCC version 9.2.1 20190827 (Red Hat 9.2.1-1)
REM options -cpp -mtune=generic -march=x86-64 -g -O0 -fpre-include=/usr/include/finclude/math-vector-fortran.h
REM seed 2005872049 771994813 1838852113 -1556972087 1661538115 -253411955 1929547694 327111525 -1749644055 1656627884 -1114293098 -1447005426 1165191324 -1016485311 1002139206 857307970 1053139250 2114105635 -1727069361 1082922532 -1521271467 2080325218 369421241 1903449985 -1952506321 867274894 -200625504 -1400762810 1400073824 -794689196 -757306063 -486688519 -680324037
REM
CELL 1.54180   15.00000   15.00000   15.00000   90.00000   90.00000   90.00000
LATT -1
SFAC C  
C      1  0.4535460000000  0.6267230000000  0.4808400000000 1.0
C      1  0.5464560000000  0.3732770000000  0.4808470000000 1.0
C      1  0.4535470000000  0.3732770000000  0.5191590000000 1.0
C      1  0.5464530000000  0.6267240000000  0.5191540000000 1.0
C      1  0.5524490000000  0.7097910000000  0.5970310000000 1.0
C      1  0.4475470000000  0.2902090000000  0.5970340000000 1.0
C      1  0.5524540000000  0.2902100000000  0.4029700000000 1.0
C      1  0.4475460000000  0.7097910000000  0.4029650000000 1.0
C      1  0.4126590000000  0.5331750000000  0.4615160000000 1.0
C      1  0.5873440000000  0.4668230000000  0.4615200000000 1.0
C      1  0.4126590000000  0.4668230000000  0.5384820000000 1.0
C      1  0.5873420000000  0.5331780000000  0.5384820000000 1.0
C      1  0.6140370000000  0.4789700000000  0.6954930000000 1.0
C      1  0.3859600000000  0.5210340000000  0.6954900000000 1.0
C      1  0.6140400000000  0.5210310000000  0.3045100000000 1.0
C      1  0.3859650000000  0.4789650000000  0.3045070000000 1.0
C      1  0.6291450000000  0.3394660000000  0.6139420000000 1.0
C      1  0.3708500000000  0.6605360000000  0.6139380000000 1.0
C      1  0.6291450000000  0.6605360000000  0.3860610000000 1.0
C      1  0.3708550000000  0.3394620000000  0.3860600000000 1.0
C      1  0.4541920000000  0.5015180000000  0.3688670000000 1.0
C      1  0.5458120000000  0.4984760000000  0.3688680000000 1.0
C      1  0.4541900000000  0.4984810000000  0.6311320000000 1.0
C      1  0.5458090000000  0.5015240000000  0.6311330000000 1.0
C      1  0.7577310000000  0.5139890000000  0.3817260000000 1.0
C      1  0.2422720000000  0.4860110000000  0.3817200000000 1.0
C      1  0.7577290000000  0.4860140000000  0.6182790000000 1.0
C      1  0.2422700000000  0.5139850000000  0.6182740000000 1.0
C      1  0.4082690000000  0.7304770000000  0.5072420000000 1.0
C      1  0.5917300000000  0.2695220000000  0.5072470000000 1.0
C      1  0.4082720000000  0.2695220000000  0.4927560000000 1.0
C      1  0.5917270000000  0.7304800000000  0.4927550000000 1.0
C      1  0.6589270000000  0.3198900000000  0.4340970000000 1.0
C      1  0.3410730000000  0.6801090000000  0.4340920000000 1.0
C      1  0.6589230000000  0.6801120000000  0.5659060000000 1.0
C      1  0.3410740000000  0.3198890000000  0.5659040000000 1.0
C      1  0.6928290000000  0.4666740000000  0.3236750000000 1.0
C      1  0.3071780000000  0.5333250000000  0.3236700000000 1.0
C      1  0.6928250000000  0.5333290000000  0.6763290000000 1.0
C      1  0.3071740000000  0.4666730000000  0.6763250000000 1.0
C      1  0.3260610000000  0.3743250000000  0.4670100000000 1.0
C      1  0.6739380000000  0.6256750000000  0.4670130000000 1.0
C      1  0.3260580000000  0.6256730000000  0.5329860000000 1.0
C      1  0.6739390000000  0.3743280000000  0.5329910000000 1.0
C      1  0.3318540000000  0.5812160000000  0.4077860000000 1.0
C      1  0.6681510000000  0.4187820000000  0.4077900000000 1.0
C      1  0.3318530000000  0.4187820000000  0.5922100000000 1.0
C      1  0.6681480000000  0.5812200000000  0.5922130000000 1.0
C      1  0.4501050000000  0.7251850000000  0.6038160000000 1.0
C      1  0.5498910000000  0.2748160000000  0.6038200000000 1.0
C      1  0.4501110000000  0.2748150000000  0.3961830000000 1.0
C      1  0.5498900000000  0.7251850000000  0.3961810000000 1.0
C      1  0.3674640000000  0.3858990000000  0.3030840000000 1.0
C      1  0.6325390000000  0.6140980000000  0.3030860000000 1.0
C      1  0.3674580000000  0.6140990000000  0.6969130000000 1.0
C      1  0.6325360000000  0.3859040000000  0.6969170000000 1.0
C      1  0.2791050000000  0.5384590000000  0.5330090000000 1.0
C      1  0.7208930000000  0.4615410000000  0.5330140000000 1.0
C      1  0.2791060000000  0.4615380000000  0.4669860000000 1.0
C      1  0.7208930000000  0.5384620000000  0.4669910000000 1.0
END
