TITL C-986975-4297-399 0.0501786690267468 3375 -345.609894927067 0 0 60 (Ci) n - 1
REM
REM in /home/bkarasulu/work/CARBON/AIRSS/Generating-Clusters/REBO/Higher-Symm/Only-C60
REM
REM
REM
REM
REM
REM ./C.cell (a2850807a9bf4ad07a5b6933b78d9264)
REM AIRSS Version 0.9.1 bugfix July 2018 build 013d7b7c2542+ Fri, 06 Jul 2018 19:26:36 +0100
REM compiler GCC version 9.2.1 20190827 (Red Hat 9.2.1-1)
REM options -cpp -mtune=generic -march=x86-64 -g -O0 -fpre-include=/usr/include/finclude/math-vector-fortran.h
REM seed -955757940 -1896250713 1600174170 711113101 -535893764 -1612566215 -408513553 1023831205 1222016609 -1708738187 214284772 1527700174 -1297378816 1770205033 469683014 1032038501 -657760733 -317156034 818413009 -468059505 14660288 2112229988 1046637714 2092196867 1303248415 17596267 716542 -1129074632 1886065192 -349574052 1394972341 -382179527 2059941553
REM
CELL 1.54180   15.00000   15.00000   15.00000   90.00000   90.00000   90.00000
LATT -1
SFAC C  
C      1  0.3611350000000  0.4477080000000  0.4409140000000 1.0
C      1  0.6389410000000  0.4496880000000  0.5606790000000 1.0
C      1  0.3608460000000  0.5516460000000  0.4401910000000 1.0
C      1  0.6390690000000  0.5535610000000  0.5583040000000 1.0
C      1  0.3784990000000  0.5572150000000  0.3343800000000 1.0
C      1  0.6210070000000  0.5556600000000  0.6645870000000 1.0
C      1  0.3788430000000  0.4433730000000  0.3347710000000 1.0
C      1  0.6216630000000  0.4419430000000  0.6662370000000 1.0
C      1  0.5218130000000  0.6745260000000  0.7310270000000 1.0
C      1  0.4784480000000  0.6748610000000  0.2690940000000 1.0
C      1  0.5213670000000  0.3248150000000  0.7308540000000 1.0
C      1  0.4784310000000  0.3252530000000  0.2690440000000 1.0
C      1  0.3593490000000  0.6122220000000  0.6727010000000 1.0
C      1  0.6405270000000  0.6118640000000  0.3271480000000 1.0
C      1  0.3596420000000  0.3881030000000  0.6727850000000 1.0
C      1  0.6405060000000  0.3877510000000  0.3273320000000 1.0
C      1  0.5540050000000  0.4431330000000  0.4119270000000 1.0
C      1  0.4465470000000  0.4430270000000  0.5883760000000 1.0
C      1  0.5534490000000  0.5571900000000  0.4117460000000 1.0
C      1  0.4460510000000  0.5569760000000  0.5879630000000 1.0
C      1  0.5610920000000  0.6151120000000  0.2738730000000 1.0
C      1  0.4387570000000  0.6151760000000  0.7261750000000 1.0
C      1  0.5611090000000  0.3848030000000  0.2739160000000 1.0
C      1  0.4390300000000  0.3848860000000  0.7260290000000 1.0
C      1  0.3834430000000  0.7037090000000  0.4057260000000 1.0
C      1  0.6164150000000  0.7034690000000  0.5943020000000 1.0
C      1  0.3835670000000  0.2964830000000  0.4057550000000 1.0
C      1  0.6165780000000  0.2962330000000  0.5942060000000 1.0
C      1  0.4453940000000  0.5888120000000  0.4825990000000 1.0
C      1  0.5537880000000  0.5892580000000  0.5170870000000 1.0
C      1  0.4460970000000  0.4111550000000  0.4829010000000 1.0
C      1  0.5547290000000  0.4116100000000  0.5174270000000 1.0
C      1  0.6658890000000  0.6764230000000  0.5073340000000 1.0
C      1  0.3339170000000  0.6767810000000  0.4927870000000 1.0
C      1  0.6661260000000  0.3229290000000  0.5069690000000 1.0
C      1  0.3340670000000  0.3233110000000  0.4928840000000 1.0
C      1  0.3832460000000  0.6531390000000  0.5797570000000 1.0
C      1  0.6169410000000  0.6528250000000  0.4200360000000 1.0
C      1  0.3834720000000  0.3471690000000  0.5798790000000 1.0
C      1  0.6163290000000  0.3468300000000  0.4202480000000 1.0
C      1  0.3052520000000  0.4516780000000  0.6064440000000 1.0
C      1  0.6943980000000  0.4515500000000  0.3939330000000 1.0
C      1  0.3053130000000  0.5483850000000  0.6063540000000 1.0
C      1  0.6950290000000  0.5482310000000  0.3933150000000 1.0
C      1  0.5114400000000  0.5528860000000  0.6780180000000 1.0
C      1  0.4877270000000  0.5529690000000  0.3213500000000 1.0
C      1  0.5125210000000  0.4471350000000  0.6790330000000 1.0
C      1  0.4882770000000  0.4470960000000  0.3215720000000 1.0
C      1  0.7109390000000  0.5840400000000  0.4838280000000 1.0
C      1  0.2899600000000  0.5838660000000  0.5155240000000 1.0
C      1  0.7091980000000  0.4162660000000  0.4849970000000 1.0
C      1  0.2898030000000  0.4161030000000  0.5157260000000 1.0
C      1  0.4001320000000  0.6593210000000  0.3223050000000 1.0
C      1  0.5998180000000  0.6584190000000  0.6774450000000 1.0
C      1  0.4002350000000  0.3409800000000  0.3223570000000 1.0
C      1  0.5998370000000  0.3400940000000  0.6778540000000 1.0
C      1  0.4627490000000  0.6993280000000  0.4698990000000 1.0
C      1  0.5370950000000  0.6992970000000  0.5301700000000 1.0
C      1  0.4628950000000  0.3008810000000  0.4698290000000 1.0
C      1  0.5372600000000  0.3008460000000  0.5300960000000 1.0
END
