TITL C-986974-580-297 1.84750306236058e-06 3375 -345.354428796619 0 0 60 (C5) n - 1
REM
REM in /home/bkarasulu/work/CARBON/AIRSS/Generating-Clusters/REBO/Higher-Symm/Only-C60
REM
REM
REM
REM
REM
REM ./C.cell (a2850807a9bf4ad07a5b6933b78d9264)
REM AIRSS Version 0.9.1 bugfix July 2018 build 013d7b7c2542+ Fri, 06 Jul 2018 19:26:36 +0100
REM compiler GCC version 9.2.1 20190827 (Red Hat 9.2.1-1)
REM options -cpp -mtune=generic -march=x86-64 -g -O0 -fpre-include=/usr/include/finclude/math-vector-fortran.h
REM seed -1110514470 -1364675818 -567307377 -1223038876 -1300989958 -1075876405 -814597027 -518872636 1079485056 1087918984 -1201057662 1100219732 -1405631900 -40614774 -1252360671 1596794491 -43597143 -1161163047 290836362 583034196 -2026694441 -1945123564 1085932276 911671648 696239415 276884068 1430723707 -1369028593 1084089725 -1268649405 -1311587468 1050070998 -127650531
REM
CELL 1.54180   15.00000   15.00000   15.00000   90.00000   90.00000   90.00000
LATT -1
SFAC C  
C      1  0.4580160000000  0.6555970000000  0.6652500000000 1.0
C      1  0.3298600000000  0.6555930000000  0.5111370000000 1.0
C      1  0.4368280000000  0.6555930000000  0.3416300000000 1.0
C      1  0.6310940000000  0.6555980000000  0.3909820000000 1.0
C      1  0.6441890000000  0.6556000000000  0.5909900000000 1.0
C      1  0.7382350000000  0.4775260000000  0.3718570000000 1.0
C      1  0.6954910000000  0.4775290000000  0.6869770000000 1.0
C      1  0.3825850000000  0.4775240000000  0.7437020000000 1.0
C      1  0.2319430000000  0.4775180000000  0.4636390000000 1.0
C      1  0.4517470000000  0.4775190000000  0.2338270000000 1.0
C      1  0.4630730000000  0.4502100000000  0.4185730000000 1.0
C      1  0.5660320000000  0.4502130000000  0.4397180000000 1.0
C      1  0.5777380000000  0.4502150000000  0.5441710000000 1.0
C      1  0.4820150000000  0.4502130000000  0.5875830000000 1.0
C      1  0.4111470000000  0.4502100000000  0.5099590000000 1.0
C      1  0.5271060000000  0.3371900000000  0.6722630000000 1.0
C      1  0.3445480000000  0.3371850000000  0.5790110000000 1.0
C      1  0.3768230000000  0.3371830000000  0.3765700000000 1.0
C      1  0.5793290000000  0.3371860000000  0.3447080000000 1.0
C      1  0.6722090000000  0.3371900000000  0.5274570000000 1.0
C      1  0.2728610000000  0.3955620000000  0.6252190000000 1.0
C      1  0.3107230000000  0.3955590000000  0.3226720000000 1.0
C      1  0.6101610000000  0.3955640000000  0.2651880000000 1.0
C      1  0.7573630000000  0.3955700000000  0.5322080000000 1.0
C      1  0.5489010000000  0.3955690000000  0.7547190000000 1.0
C      1  0.4746960000000  0.3586860000000  0.3542840000000 1.0
C      1  0.6307680000000  0.3586910000000  0.4309040000000 1.0
C      1  0.6061260000000  0.3586930000000  0.6030150000000 1.0
C      1  0.4348250000000  0.3586890000000  0.6327650000000 1.0
C      1  0.3535960000000  0.3586850000000  0.4790400000000 1.0
C      1  0.6136820000000  0.5184990000000  0.3791550000000 1.0
C      1  0.6500600000000  0.5185020000000  0.5707760000000 1.0
C      1  0.4790590000000  0.5184990000000  0.6645860000000 1.0
C      1  0.3369980000000  0.5184950000000  0.5309440000000 1.0
C      1  0.4202000000000  0.5184940000000  0.3545390000000 1.0
C      1  0.7331510000000  0.4041040000000  0.4314100000000 1.0
C      1  0.6372830000000  0.4041060000000  0.7005440000000 1.0
C      1  0.3516960000000  0.4041000000000  0.6925340000000 1.0
C      1  0.2710630000000  0.4040950000000  0.4184500000000 1.0
C      1  0.5068150000000  0.4040970000000  0.2570670000000 1.0
C      1  0.6861160000000  0.6504750000000  0.4903480000000 1.0
C      1  0.5666890000000  0.6504750000000  0.6740250000000 1.0
C      1  0.3550970000000  0.6504700000000  0.6172030000000 1.0
C      1  0.3437520000000  0.6504670000000  0.3984070000000 1.0
C      1  0.5483340000000  0.6504700000000  0.3200070000000 1.0
C      1  0.4889450000000  0.4709640000000  0.7595260000000 1.0
C      1  0.2497610000000  0.4709580000000  0.5696840000000 1.0
C      1  0.3563990000000  0.4709560000000  0.2835430000000 1.0
C      1  0.6614890000000  0.4709620000000  0.2965380000000 1.0
C      1  0.7434070000000  0.4709670000000  0.5907120000000 1.0
C      1  0.4314810000000  0.7072380000000  0.4426700000000 1.0
C      1  0.5333460000000  0.7072400000000  0.4171200000000 1.0
C      1  0.5891230000000  0.7072420000000  0.5061040000000 1.0
C      1  0.5217300000000  0.7072410000000  0.5866490000000 1.0
C      1  0.4243020000000  0.7072390000000  0.5474440000000 1.0
C      1  0.2843220000000  0.5739520000000  0.4487860000000 1.0
C      1  0.4820570000000  0.5739530000000  0.2790530000000 1.0
C      1  0.7045870000000  0.5739590000000  0.4146590000000 1.0
C      1  0.6443830000000  0.5739620000000  0.6682030000000 1.0
C      1  0.3846450000000  0.5739570000000  0.6892950000000 1.0
END
