TITL C-986976-6631-779 -3.5865204665926e-07 3375 -349.354318782945 0 0 60 (S10) n - 1
REM
REM in /home/bkarasulu/work/CARBON/AIRSS/Generating-Clusters/REBO/Higher-Symm/Only-C60
REM
REM
REM
REM
REM
REM ./C.cell (a2850807a9bf4ad07a5b6933b78d9264)
REM AIRSS Version 0.9.1 bugfix July 2018 build 013d7b7c2542+ Fri, 06 Jul 2018 19:26:36 +0100
REM compiler GCC version 9.2.1 20190827 (Red Hat 9.2.1-1)
REM options -cpp -mtune=generic -march=x86-64 -g -O0 -fpre-include=/usr/include/finclude/math-vector-fortran.h
REM seed -256914448 -154589941 -773482151 1229116719 1270882986 -119830861 -814952820 1841419929 1565825384 -1267583941 1258461455 1338888420 -1754071856 -780435719 1047779120 -788713671 -1003046654 1140151500 167215585 938947016 -1303128033 1915966628 1526586969 710727808 -970117842 397777937 -1827533864 -404696409 1251204392 927612952 241910133 -1208492195 -1019252998
REM
CELL 1.54180   15.00000   15.00000   15.00000   90.00000   90.00000   90.00000
LATT -1
SFAC C  
C      1  0.5641020000000  0.3900670000000  0.2929030000000 1.0
C      1  0.6735920000000  0.6099150000000  0.3701270000000 1.0
C      1  0.7167750000000  0.3900740000000  0.4969740000000 1.0
C      1  0.6771560000000  0.6099260000000  0.6249580000000 1.0
C      1  0.5698680000000  0.3900850000000  0.7052330000000 1.0
C      1  0.4358980000000  0.6099330000000  0.7070970000000 1.0
C      1  0.3264080000000  0.3900850000000  0.6298730000000 1.0
C      1  0.2832250000000  0.6099260000000  0.5030260000000 1.0
C      1  0.3228440000000  0.3900740000000  0.3750420000000 1.0
C      1  0.4301320000000  0.6099150000000  0.2947670000000 1.0
C      1  0.3013930000000  0.4889270000000  0.3266030000000 1.0
C      1  0.4412460000000  0.5110560000000  0.2429790000000 1.0
C      1  0.6035390000000  0.4889210000000  0.2575320000000 1.0
C      1  0.7262840000000  0.5110580000000  0.3646960000000 1.0
C      1  0.7625960000000  0.4889320000000  0.5235470000000 1.0
C      1  0.6986070000000  0.5110730000000  0.6733970000000 1.0
C      1  0.5587540000000  0.4889440000000  0.7570210000000 1.0
C      1  0.3964610000000  0.5110790000000  0.7424680000000 1.0
C      1  0.2737160000000  0.4889420000000  0.6353040000000 1.0
C      1  0.2374040000000  0.5110680000000  0.4764530000000 1.0
C      1  0.5494100000000  0.4820300000000  0.3601160000000 1.0
C      1  0.6221960000000  0.5179570000000  0.4158730000000 1.0
C      1  0.6483070000000  0.4820340000000  0.5037660000000 1.0
C      1  0.6177700000000  0.5179640000000  0.5902180000000 1.0
C      1  0.5422480000000  0.4820420000000  0.6422120000000 1.0
C      1  0.4505900000000  0.5179700000000  0.6398840000000 1.0
C      1  0.3778040000000  0.4820430000000  0.5841270000000 1.0
C      1  0.3516930000000  0.5179660000000  0.4962340000000 1.0
C      1  0.3822300000000  0.4820360000000  0.4097820000000 1.0
C      1  0.4577520000000  0.5179580000000  0.3577880000000 1.0
C      1  0.6513820000000  0.3672980000000  0.4200200000000 1.0
C      1  0.6694860000000  0.6326960000000  0.5242630000000 1.0
C      1  0.6228500000000  0.3673060000000  0.6192630000000 1.0
C      1  0.5292930000000  0.6327030000000  0.6686830000000 1.0
C      1  0.4245430000000  0.3673100000000  0.6536970000000 1.0
C      1  0.3486180000000  0.6327020000000  0.5799800000000 1.0
C      1  0.3305140000000  0.3673040000000  0.4757370000000 1.0
C      1  0.3771500000000  0.6326940000000  0.3807370000000 1.0
C      1  0.4707070000000  0.3672970000000  0.3313170000000 1.0
C      1  0.5754570000000  0.6326900000000  0.3463030000000 1.0
C      1  0.3902700000000  0.4256360000000  0.2897320000000 1.0
C      1  0.5348230000000  0.5743460000000  0.2653870000000 1.0
C      1  0.6660700000000  0.4256330000000  0.3306670000000 1.0
C      1  0.7338890000000  0.5743510000000  0.4606160000000 1.0
C      1  0.7123660000000  0.4256440000000  0.6056190000000 1.0
C      1  0.6097300000000  0.5743640000000  0.7102680000000 1.0
C      1  0.4651770000000  0.4256540000000  0.7346130000000 1.0
C      1  0.3339300000000  0.5743670000000  0.6693330000000 1.0
C      1  0.2661110000000  0.4256490000000  0.5393840000000 1.0
C      1  0.2876340000000  0.5743560000000  0.3943810000000 1.0
C      1  0.5701460000000  0.3367770000000  0.4556260000000 1.0
C      1  0.5828380000000  0.6632200000000  0.5053170000000 1.0
C      1  0.5638860000000  0.3367810000000  0.5530070000000 1.0
C      1  0.5205350000000  0.6632230000000  0.5804200000000 1.0
C      1  0.4693360000000  0.3367820000000  0.5771450000000 1.0
C      1  0.4298540000000  0.6632230000000  0.5443740000000 1.0
C      1  0.4171620000000  0.3367800000000  0.4946830000000 1.0
C      1  0.4361140000000  0.6632190000000  0.4469930000000 1.0
C      1  0.4794650000000  0.3367770000000  0.4195800000000 1.0
C      1  0.5306640000000  0.6632180000000  0.4228550000000 1.0
END
