TITL C-986976-6631-303 1.02311864309962e-06 3375 -342.045175948878 0 0 60 (C2) n - 1
REM
REM in /home/bkarasulu/work/CARBON/AIRSS/Generating-Clusters/REBO/Higher-Symm/Only-C60
REM
REM
REM
REM
REM
REM ./C.cell (a2850807a9bf4ad07a5b6933b78d9264)
REM AIRSS Version 0.9.1 bugfix July 2018 build 013d7b7c2542+ Fri, 06 Jul 2018 19:26:36 +0100
REM compiler GCC version 9.2.1 20190827 (Red Hat 9.2.1-1)
REM options -cpp -mtune=generic -march=x86-64 -g -O0 -fpre-include=/usr/include/finclude/math-vector-fortran.h
REM seed -1764594375 -2075516987 493595932 -53723311 496857346 -566567647 -647475893 -265217829 -1578749489 177066438 42101831 -1082065415 -1348106403 -1852092532 522586776 -389095038 -1761051357 896830411 1232582553 1685122438 -40629746 1058114119 -73879737 -466281191 350134657 -334213930 -2025252389 -1766158194 1451357985 -90890621 -421695029 -2015702443 -1557253634
REM
CELL 1.54180   15.00000   15.00000   15.00000   90.00000   90.00000   90.00000
LATT -1
SFAC C  
C      1  0.3843460000000  0.6266910000000  0.6807990000000 1.0
C      1  0.3947560000000  0.5312640000000  0.7082220000000 1.0
C      1  0.3215610000000  0.3910540000000  0.7382360000000 1.0
C      1  0.3725660000000  0.3565420000000  0.5727120000000 1.0
C      1  0.3009750000000  0.2779560000000  0.4580560000000 1.0
C      1  0.3843470000000  0.3733080000000  0.3192010000000 1.0
C      1  0.3947560000000  0.4687350000000  0.2917780000000 1.0
C      1  0.3215600000000  0.6089440000000  0.2617640000000 1.0
C      1  0.3725640000000  0.6434570000000  0.4272880000000 1.0
C      1  0.3009730000000  0.7220420000000  0.5419440000000 1.0
C      1  0.5719600000000  0.6168110000000  0.3841070000000 1.0
C      1  0.5332440000000  0.6522310000000  0.4814730000000 1.0
C      1  0.5744560000000  0.6340850000000  0.5815970000000 1.0
C      1  0.5778390000000  0.5672520000000  0.6503300000000 1.0
C      1  0.5427760000000  0.4689700000000  0.6736680000000 1.0
C      1  0.5719610000000  0.3831900000000  0.6158930000000 1.0
C      1  0.5332450000000  0.3477690000000  0.5185270000000 1.0
C      1  0.5744580000000  0.3659160000000  0.4184030000000 1.0
C      1  0.5778390000000  0.4327480000000  0.3496700000000 1.0
C      1  0.5427760000000  0.5310300000000  0.3263320000000 1.0
C      1  0.7450190000000  0.4331920000000  0.3549290000000 1.0
C      1  0.7241220000000  0.5314920000000  0.3376340000000 1.0
C      1  0.7386470000000  0.6134830000000  0.3946690000000 1.0
C      1  0.7150560000000  0.6605410000000  0.4811020000000 1.0
C      1  0.7417450000000  0.6386830000000  0.5773460000000 1.0
C      1  0.7450180000000  0.5668100000000  0.6450710000000 1.0
C      1  0.7241220000000  0.4685100000000  0.6623660000000 1.0
C      1  0.7386480000000  0.3865200000000  0.6053310000000 1.0
C      1  0.7150580000000  0.3394620000000  0.5188980000000 1.0
C      1  0.7417460000000  0.3613190000000  0.4226550000000 1.0
C      1  0.2918190000000  0.4103820000000  0.3510550000000 1.0
C      1  0.2914810000000  0.5111270000000  0.3114260000000 1.0
C      1  0.2881170000000  0.6062050000000  0.3665600000000 1.0
C      1  0.2653600000000  0.6469800000000  0.4649410000000 1.0
C      1  0.2540780000000  0.6326930000000  0.5766250000000 1.0
C      1  0.2918180000000  0.5896160000000  0.6489450000000 1.0
C      1  0.2914810000000  0.4888710000000  0.6885740000000 1.0
C      1  0.2881180000000  0.3937930000000  0.6334400000000 1.0
C      1  0.2653620000000  0.3530180000000  0.5350580000000 1.0
C      1  0.2540790000000  0.3673040000000  0.4233750000000 1.0
C      1  0.4575230000000  0.4641450000000  0.7235000000000 1.0
C      1  0.4119480000000  0.3878370000000  0.7571680000000 1.0
C      1  0.4379640000000  0.3211910000000  0.5178510000000 1.0
C      1  0.3966660000000  0.2748350000000  0.4454440000000 1.0
C      1  0.4236500000000  0.2975990000000  0.3573260000000 1.0
C      1  0.4575220000000  0.5358550000000  0.2765000000000 1.0
C      1  0.4119470000000  0.6121620000000  0.2428320000000 1.0
C      1  0.4379620000000  0.6788090000000  0.4821490000000 1.0
C      1  0.3966630000000  0.7251640000000  0.5545560000000 1.0
C      1  0.4236480000000  0.7024000000000  0.6426740000000 1.0
C      1  0.6606880000000  0.4138060000000  0.3008270000000 1.0
C      1  0.6446440000000  0.5437520000000  0.2809240000000 1.0
C      1  0.6524250000000  0.6535920000000  0.3551510000000 1.0
C      1  0.6293860000000  0.7088170000000  0.4733450000000 1.0
C      1  0.6551810000000  0.6874020000000  0.6009460000000 1.0
C      1  0.6606870000000  0.5861950000000  0.6991730000000 1.0
C      1  0.6446440000000  0.4562490000000  0.7190760000000 1.0
C      1  0.6524270000000  0.3464100000000  0.6448490000000 1.0
C      1  0.6293880000000  0.2911850000000  0.5266550000000 1.0
C      1  0.6551830000000  0.3126000000000  0.3990540000000 1.0
END
