TITL C-986975-4297-884 -2.38785320683145e-05 3375 -345.238143429412 0 0 60 (C5) n - 1
REM
REM in /home/bkarasulu/work/CARBON/AIRSS/Generating-Clusters/REBO/Higher-Symm/Only-C60
REM
REM
REM
REM
REM
REM ./C.cell (a2850807a9bf4ad07a5b6933b78d9264)
REM AIRSS Version 0.9.1 bugfix July 2018 build 013d7b7c2542+ Fri, 06 Jul 2018 19:26:36 +0100
REM compiler GCC version 9.2.1 20190827 (Red Hat 9.2.1-1)
REM options -cpp -mtune=generic -march=x86-64 -g -O0 -fpre-include=/usr/include/finclude/math-vector-fortran.h
REM seed -1524143344 881393984 349036014 583052226 -804856759 -50136884 -1566432907 391713867 1640511569 -1658229734 -1661188930 869913437 1285376543 -1826219031 534935042 -539137012 1383357979 1469227057 2083647504 1756419067 1481169407 728969720 701272403 1304058271 -1125734821 -685972342 -1936619974 -1604320450 -1262699789 474013060 -336950899 -1626091506 -157689395
REM
CELL 1.54180   15.00000   15.00000   15.00000   90.00000   90.00000   90.00000
LATT -1
SFAC C  
C      1  0.4191640000000  0.7112790000000  0.5756720000000 1.0
C      1  0.2740830000000  0.4883980000000  0.5756740000000 1.0
C      1  0.4412230000000  0.2815430000000  0.5756420000000 1.0
C      1  0.6896030000000  0.3765810000000  0.5756190000000 1.0
C      1  0.6759700000000  0.6421730000000  0.5756370000000 1.0
C      1  0.4000710000000  0.2805160000000  0.4204760000000 1.0
C      1  0.6778600000000  0.3371490000000  0.4204480000000 1.0
C      1  0.7098410000000  0.6188430000000  0.4204610000000 1.0
C      1  0.4518150000000  0.7363070000000  0.4204980000000 1.0
C      1  0.2603670000000  0.5272090000000  0.4205070000000 1.0
C      1  0.5205310000000  0.5852050000000  0.5342220000000 1.0
C      1  0.4253110000000  0.5458520000000  0.5342300000000 1.0
C      1  0.4333130000000  0.4431320000000  0.5342230000000 1.0
C      1  0.5334780000000  0.4190010000000  0.5342100000000 1.0
C      1  0.5873820000000  0.5068060000000  0.5342090000000 1.0
C      1  0.4569960000000  0.4251360000000  0.2953160000000 1.0
C      1  0.5579070000000  0.4359980000000  0.2953050000000 1.0
C      1  0.5787600000000  0.5353270000000  0.2953090000000 1.0
C      1  0.4907370000000  0.5858530000000  0.2953210000000 1.0
C      1  0.4154820000000  0.5177510000000  0.2953260000000 1.0
C      1  0.6556920000000  0.3996900000000  0.6594760000000 1.0
C      1  0.6435150000000  0.6170500000000  0.6594910000000 1.0
C      1  0.4330300000000  0.6726360000000  0.6595200000000 1.0
C      1  0.3151210000000  0.4896300000000  0.6595220000000 1.0
C      1  0.4527340000000  0.3209410000000  0.6594950000000 1.0
C      1  0.2710290000000  0.5804770000000  0.5108410000000 1.0
C      1  0.3527050000000  0.3071020000000  0.5108150000000 1.0
C      1  0.6379410000000  0.3003030000000  0.5107820000000 1.0
C      1  0.7325490000000  0.5694770000000  0.5107880000000 1.0
C      1  0.5057840000000  0.7426340000000  0.5108240000000 1.0
C      1  0.7523940000000  0.3899490000000  0.4377720000000 1.0
C      1  0.6826570000000  0.7060430000000  0.4377990000000 1.0
C      1  0.3604840000000  0.7373960000000  0.4378380000000 1.0
C      1  0.2311090000000  0.4406810000000  0.4378340000000 1.0
C      1  0.4733220000000  0.2259480000000  0.4377930000000 1.0
C      1  0.4816380000000  0.6660590000000  0.3635440000000 1.0
C      1  0.3363920000000  0.5338720000000  0.3635530000000 1.0
C      1  0.4172250000000  0.3548870000000  0.3635340000000 1.0
C      1  0.6124290000000  0.3764550000000  0.3635130000000 1.0
C      1  0.6522380000000  0.5687700000000  0.3635200000000 1.0
C      1  0.4937040000000  0.5880010000000  0.4282430000000 1.0
C      1  0.4143590000000  0.5212180000000  0.4282480000000 1.0
C      1  0.4533550000000  0.4251200000000  0.4282370000000 1.0
C      1  0.5568000000000  0.4325110000000  0.4282260000000 1.0
C      1  0.5817370000000  0.5331770000000  0.4282300000000 1.0
C      1  0.2743730000000  0.3892020000000  0.5207680000000 1.0
C      1  0.5356520000000  0.2511740000000  0.5207290000000 1.0
C      1  0.7476650000000  0.4570120000000  0.5207170000000 1.0
C      1  0.6174160000000  0.7222560000000  0.5207490000000 1.0
C      1  0.3249060000000  0.6803470000000  0.5207800000000 1.0
C      1  0.4278400000000  0.5597970000000  0.6664670000000 1.0
C      1  0.4208340000000  0.4498240000000  0.6664610000000 1.0
C      1  0.5232600000000  0.4091780000000  0.6664470000000 1.0
C      1  0.5935680000000  0.4940300000000  0.6664430000000 1.0
C      1  0.5345950000000  0.5871170000000  0.6664560000000 1.0
C      1  0.3648950000000  0.3901120000000  0.5872570000000 1.0
C      1  0.5627610000000  0.3375370000000  0.5872290000000 1.0
C      1  0.6739080000000  0.5094710000000  0.5872280000000 1.0
C      1  0.5447340000000  0.6683110000000  0.5872550000000 1.0
C      1  0.3537520000000  0.5945420000000  0.5872720000000 1.0
END
