TITL C-986975-4297-422 0.101687601112599 3375 -325.78709033837 0 0 60 (C2) n - 1
REM
REM in /home/bkarasulu/work/CARBON/AIRSS/Generating-Clusters/REBO/Higher-Symm/Only-C60
REM
REM
REM
REM
REM
REM ./C.cell (a2850807a9bf4ad07a5b6933b78d9264)
REM AIRSS Version 0.9.1 bugfix July 2018 build 013d7b7c2542+ Fri, 06 Jul 2018 19:26:36 +0100
REM compiler GCC version 9.2.1 20190827 (Red Hat 9.2.1-1)
REM options -cpp -mtune=generic -march=x86-64 -g -O0 -fpre-include=/usr/include/finclude/math-vector-fortran.h
REM seed -1364428731 1933154255 928018911 685139651 949402780 695712560 -1085974745 1616174230 -1171030554 -1948808169 624928714 1064854216 -1628701086 1603810272 1513444645 531890206 507370533 667249214 -1718920749 -1070606574 -1763976374 422813775 95642419 -556111107 30894007 1954190680 -1246639952 1885680821 42127035 110554391 -1518081864 -580625257 702983582
REM
CELL 1.54180   15.00000   15.00000   15.00000   90.00000   90.00000   90.00000
LATT -1
SFAC C  
C      1  0.6682120000000  0.6605490000000  0.3897160000000 1.0
C      1  0.5072370000000  0.6567340000000  0.6901550000000 1.0
C      1  0.3198820000000  0.6643160000000  0.4155390000000 1.0
C      1  0.3317940000000  0.3394750000000  0.3897370000000 1.0
C      1  0.4927590000000  0.3432670000000  0.6901510000000 1.0
C      1  0.6800970000000  0.3357050000000  0.4155290000000 1.0
C      1  0.6509370000000  0.6380220000000  0.5929880000000 1.0
C      1  0.3279540000000  0.6620400000000  0.5844890000000 1.0
C      1  0.4996260000000  0.6307460000000  0.3176730000000 1.0
C      1  0.3490780000000  0.3619770000000  0.5929920000000 1.0
C      1  0.6720360000000  0.3379570000000  0.5844890000000 1.0
C      1  0.5003910000000  0.3692570000000  0.3176350000000 1.0
C      1  0.3832950000000  0.4275860000000  0.6495170000000 1.0
C      1  0.4376970000000  0.4378360000000  0.3180480000000 1.0
C      1  0.6762710000000  0.4407390000000  0.5538580000000 1.0
C      1  0.6167040000000  0.5724170000000  0.6495040000000 1.0
C      1  0.5622990000000  0.5621740000000  0.3180520000000 1.0
C      1  0.3237210000000  0.5592540000000  0.5538610000000 1.0
C      1  0.4518230000000  0.4805830000000  0.4196720000000 1.0
C      1  0.5837050000000  0.4740510000000  0.5017420000000 1.0
C      1  0.4575680000000  0.4736900000000  0.5804820000000 1.0
C      1  0.5481800000000  0.5194200000000  0.4196810000000 1.0
C      1  0.4162940000000  0.5259530000000  0.5017380000000 1.0
C      1  0.5424250000000  0.5263100000000  0.5804860000000 1.0
C      1  0.2982530000000  0.4450270000000  0.3794170000000 1.0
C      1  0.7113740000000  0.4406840000000  0.3934060000000 1.0
C      1  0.4898160000000  0.4409220000000  0.7277530000000 1.0
C      1  0.7017450000000  0.5549760000000  0.3794380000000 1.0
C      1  0.2886490000000  0.5593130000000  0.3934000000000 1.0
C      1  0.5101830000000  0.5590910000000  0.7277580000000 1.0
C      1  0.4103390000000  0.2939680000000  0.5396710000000 1.0
C      1  0.5084480000000  0.2959010000000  0.3948770000000 1.0
C      1  0.5832780000000  0.2857140000000  0.5610540000000 1.0
C      1  0.5896800000000  0.7060100000000  0.5396710000000 1.0
C      1  0.4915420000000  0.7040830000000  0.3948680000000 1.0
C      1  0.4167170000000  0.7142890000000  0.5610610000000 1.0
C      1  0.3666190000000  0.5156380000000  0.3233840000000 1.0
C      1  0.7107930000000  0.5085200000000  0.4831880000000 1.0
C      1  0.4132450000000  0.5198750000000  0.6969550000000 1.0
C      1  0.6333720000000  0.4843550000000  0.3233800000000 1.0
C      1  0.2891990000000  0.4914830000000  0.4832030000000 1.0
C      1  0.5867640000000  0.4801240000000  0.6969540000000 1.0
C      1  0.5926520000000  0.3666030000000  0.4815740000000 1.0
C      1  0.4828280000000  0.3702300000000  0.5822770000000 1.0
C      1  0.4326900000000  0.3716100000000  0.4324110000000 1.0
C      1  0.4073470000000  0.6333940000000  0.4816010000000 1.0
C      1  0.5171600000000  0.6297820000000  0.5822800000000 1.0
C      1  0.5673010000000  0.6283750000000  0.4323850000000 1.0
C      1  0.6591250000000  0.6014140000000  0.4962290000000 1.0
C      1  0.4141220000000  0.5939400000000  0.6169180000000 1.0
C      1  0.4125310000000  0.6006630000000  0.3695130000000 1.0
C      1  0.3408800000000  0.3985750000000  0.4962050000000 1.0
C      1  0.5858820000000  0.4060660000000  0.6169170000000 1.0
C      1  0.5874890000000  0.3993220000000  0.3695420000000 1.0
C      1  0.3667310000000  0.2613660000000  0.4640380000000 1.0
C      1  0.5950080000000  0.2620580000000  0.4004850000000 1.0
C      1  0.5353550000000  0.2649290000000  0.6429700000000 1.0
C      1  0.6332780000000  0.7386230000000  0.4640340000000 1.0
C      1  0.4049820000000  0.7379490000000  0.4004840000000 1.0
C      1  0.4646370000000  0.7350690000000  0.6429630000000 1.0
END
