TITL C-986975-4297-1174 0.0258727031152076 3375 -326.218201547193 0 0 60 (C1) n - 1
REM
REM in /home/bkarasulu/work/CARBON/AIRSS/Generating-Clusters/REBO/Higher-Symm/Only-C60
REM
REM
REM
REM
REM
REM ./C.cell (a2850807a9bf4ad07a5b6933b78d9264)
REM AIRSS Version 0.9.1 bugfix July 2018 build 013d7b7c2542+ Fri, 06 Jul 2018 19:26:36 +0100
REM compiler GCC version 9.2.1 20190827 (Red Hat 9.2.1-1)
REM options -cpp -mtune=generic -march=x86-64 -g -O0 -fpre-include=/usr/include/finclude/math-vector-fortran.h
REM seed 765827026 9596362 -1210697998 -1474262543 -999016521 1493987447 1189485045 1780934010 -767735683 -987757888 -1110095435 -1951129754 -203515083 1639256832 2112442159 170226664 -1878233067 -1975454431 154031065 -1318108905 534507542 -545887849 -1525494664 -2118530804 -514557113 -795004619 1450443760 -1385035421 1845516263 -1053157065 2115254415 -355556989 835513609
REM
CELL 1.54180   15.00000   15.00000   15.00000   90.00000   90.00000   90.00000
LATT -1
SFAC C  
C      1  0.3515580000000  0.3727300000000  0.5736750000000 1.0
C      1  0.3491070000000  0.4997640000000  0.3515440000000 1.0
C      1  0.3470450000000  0.6277210000000  0.5738760000000 1.0
C      1  0.5294020000000  0.4606450000000  0.5508530000000 1.0
C      1  0.5242770000000  0.4847230000000  0.4409450000000 1.0
C      1  0.5236640000000  0.5678240000000  0.5172240000000 1.0
C      1  0.7455950000000  0.5458770000000  0.4508270000000 1.0
C      1  0.7369460000000  0.5250920000000  0.5588490000000 1.0
C      1  0.7497080000000  0.4404000000000  0.4873380000000 1.0
C      1  0.3914610000000  0.5499910000000  0.7255960000000 1.0
C      1  0.3968880000000  0.2811990000000  0.4316870000000 1.0
C      1  0.3930800000000  0.6692850000000  0.3442480000000 1.0
C      1  0.7287010000000  0.5777500000000  0.6560400000000 1.0
C      1  0.7319960000000  0.3305220000000  0.5046420000000 1.0
C      1  0.7294720000000  0.5810250000000  0.3469160000000 1.0
C      1  0.5544910000000  0.3500130000000  0.4703300000000 1.0
C      1  0.5521760000000  0.6016600000000  0.3823840000000 1.0
C      1  0.5503850000000  0.5509990000000  0.6504540000000 1.0
C      1  0.4205220000000  0.4491200000000  0.4151840000000 1.0
C      1  0.4196710000000  0.6018900000000  0.4975690000000 1.0
C      1  0.4222740000000  0.4530540000000  0.5884290000000 1.0
C      1  0.4954430000000  0.2961770000000  0.5795650000000 1.0
C      1  0.4925240000000  0.5358640000000  0.2821060000000 1.0
C      1  0.4874950000000  0.6766150000000  0.6408090000000 1.0
C      1  0.4674500000000  0.6189300000000  0.4079700000000 1.0
C      1  0.4651820000000  0.5221460000000  0.6498270000000 1.0
C      1  0.4695840000000  0.3634810000000  0.4440990000000 1.0
C      1  0.3031890000000  0.5057230000000  0.6759590000000 1.0
C      1  0.3062650000000  0.3437390000000  0.4181750000000 1.0
C      1  0.3027170000000  0.6482430000000  0.4052500000000 1.0
C      1  0.5265900000000  0.3772490000000  0.6197160000000 1.0
C      1  0.5249210000000  0.4627850000000  0.3344170000000 1.0
C      1  0.5206220000000  0.6694040000000  0.5514090000000 1.0
C      1  0.6412620000000  0.4118900000000  0.4997380000000 1.0
C      1  0.6379180000000  0.5377980000000  0.4188550000000 1.0
C      1  0.6296620000000  0.5340010000000  0.5791960000000 1.0
C      1  0.6280350000000  0.6125850000000  0.6836660000000 1.0
C      1  0.6288940000000  0.2821450000000  0.5060910000000 1.0
C      1  0.6257960000000  0.6045990000000  0.3068080000000 1.0
C      1  0.2799380000000  0.3792430000000  0.4988110000000 1.0
C      1  0.2767560000000  0.5606850000000  0.3944940000000 1.0
C      1  0.2766540000000  0.5578610000000  0.6050090000000 1.0
C      1  0.6592790000000  0.3634300000000  0.6812750000000 1.0
C      1  0.6589320000000  0.4129600000000  0.2814430000000 1.0
C      1  0.6790470000000  0.7085820000000  0.5227790000000 1.0
C      1  0.4898940000000  0.3765190000000  0.3128470000000 1.0
C      1  0.4848200000000  0.7299700000000  0.4868500000000 1.0
C      1  0.4879270000000  0.3999210000000  0.7044730000000 1.0
C      1  0.4030050000000  0.4362450000000  0.7292220000000 1.0
C      1  0.4061800000000  0.3347500000000  0.3313210000000 1.0
C      1  0.4015080000000  0.7292550000000  0.4408890000000 1.0
C      1  0.3261010000000  0.3984200000000  0.3359270000000 1.0
C      1  0.3219870000000  0.6921550000000  0.4940860000000 1.0
C      1  0.3253160000000  0.4078990000000  0.6689440000000 1.0
C      1  0.4119340000000  0.2936280000000  0.5413620000000 1.0
C      1  0.4086600000000  0.5687770000000  0.2997310000000 1.0
C      1  0.4053350000000  0.6403300000000  0.6602570000000 1.0
C      1  0.6715630000000  0.6410000000000  0.5803670000000 1.0
C      1  0.6622100000000  0.3478790000000  0.5937370000000 1.0
C      1  0.6609850000000  0.4958320000000  0.3139110000000 1.0
END
