TITL C-986979-5873-333 0.0414757866171425 3375 -363.896667129661 0 0 60 (D2h) n - 1
REM
REM in /home/bkarasulu/work/CARBON/AIRSS/Generating-Clusters/REBO/Higher-Symm/Only-C60
REM
REM
REM
REM
REM
REM ./C.cell (a2850807a9bf4ad07a5b6933b78d9264)
REM AIRSS Version 0.9.1 bugfix July 2018 build 013d7b7c2542+ Fri, 06 Jul 2018 19:26:36 +0100
REM compiler GCC version 9.2.1 20190827 (Red Hat 9.2.1-1)
REM options -cpp -mtune=generic -march=x86-64 -g -O0 -fpre-include=/usr/include/finclude/math-vector-fortran.h
REM seed 193816583 543854773 1530751438 98686746 -823926460 442083497 -476979240 -1018341057 1804886525 302703604 367135392 -683840639 836415190 -238017799 210001190 -1535057146 -281843825 1789028258 856895972 -1948895641 1512379559 1060138456 -655168018 -556831334 333496180 -402166988 2042778597 1424434216 836626129 -1433309532 -1926690579 194810334 -926836735
REM
CELL 1.54180   15.00000   15.00000   15.00000   90.00000   90.00000   90.00000
LATT -1
SFAC C  
C      1  0.5416940000000  0.7508270000000  0.6170140000000 1.0
C      1  0.5416850000000  0.2491330000000  0.3830070000000 1.0
C      1  0.4583050000000  0.7508310000000  0.6170160000000 1.0
C      1  0.4583170000000  0.2491300000000  0.3830090000000 1.0
C      1  0.5416960000000  0.7508500000000  0.3829640000000 1.0
C      1  0.5416780000000  0.2491570000000  0.6169800000000 1.0
C      1  0.4583150000000  0.7508500000000  0.3829670000000 1.0
C      1  0.4583110000000  0.2491610000000  0.6169810000000 1.0
C      1  0.5520960000000  0.4480880000000  0.3000170000000 1.0
C      1  0.5521030000000  0.5519500000000  0.6999880000000 1.0
C      1  0.4479080000000  0.4480720000000  0.3000280000000 1.0
C      1  0.4478870000000  0.5519470000000  0.7000070000000 1.0
C      1  0.5521030000000  0.4480850000000  0.6999930000000 1.0
C      1  0.5521020000000  0.5519500000000  0.2999910000000 1.0
C      1  0.4478730000000  0.4480530000000  0.6999820000000 1.0
C      1  0.4479380000000  0.5519230000000  0.3000090000000 1.0
C      1  0.5508860000000  0.4073150000000  0.5505170000000 1.0
C      1  0.5509070000000  0.5926410000000  0.4494890000000 1.0
C      1  0.4490640000000  0.4072980000000  0.5505790000000 1.0
C      1  0.4491090000000  0.5926650000000  0.4494660000000 1.0
C      1  0.5508940000000  0.4073390000000  0.4494280000000 1.0
C      1  0.5508260000000  0.5926600000000  0.5504350000000 1.0
C      1  0.4491240000000  0.4073320000000  0.4494330000000 1.0
C      1  0.4490560000000  0.5926690000000  0.5505560000000 1.0
C      1  0.6248880000000  0.4043880000000  0.3389640000000 1.0
C      1  0.6249130000000  0.5956280000000  0.6610370000000 1.0
C      1  0.3751160000000  0.4043730000000  0.3389840000000 1.0
C      1  0.3751210000000  0.5956570000000  0.6610280000000 1.0
C      1  0.6248730000000  0.4043520000000  0.6610130000000 1.0
C      1  0.6249020000000  0.5956150000000  0.3389450000000 1.0
C      1  0.3751110000000  0.4043410000000  0.6610140000000 1.0
C      1  0.3751740000000  0.5955890000000  0.3390260000000 1.0
C      1  0.7005240000000  0.5478900000000  0.6276280000000 1.0
C      1  0.7005450000000  0.4521670000000  0.3723520000000 1.0
C      1  0.2994500000000  0.5478810000000  0.6276490000000 1.0
C      1  0.2994590000000  0.4521790000000  0.3723720000000 1.0
C      1  0.7005660000000  0.5478640000000  0.3723390000000 1.0
C      1  0.7005610000000  0.4521200000000  0.6276670000000 1.0
C      1  0.2994520000000  0.5478630000000  0.3723530000000 1.0
C      1  0.2994470000000  0.4521130000000  0.6276840000000 1.0
C      1  0.3945450000000  0.3247940000000  0.4069010000000 1.0
C      1  0.3945640000000  0.6751940000000  0.5932000000000 1.0
C      1  0.6054710000000  0.3247960000000  0.4068660000000 1.0
C      1  0.6054040000000  0.6751950000000  0.5931320000000 1.0
C      1  0.3945780000000  0.3248230000000  0.5931890000000 1.0
C      1  0.3945190000000  0.6752190000000  0.4068730000000 1.0
C      1  0.6054380000000  0.3248200000000  0.5931730000000 1.0
C      1  0.6054990000000  0.6752190000000  0.4068510000000 1.0
C      1  0.2640980000000  0.5923280000000  0.4478480000000 1.0
C      1  0.2640820000000  0.4076450000000  0.5521320000000 1.0
C      1  0.7359010000000  0.5923360000000  0.4478510000000 1.0
C      1  0.7358970000000  0.4076450000000  0.5521420000000 1.0
C      1  0.2641020000000  0.5923750000000  0.5521360000000 1.0
C      1  0.2640670000000  0.4076540000000  0.4478380000000 1.0
C      1  0.7359250000000  0.5923680000000  0.5521390000000 1.0
C      1  0.7359340000000  0.4076550000000  0.4478380000000 1.0
C      1  0.3333990000000  0.3330410000000  0.5000000000000 1.0
C      1  0.3334220000000  0.6669520000000  0.4999910000000 1.0
C      1  0.6666000000000  0.3330490000000  0.5000080000000 1.0
C      1  0.6665760000000  0.6669450000000  0.4999800000000 1.0
END
