TITL C-986979-5873-990 -6.34789889668549e-06 3375 -353.553058580395 0 0 60 (C5) n - 1
REM
REM in /home/bkarasulu/work/CARBON/AIRSS/Generating-Clusters/REBO/Higher-Symm/Only-C60
REM
REM
REM
REM
REM
REM ./C.cell (a2850807a9bf4ad07a5b6933b78d9264)
REM AIRSS Version 0.9.1 bugfix July 2018 build 013d7b7c2542+ Fri, 06 Jul 2018 19:26:36 +0100
REM compiler GCC version 9.2.1 20190827 (Red Hat 9.2.1-1)
REM options -cpp -mtune=generic -march=x86-64 -g -O0 -fpre-include=/usr/include/finclude/math-vector-fortran.h
REM seed -380485947 1740948781 1332240373 2096183186 1987991830 -617346039 -1268710051 347358407 734914888 -1583817243 -1800927303 584747992 -17198480 1226817765 2004321611 -129693351 -816214910 -802870749 948177036 1070271524 -1192382746 1213273366 1174969033 -778182176 -1198112641 1872911953 320902757 2003444465 920010281 1367088576 1109990421 -1732736334 804005101
REM
CELL 1.54180   15.00000   15.00000   15.00000   90.00000   90.00000   90.00000
LATT -1
SFAC C  
C      1  0.5344890000000  0.5930980000000  0.5874720000000 1.0
C      1  0.5938450000000  0.5931010000000  0.4942320000000 1.0
C      1  0.5235100000000  0.5931040000000  0.4089690000000 1.0
C      1  0.4206860000000  0.5931030000000  0.4495120000000 1.0
C      1  0.4274700000000  0.5930980000000  0.5598330000000 1.0
C      1  0.4679090000000  0.2579940000000  0.5752570000000 1.0
C      1  0.5616660000000  0.2579950000000  0.5537700000000 1.0
C      1  0.5702030000000  0.2579990000000  0.4579620000000 1.0
C      1  0.4817230000000  0.2580000000000  0.4202360000000 1.0
C      1  0.4185010000000  0.2579970000000  0.4927280000000 1.0
C      1  0.4789390000000  0.4323640000000  0.4124150000000 1.0
C      1  0.4101960000000  0.4323610000000  0.4929630000000 1.0
C      1  0.4655590000000  0.4323570000000  0.5832330000000 1.0
C      1  0.5685180000000  0.4323590000000  0.5584740000000 1.0
C      1  0.5767880000000  0.4323630000000  0.4529030000000 1.0
C      1  0.6133300000000  0.6823720000000  0.6473050000000 1.0
C      1  0.6751090000000  0.6823800000000  0.4377410000000 1.0
C      1  0.4948930000000  0.6823840000000  0.3142270000000 1.0
C      1  0.3217340000000  0.6823790000000  0.4474540000000 1.0
C      1  0.3949320000000  0.6823710000000  0.6533080000000 1.0
C      1  0.2953260000000  0.3845660000000  0.5677810000000 1.0
C      1  0.5012200000000  0.3845610000000  0.7156000000000 1.0
C      1  0.7054290000000  0.3845660000000  0.5654600000000 1.0
C      1  0.6257420000000  0.3845750000000  0.3248510000000 1.0
C      1  0.3722840000000  0.3845750000000  0.3262850000000 1.0
C      1  0.5891330000000  0.7008910000000  0.5370880000000 1.0
C      1  0.5628090000000  0.7008950000000  0.4266950000000 1.0
C      1  0.4496840000000  0.7008950000000  0.4176180000000 1.0
C      1  0.4060940000000  0.7008910000000  0.5224000000000 1.0
C      1  0.4922780000000  0.7008880000000  0.5962370000000 1.0
C      1  0.4382910000000  0.5229410000000  0.6459670000000 1.0
C      1  0.6197530000000  0.5229420000000  0.6037960000000 1.0
C      1  0.6357210000000  0.5229500000000  0.4181830000000 1.0
C      1  0.4641270000000  0.5229520000000  0.3456400000000 1.0
C      1  0.3421090000000  0.5229460000000  0.4864180000000 1.0
C      1  0.4506530000000  0.4406470000000  0.2828860000000 1.0
C      1  0.2782660000000  0.4406400000000  0.4798380000000 1.0
C      1  0.4123070000000  0.4406310000000  0.7046500000000 1.0
C      1  0.6675370000000  0.4406340000000  0.6466400000000 1.0
C      1  0.6912370000000  0.4406440000000  0.3859750000000 1.0
C      1  0.4583190000000  0.6166480000000  0.6936400000000 1.0
C      1  0.6712780000000  0.6166520000000  0.5994820000000 1.0
C      1  0.6475370000000  0.6166600000000  0.3678490000000 1.0
C      1  0.4199040000000  0.6166620000000  0.3188510000000 1.0
C      1  0.3029610000000  0.6166540000000  0.5202000000000 1.0
C      1  0.5464450000000  0.6505990000000  0.7070570000000 1.0
C      1  0.7112700000000  0.6506070000000  0.5198160000000 1.0
C      1  0.5841260000000  0.6506150000000  0.3051980000000 1.0
C      1  0.3407230000000  0.6506120000000  0.3597980000000 1.0
C      1  0.3174350000000  0.6506030000000  0.6081600000000 1.0
C      1  0.5397420000000  0.3845660000000  0.2881280000000 1.0
C      1  0.3107830000000  0.3845620000000  0.3967280000000 1.0
C      1  0.3433150000000  0.3845520000000  0.6480400000000 1.0
C      1  0.5923800000000  0.3845510000000  0.6947600000000 1.0
C      1  0.7137790000000  0.3845590000000  0.4723220000000 1.0
C      1  0.4425810000000  0.3332930000000  0.6347490000000 1.0
C      1  0.6104170000000  0.3332940000000  0.5962440000000 1.0
C      1  0.6256600000000  0.3333010000000  0.4247240000000 1.0
C      1  0.4672460000000  0.3333030000000  0.3572240000000 1.0
C      1  0.3540970000000  0.3332980000000  0.4870270000000 1.0
END
