TITL C-986978-6805-126 3.33624775237039e-06 3375 -350.293139723404 0 0 60 (C6) n - 1
REM
REM in /home/bkarasulu/work/CARBON/AIRSS/Generating-Clusters/REBO/Higher-Symm/Only-C60
REM
REM
REM
REM
REM
REM ./C.cell (a2850807a9bf4ad07a5b6933b78d9264)
REM AIRSS Version 0.9.1 bugfix July 2018 build 013d7b7c2542+ Fri, 06 Jul 2018 19:26:36 +0100
REM compiler GCC version 9.2.1 20190827 (Red Hat 9.2.1-1)
REM options -cpp -mtune=generic -march=x86-64 -g -O0 -fpre-include=/usr/include/finclude/math-vector-fortran.h
REM seed -1695371708 -1200221964 -2035494841 843125088 2076817918 -873819310 -17684297 1963239644 472739078 1158218123 -51484234 1812020729 1403280007 -281474060 943966900 1566270292 1827812732 1025095596 -1655853987 -945796409 -681979384 -1683298531 -926428667 745168412 -305817824 1417809026 775388859 1102074515 463678659 -1692538682 -176972206 -1665219153 -990735814
REM
CELL 1.54180   15.00000   15.00000   15.00000   90.00000   90.00000   90.00000
LATT -1
SFAC C  
C      1  0.6463200000000  0.3179990000000  0.6183290000000 1.0
C      1  0.7307770000000  0.5357170000000  0.6183290000000 1.0
C      1  0.5844570000000  0.7177170000000  0.6183280000000 1.0
C      1  0.3536800000000  0.6820010000000  0.6183290000000 1.0
C      1  0.2692230000000  0.4642830000000  0.6183290000000 1.0
C      1  0.4155430000000  0.2822830000000  0.6183280000000 1.0
C      1  0.3536800000000  0.3179990000000  0.3816710000000 1.0
C      1  0.2692230000000  0.5357170000000  0.3816710000000 1.0
C      1  0.4155430000000  0.7177170000000  0.3816720000000 1.0
C      1  0.6463200000000  0.6820010000000  0.3816710000000 1.0
C      1  0.7307770000000  0.4642830000000  0.3816710000000 1.0
C      1  0.5844570000000  0.2822830000000  0.3816720000000 1.0
C      1  0.5221750000000  0.3990840000000  0.3945070000000 1.0
C      1  0.5984830000000  0.4687460000000  0.3945070000000 1.0
C      1  0.5763090000000  0.5696620000000  0.3945070000000 1.0
C      1  0.4778250000000  0.6009160000000  0.3945070000000 1.0
C      1  0.4015170000000  0.5312540000000  0.3945070000000 1.0
C      1  0.4236910000000  0.4303380000000  0.3945070000000 1.0
C      1  0.4778250000000  0.3990840000000  0.6054930000000 1.0
C      1  0.4015170000000  0.4687460000000  0.6054930000000 1.0
C      1  0.4236910000000  0.5696620000000  0.6054930000000 1.0
C      1  0.5221750000000  0.6009160000000  0.6054930000000 1.0
C      1  0.5984830000000  0.5312540000000  0.6054930000000 1.0
C      1  0.5763090000000  0.4303380000000  0.6054930000000 1.0
C      1  0.7019480000000  0.4992590000000  0.6881950000000 1.0
C      1  0.6016160000000  0.6745210000000  0.6881950000000 1.0
C      1  0.3996680000000  0.6752630000000  0.6881950000000 1.0
C      1  0.2980520000000  0.5007410000000  0.6881950000000 1.0
C      1  0.3983840000000  0.3254790000000  0.6881950000000 1.0
C      1  0.6003320000000  0.3247370000000  0.6881950000000 1.0
C      1  0.2980520000000  0.4992590000000  0.3118050000000 1.0
C      1  0.3983840000000  0.6745210000000  0.3118050000000 1.0
C      1  0.6003320000000  0.6752630000000  0.3118050000000 1.0
C      1  0.7019480000000  0.5007410000000  0.3118050000000 1.0
C      1  0.6016160000000  0.3254790000000  0.3118050000000 1.0
C      1  0.3996680000000  0.3247370000000  0.3118050000000 1.0
C      1  0.3300360000000  0.4539560000000  0.5278420000000 1.0
C      1  0.4548940000000  0.3297850000000  0.5278420000000 1.0
C      1  0.6248570000000  0.3758290000000  0.5278420000000 1.0
C      1  0.6699640000000  0.5460440000000  0.5278420000000 1.0
C      1  0.5451060000000  0.6702150000000  0.5278420000000 1.0
C      1  0.3751430000000  0.6241710000000  0.5278420000000 1.0
C      1  0.6699640000000  0.4539560000000  0.4721580000000 1.0
C      1  0.5451060000000  0.3297850000000  0.4721580000000 1.0
C      1  0.3751430000000  0.3758290000000  0.4721580000000 1.0
C      1  0.3300360000000  0.5460440000000  0.4721580000000 1.0
C      1  0.4548940000000  0.6702150000000  0.4721580000000 1.0
C      1  0.6248570000000  0.6241710000000  0.4721580000000 1.0
C      1  0.4864070000000  0.6126580000000  0.7138580000000 1.0
C      1  0.3956390000000  0.5445570000000  0.7138580000000 1.0
C      1  0.4092320000000  0.4318990000000  0.7138580000000 1.0
C      1  0.5135930000000  0.3873420000000  0.7138580000000 1.0
C      1  0.6043610000000  0.4554430000000  0.7138580000000 1.0
C      1  0.5907680000000  0.5681010000000  0.7138580000000 1.0
C      1  0.5135930000000  0.6126580000000  0.2861420000000 1.0
C      1  0.6043610000000  0.5445570000000  0.2861420000000 1.0
C      1  0.5907680000000  0.4318990000000  0.2861420000000 1.0
C      1  0.4864070000000  0.3873420000000  0.2861420000000 1.0
C      1  0.3956390000000  0.4554430000000  0.2861420000000 1.0
C      1  0.4092320000000  0.5681010000000  0.2861420000000 1.0
END
