TITL C-986974-580-975 6.12145560314992e-06 3375 -344.897733446508 0 0 60 (S4) n - 1
REM
REM in /home/bkarasulu/work/CARBON/AIRSS/Generating-Clusters/REBO/Higher-Symm/Only-C60
REM
REM
REM
REM
REM
REM ./C.cell (a2850807a9bf4ad07a5b6933b78d9264)
REM AIRSS Version 0.9.1 bugfix July 2018 build 013d7b7c2542+ Fri, 06 Jul 2018 19:26:36 +0100
REM compiler GCC version 9.2.1 20190827 (Red Hat 9.2.1-1)
REM options -cpp -mtune=generic -march=x86-64 -g -O0 -fpre-include=/usr/include/finclude/math-vector-fortran.h
REM seed -1180381742 -1422006601 -1694323697 -989849256 -471195426 -124072261 1245960179 -1104956211 -1035803799 -1842874251 1386406294 1797637866 476900184 -1545136483 -562970499 535761946 -1931466755 -332755755 935494866 -1083186827 783114538 53342204 2013740957 1690757117 -945806576 -1579566589 -1611421010 1452133398 -2111095248 -1830580510 726505671 -451592503 354592799
REM
CELL 1.54180   15.00000   15.00000   15.00000   90.00000   90.00000   90.00000
LATT -1
SFAC C  
C      1  0.5854940000000  0.7290060000000  0.3730410000000 1.0
C      1  0.5884340000000  0.6267900000000  0.7240590000000 1.0
C      1  0.5854940000000  0.2709940000000  0.6269590000000 1.0
C      1  0.5884340000000  0.3732100000000  0.2759410000000 1.0
C      1  0.4165860000000  0.7240560000000  0.3732080000000 1.0
C      1  0.4195250000000  0.6269610000000  0.7290080000000 1.0
C      1  0.4165860000000  0.2759440000000  0.6267920000000 1.0
C      1  0.4195250000000  0.3730390000000  0.2709920000000 1.0
C      1  0.3008930000000  0.5693320000000  0.4940950000000 1.0
C      1  0.2973320000000  0.5072720000000  0.5891080000000 1.0
C      1  0.3008930000000  0.4306680000000  0.5059050000000 1.0
C      1  0.2973320000000  0.4927290000000  0.4108930000000 1.0
C      1  0.7076940000000  0.5891070000000  0.4927250000000 1.0
C      1  0.7041330000000  0.5059080000000  0.5693320000000 1.0
C      1  0.7076940000000  0.4108930000000  0.5072750000000 1.0
C      1  0.7041330000000  0.4940920000000  0.4306680000000 1.0
C      1  0.4018340000000  0.6308670000000  0.3158850000000 1.0
C      1  0.4035130000000  0.6709060000000  0.6294030000000 1.0
C      1  0.4018340000000  0.3691330000000  0.6841150000000 1.0
C      1  0.4035130000000  0.3290940000000  0.3705970000000 1.0
C      1  0.6015080000000  0.6294030000000  0.3290930000000 1.0
C      1  0.6031880000000  0.6841080000000  0.6308670000000 1.0
C      1  0.6015080000000  0.3705970000000  0.6709070000000 1.0
C      1  0.6031880000000  0.3158920000000  0.3691330000000 1.0
C      1  0.4395630000000  0.5053990000000  0.4137170000000 1.0
C      1  0.4565230000000  0.5678360000000  0.5049790000000 1.0
C      1  0.4395640000000  0.4946010000000  0.5862830000000 1.0
C      1  0.4565230000000  0.4321640000000  0.4950210000000 1.0
C      1  0.5484900000000  0.5049800000000  0.4321580000000 1.0
C      1  0.5654500000000  0.5862790000000  0.5053990000000 1.0
C      1  0.5484900000000  0.4950200000000  0.5678420000000 1.0
C      1  0.5654500000000  0.4137210000000  0.4946010000000 1.0
C      1  0.5866450000000  0.5257450000000  0.3396130000000 1.0
C      1  0.5921000000000  0.6783960000000  0.5274930000000 1.0
C      1  0.5866450000000  0.4742550000000  0.6603870000000 1.0
C      1  0.5921000000000  0.3216040000000  0.4725070000000 1.0
C      1  0.4129150000000  0.5274920000000  0.3215980000000 1.0
C      1  0.4183730000000  0.6603850000000  0.5257440000000 1.0
C      1  0.4129160000000  0.4725080000000  0.6784020000000 1.0
C      1  0.4183730000000  0.3396150000000  0.4742560000000 1.0
C      1  0.5987500000000  0.7384720000000  0.4610800000000 1.0
C      1  0.5990780000000  0.5382050000000  0.7219040000000 1.0
C      1  0.5987500000000  0.2615280000000  0.5389200000000 1.0
C      1  0.5990780000000  0.4617950000000  0.2780960000000 1.0
C      1  0.4059400000000  0.7219000000000  0.4617930000000 1.0
C      1  0.4062670000000  0.5389220000000  0.7384760000000 1.0
C      1  0.4059400000000  0.2781000000000  0.5382070000000 1.0
C      1  0.4062670000000  0.4610780000000  0.2615240000000 1.0
C      1  0.3240910000000  0.5979780000000  0.3874100000000 1.0
C      1  0.3175620000000  0.6154680000000  0.5951850000000 1.0
C      1  0.3240910000000  0.4020220000000  0.6125900000000 1.0
C      1  0.3175620000000  0.3845320000000  0.4048150000000 1.0
C      1  0.6874600000000  0.5951810000000  0.3845290000000 1.0
C      1  0.6809360000000  0.6125940000000  0.5979730000000 1.0
C      1  0.6874600000000  0.4048190000000  0.6154710000000 1.0
C      1  0.6809360000000  0.3874060000000  0.4020260000000 1.0
C      1  0.5024710000000  0.3166980000000  0.6841840000000 1.0
C      1  0.5024710000000  0.6833020000000  0.3158160000000 1.0
C      1  0.5025500000000  0.3158170000000  0.3166980000000 1.0
C      1  0.5025500000000  0.6841830000000  0.6833020000000 1.0
END
