TITL C-986978-6805-410 5.74429677785451e-07 3375 -360.989573387052 0 0 60 (Th) n - 1
REM
REM in /home/bkarasulu/work/CARBON/AIRSS/Generating-Clusters/REBO/Higher-Symm/Only-C60
REM
REM
REM
REM
REM
REM ./C.cell (a2850807a9bf4ad07a5b6933b78d9264)
REM AIRSS Version 0.9.1 bugfix July 2018 build 013d7b7c2542+ Fri, 06 Jul 2018 19:26:36 +0100
REM compiler GCC version 9.2.1 20190827 (Red Hat 9.2.1-1)
REM options -cpp -mtune=generic -march=x86-64 -g -O0 -fpre-include=/usr/include/finclude/math-vector-fortran.h
REM seed 1498398076 -1816695202 -125349364 1899955804 -1239554876 1360004560 1900550400 898430869 -1973973807 -1354737224 -1738758527 -750826305 -1321376768 -128665599 -1206711241 729592870 -236184284 794939914 -664205409 1506364936 -1264063504 -1271665573 861800543 1181102290 -903207932 171665643 -1457156632 1654485945 -1800785090 1191282300 762760060 1038481918 -357060417
REM
CELL 1.54180   15.00000   15.00000   15.00000   90.00000   90.00000   90.00000
LATT -1
SFAC C  
C      1  0.7493520000000  0.3611030000000  0.4575870000000 1.0
C      1  0.3611270000000  0.4576090000000  0.7493680000000 1.0
C      1  0.4576010000000  0.7493590000000  0.3611120000000 1.0
C      1  0.2506430000000  0.6388960000000  0.4576150000000 1.0
C      1  0.7493660000000  0.6388800000000  0.5423810000000 1.0
C      1  0.2506390000000  0.3611200000000  0.5424160000000 1.0
C      1  0.6389050000000  0.5423970000000  0.7493500000000 1.0
C      1  0.3610970000000  0.5424010000000  0.2506500000000 1.0
C      1  0.6388710000000  0.4575940000000  0.2506330000000 1.0
C      1  0.5423820000000  0.2506380000000  0.3611120000000 1.0
C      1  0.4576020000000  0.2506440000000  0.6388930000000 1.0
C      1  0.5424160000000  0.7493590000000  0.6388820000000 1.0
C      1  0.7493570000000  0.3611040000000  0.5423850000000 1.0
C      1  0.3610940000000  0.4576030000000  0.2506510000000 1.0
C      1  0.4576180000000  0.7493620000000  0.6388870000000 1.0
C      1  0.2506490000000  0.6388970000000  0.5424130000000 1.0
C      1  0.7493610000000  0.6388790000000  0.4575840000000 1.0
C      1  0.2506340000000  0.3611190000000  0.4576190000000 1.0
C      1  0.6388740000000  0.5423910000000  0.2506320000000 1.0
C      1  0.3611300000000  0.5424060000000  0.7493670000000 1.0
C      1  0.6389020000000  0.4575990000000  0.7493510000000 1.0
C      1  0.5423990000000  0.2506410000000  0.6388880000000 1.0
C      1  0.4575840000000  0.2506410000000  0.3611170000000 1.0
C      1  0.5423980000000  0.7493560000000  0.3611070000000 1.0
C      1  0.3304160000000  0.5916660000000  0.4095570000000 1.0
C      1  0.5916480000000  0.4095420000000  0.3304140000000 1.0
C      1  0.4095470000000  0.3304230000000  0.5916690000000 1.0
C      1  0.6695720000000  0.4083320000000  0.4095370000000 1.0
C      1  0.3304210000000  0.4083450000000  0.5904650000000 1.0
C      1  0.6695900000000  0.5916570000000  0.5904410000000 1.0
C      1  0.4083310000000  0.5904540000000  0.3304240000000 1.0
C      1  0.5916750000000  0.5904520000000  0.6695740000000 1.0
C      1  0.4083460000000  0.4095520000000  0.6695880000000 1.0
C      1  0.5904650000000  0.6695790000000  0.5916540000000 1.0
C      1  0.4095470000000  0.6695830000000  0.4083420000000 1.0
C      1  0.5904420000000  0.3304150000000  0.4083350000000 1.0
C      1  0.3304270000000  0.5916680000000  0.5904630000000 1.0
C      1  0.5916690000000  0.4095460000000  0.6695760000000 1.0
C      1  0.4095350000000  0.3304210000000  0.4083460000000 1.0
C      1  0.6695840000000  0.4083340000000  0.5904430000000 1.0
C      1  0.3304100000000  0.4083430000000  0.4095590000000 1.0
C      1  0.6695790000000  0.5916550000000  0.4095350000000 1.0
C      1  0.4083520000000  0.5904580000000  0.6695860000000 1.0
C      1  0.5916540000000  0.5904480000000  0.3304120000000 1.0
C      1  0.4083250000000  0.4095480000000  0.3304260000000 1.0
C      1  0.5904530000000  0.6695770000000  0.4083310000000 1.0
C      1  0.4095590000000  0.6695850000000  0.5916650000000 1.0
C      1  0.5904530000000  0.3304170000000  0.5916580000000 1.0
C      1  0.4999910000000  0.5447410000000  0.3338260000000 1.0
C      1  0.6661770000000  0.4999950000000  0.5447320000000 1.0
C      1  0.6661710000000  0.4999940000000  0.4552460000000 1.0
C      1  0.3338230000000  0.5000050000000  0.4552680000000 1.0
C      1  0.3338290000000  0.5000060000000  0.5447540000000 1.0
C      1  0.5000090000000  0.4552590000000  0.6661740000000 1.0
C      1  0.5447370000000  0.3338250000000  0.4999990000000 1.0
C      1  0.4999880000000  0.4552550000000  0.3338270000000 1.0
C      1  0.5000120000000  0.5447450000000  0.6661730000000 1.0
C      1  0.4552630000000  0.6661750000000  0.5000010000000 1.0
C      1  0.5447490000000  0.6661720000000  0.4999950000000 1.0
C      1  0.4552520000000  0.3338280000000  0.5000050000000 1.0
END
