TITL C-986979-5873-803 0.109940433903165 3375 -330.10876854076 0 0 60 (C1) n - 1
REM
REM in /home/bkarasulu/work/CARBON/AIRSS/Generating-Clusters/REBO/Higher-Symm/Only-C60
REM
REM
REM
REM
REM
REM ./C.cell (a2850807a9bf4ad07a5b6933b78d9264)
REM AIRSS Version 0.9.1 bugfix July 2018 build 013d7b7c2542+ Fri, 06 Jul 2018 19:26:36 +0100
REM compiler GCC version 9.2.1 20190827 (Red Hat 9.2.1-1)
REM options -cpp -mtune=generic -march=x86-64 -g -O0 -fpre-include=/usr/include/finclude/math-vector-fortran.h
REM seed 1862954400 1313926710 527974507 -636348888 -447845487 -2066043855 -439150382 1894492902 930187106 1741270265 -274726201 -732410666 -200060691 919808204 -309308268 2099187971 -1451015521 1895518599 -1756006767 -1930924169 -1368101472 2050956561 393894004 847456323 288745782 -1452409900 669558842 -745058663 1037939996 1244420367 -279684452 -1678727164 -464597763
REM
CELL 1.54180   15.00000   15.00000   15.00000   90.00000   90.00000   90.00000
LATT -1
SFAC C  
C      1  0.4987040000000  0.6863690000000  0.6722710000000 1.0
C      1  0.7023350000000  0.3912620000000  0.5361740000000 1.0
C      1  0.6998270000000  0.5094050000000  0.7010550000000 1.0
C      1  0.6370170000000  0.4460950000000  0.6837520000000 1.0
C      1  0.6442840000000  0.5107180000000  0.5437320000000 1.0
C      1  0.4275370000000  0.3007590000000  0.4640530000000 1.0
C      1  0.4101880000000  0.5431050000000  0.6171850000000 1.0
C      1  0.5243610000000  0.2544120000000  0.4414200000000 1.0
C      1  0.5877390000000  0.4842870000000  0.4563510000000 1.0
C      1  0.3469890000000  0.3537560000000  0.5246070000000 1.0
C      1  0.4590280000000  0.3440340000000  0.3675870000000 1.0
C      1  0.3744850000000  0.4873370000000  0.7457120000000 1.0
C      1  0.4655990000000  0.5331830000000  0.7156770000000 1.0
C      1  0.7021850000000  0.6496520000000  0.4540320000000 1.0
C      1  0.2675910000000  0.5832420000000  0.4867170000000 1.0
C      1  0.5457440000000  0.6437360000000  0.5954850000000 1.0
C      1  0.5577050000000  0.3365940000000  0.2390300000000 1.0
C      1  0.5639190000000  0.3248080000000  0.5838510000000 1.0
C      1  0.4302230000000  0.7388880000000  0.6389630000000 1.0
C      1  0.3997110000000  0.4320810000000  0.3298100000000 1.0
C      1  0.6485240000000  0.3805890000000  0.6150290000000 1.0
C      1  0.7644620000000  0.5569050000000  0.4464870000000 1.0
C      1  0.6101560000000  0.5011510000000  0.3266000000000 1.0
C      1  0.3605280000000  0.4095770000000  0.4278400000000 1.0
C      1  0.6605250000000  0.3498690000000  0.4605030000000 1.0
C      1  0.4876670000000  0.4353130000000  0.6181990000000 1.0
C      1  0.7501140000000  0.4825910000000  0.5302680000000 1.0
C      1  0.4641730000000  0.5920290000000  0.4474080000000 1.0
C      1  0.4578040000000  0.5251740000000  0.5251690000000 1.0
C      1  0.5993150000000  0.6562510000000  0.4731180000000 1.0
C      1  0.5235900000000  0.6481470000000  0.3148840000000 1.0
C      1  0.5046540000000  0.4683840000000  0.3538510000000 1.0
C      1  0.6449610000000  0.6183780000000  0.5696640000000 1.0
C      1  0.2639690000000  0.3511290000000  0.4168740000000 1.0
C      1  0.2992420000000  0.5334690000000  0.6061530000000 1.0
C      1  0.3688100000000  0.6113970000000  0.3187780000000 1.0
C      1  0.7835260000000  0.5244250000000  0.3643270000000 1.0
C      1  0.3023870000000  0.6122930000000  0.3959930000000 1.0
C      1  0.7481950000000  0.5935480000000  0.5528730000000 1.0
C      1  0.3294240000000  0.4528320000000  0.6710920000000 1.0
C      1  0.3794380000000  0.6535520000000  0.4484860000000 1.0
C      1  0.4370570000000  0.6813640000000  0.3201800000000 1.0
C      1  0.3108450000000  0.6371260000000  0.5612720000000 1.0
C      1  0.6184140000000  0.4046150000000  0.3814300000000 1.0
C      1  0.3898320000000  0.3904650000000  0.6193600000000 1.0
C      1  0.4099680000000  0.5305490000000  0.2862600000000 1.0
C      1  0.5307130000000  0.4143490000000  0.5215870000000 1.0
C      1  0.5614770000000  0.5802060000000  0.3985090000000 1.0
C      1  0.4586510000000  0.3145010000000  0.5721400000000 1.0
C      1  0.3898550000000  0.7067670000000  0.5456390000000 1.0
C      1  0.5486650000000  0.3451730000000  0.3310650000000 1.0
C      1  0.5466880000000  0.4639590000000  0.7030060000000 1.0
C      1  0.4902370000000  0.6292190000000  0.7429340000000 1.0
C      1  0.2507190000000  0.4038910000000  0.5030530000000 1.0
C      1  0.5955860000000  0.2854980000000  0.4898330000000 1.0
C      1  0.4590850000000  0.4505160000000  0.4470660000000 1.0
C      1  0.5215420000000  0.5483910000000  0.2756270000000 1.0
C      1  0.4939670000000  0.6796840000000  0.5091600000000 1.0
C      1  0.2436350000000  0.4924910000000  0.5225260000000 1.0
C      1  0.5464290000000  0.5305120000000  0.5882940000000 1.0
END
