TITL C-986978-6805-783 0.103770175512756 3375 -325.886770926023 0 0 60 (C3) n - 1
REM
REM in /home/bkarasulu/work/CARBON/AIRSS/Generating-Clusters/REBO/Higher-Symm/Only-C60
REM
REM
REM
REM
REM
REM ./C.cell (a2850807a9bf4ad07a5b6933b78d9264)
REM AIRSS Version 0.9.1 bugfix July 2018 build 013d7b7c2542+ Fri, 06 Jul 2018 19:26:36 +0100
REM compiler GCC version 9.2.1 20190827 (Red Hat 9.2.1-1)
REM options -cpp -mtune=generic -march=x86-64 -g -O0 -fpre-include=/usr/include/finclude/math-vector-fortran.h
REM seed 1295385638 979242399 -1204310365 1788425094 299402520 -1929623110 1795748494 1174404496 840262795 -330359902 -1816477701 -1149383636 1370826677 -902249723 -1589057941 -2019308327 129487588 1976867642 1800612105 253039438 -2143827174 2053946313 701366529 884543484 1182087080 -55402410 -2001460779 899648397 -2110067825 -979034268 625414420 -1919462080 -304463649
REM
CELL 1.54180   15.00000   15.00000   15.00000   90.00000   90.00000   90.00000
LATT -1
SFAC C  
C      1  0.3300440000000  0.4167770000000  0.6659160000000 1.0
C      1  0.7226900000000  0.4166770000000  0.5720290000000 1.0
C      1  0.4450940000000  0.4168060000000  0.2789340000000 1.0
C      1  0.5043710000000  0.6124960000000  0.6152260000000 1.0
C      1  0.5917200000000  0.6125020000000  0.4461330000000 1.0
C      1  0.4015660000000  0.6123360000000  0.4550960000000 1.0
C      1  0.3630400000000  0.3238310000000  0.6089230000000 1.0
C      1  0.6568070000000  0.3237470000000  0.5718060000000 1.0
C      1  0.4777140000000  0.3236570000000  0.3357310000000 1.0
C      1  0.4706820000000  0.4120460000000  0.7080130000000 1.0
C      1  0.6889530000000  0.4121030000000  0.4287530000000 1.0
C      1  0.3378610000000  0.4120650000000  0.3795960000000 1.0
C      1  0.6608930000000  0.4126990000000  0.6694730000000 1.0
C      1  0.5603150000000  0.4129770000000  0.2839390000000 1.0
C      1  0.2762520000000  0.4127080000000  0.5637850000000 1.0
C      1  0.7224440000000  0.4996260000000  0.4947650000000 1.0
C      1  0.3786460000000  0.4996990000000  0.3179310000000 1.0
C      1  0.3971060000000  0.4998770000000  0.7038740000000 1.0
C      1  0.6393150000000  0.3224940000000  0.4110000000000 1.0
C      1  0.3472480000000  0.3225280000000  0.4314760000000 1.0
C      1  0.5109250000000  0.3224730000000  0.6741430000000 1.0
C      1  0.3125460000000  0.3228480000000  0.5183520000000 1.0
C      1  0.6035020000000  0.3228190000000  0.6608040000000 1.0
C      1  0.5813080000000  0.3229810000000  0.3376310000000 1.0
C      1  0.4409630000000  0.4406500000000  0.4189770000000 1.0
C      1  0.4530140000000  0.4407330000000  0.5991600000000 1.0
C      1  0.6035180000000  0.4410570000000  0.4982830000000 1.0
C      1  0.5084910000000  0.5112410000000  0.6666510000000 1.0
C      1  0.6344140000000  0.5114120000000  0.4167920000000 1.0
C      1  0.3546710000000  0.5112400000000  0.4329600000000 1.0
C      1  0.7030930000000  0.5127530000000  0.6341740000000 1.0
C      1  0.5083410000000  0.5128890000000  0.2645010000000 1.0
C      1  0.2858520000000  0.5127970000000  0.6178890000000 1.0
C      1  0.4171710000000  0.7428550000000  0.5553650000000 1.0
C      1  0.5833080000000  0.7429820000000  0.5517690000000 1.0
C      1  0.4971330000000  0.7426110000000  0.4095340000000 1.0
C      1  0.4064630000000  0.5971910000000  0.3477090000000 1.0
C      1  0.4090180000000  0.5974900000000  0.6648240000000 1.0
C      1  0.6824970000000  0.5973270000000  0.5041650000000 1.0
C      1  0.4520440000000  0.2866980000000  0.6068930000000 1.0
C      1  0.6106310000000  0.2865780000000  0.4956530000000 1.0
C      1  0.4348870000000  0.2868020000000  0.4139620000000 1.0
C      1  0.6059430000000  0.4760900000000  0.5922790000000 1.0
C      1  0.5210930000000  0.4763220000000  0.3698990000000 1.0
C      1  0.3705150000000  0.4761030000000  0.5545030000000 1.0
C      1  0.3666050000000  0.6808110000000  0.5698310000000 1.0
C      1  0.6208800000000  0.6810420000000  0.5887570000000 1.0
C      1  0.5099860000000  0.6803620000000  0.3588270000000 1.0
C      1  0.6137050000000  0.5821390000000  0.6220500000000 1.0
C      1  0.5426460000000  0.5818120000000  0.3483000000000 1.0
C      1  0.3410330000000  0.5821470000000  0.5464750000000 1.0
C      1  0.4991510000000  0.8824870000000  0.5054760000000 1.0
C      1  0.4993500000000  0.3344210000000  0.5055620000000 1.0
C      1  0.4993840000000  0.4340050000000  0.5055970000000 1.0
C      1  0.4992020000000  0.9674170000000  0.5055530000000 1.0
C      1  0.4991900000000  0.6390570000000  0.5054530000000 1.0
C      1  0.4992100000000  0.1432600000000  0.5055530000000 1.0
C      1  0.4991680000000  0.7809670000000  0.5054460000000 1.0
C      1  0.4991730000000  0.2301670000000  0.5055300000000 1.0
C      1  0.4992890000000  0.5372270000000  0.5055030000000 1.0
END
