TITL C-986974-580-313 2.38505573972225e-06 3375 -351.505170411145 0 0 60 (C1) n - 1
REM
REM in /home/bkarasulu/work/CARBON/AIRSS/Generating-Clusters/REBO/Higher-Symm/Only-C60
REM
REM
REM
REM
REM
REM ./C.cell (a2850807a9bf4ad07a5b6933b78d9264)
REM AIRSS Version 0.9.1 bugfix July 2018 build 013d7b7c2542+ Fri, 06 Jul 2018 19:26:36 +0100
REM compiler GCC version 9.2.1 20190827 (Red Hat 9.2.1-1)
REM options -cpp -mtune=generic -march=x86-64 -g -O0 -fpre-include=/usr/include/finclude/math-vector-fortran.h
REM seed -1837939931 -172234610 1302790096 1306644460 835596316 -1677444139 520736198 1225799352 -367847260 -880567698 -549489164 -892641260 -515582897 718122788 -2005711349 1401901154 -289905033 -1177705085 1448267122 1735057930 -1835466167 188039873 -1236363588 1770987787 20874643 -1011190205 -667987999 73961392 -498547476 1353111793 -532151997 1341028815 -479370557
REM
CELL 1.54180   15.00000   15.00000   15.00000   90.00000   90.00000   90.00000
LATT -1
SFAC C  
C      1  0.6327400000000  0.5220110000000  0.7114080000000 1.0
C      1  0.3049330000000  0.5363210000000  0.6003370000000 1.0
C      1  0.6075660000000  0.6489910000000  0.3719940000000 1.0
C      1  0.6141660000000  0.3892350000000  0.6341440000000 1.0
C      1  0.6761360000000  0.6885030000000  0.5319830000000 1.0
C      1  0.6451900000000  0.3624510000000  0.4699760000000 1.0
C      1  0.6117640000000  0.6341120000000  0.5988590000000 1.0
C      1  0.3739660000000  0.4741910000000  0.5517670000000 1.0
C      1  0.6172600000000  0.3169410000000  0.3485140000000 1.0
C      1  0.4014410000000  0.6231120000000  0.4474660000000 1.0
C      1  0.4346080000000  0.6226100000000  0.6411750000000 1.0
C      1  0.5716810000000  0.6257600000000  0.2661190000000 1.0
C      1  0.4894930000000  0.4966740000000  0.2982390000000 1.0
C      1  0.4670300000000  0.3035080000000  0.4513970000000 1.0
C      1  0.2920610000000  0.7380150000000  0.4921800000000 1.0
C      1  0.4516420000000  0.5885740000000  0.7254360000000 1.0
C      1  0.5341950000000  0.3363640000000  0.5974700000000 1.0
C      1  0.6642160000000  0.5540940000000  0.6315820000000 1.0
C      1  0.4375080000000  0.3243700000000  0.6039270000000 1.0
C      1  0.5518470000000  0.7230020000000  0.5642060000000 1.0
C      1  0.7601390000000  0.4671280000000  0.4070750000000 1.0
C      1  0.4113100000000  0.6258850000000  0.3504870000000 1.0
C      1  0.3323100000000  0.4501290000000  0.4570000000000 1.0
C      1  0.2757830000000  0.3903080000000  0.5202180000000 1.0
C      1  0.5065900000000  0.5984000000000  0.5754880000000 1.0
C      1  0.4892500000000  0.6738320000000  0.3180810000000 1.0
C      1  0.2411430000000  0.4076100000000  0.6886640000000 1.0
C      1  0.3474990000000  0.6240120000000  0.5994920000000 1.0
C      1  0.7280890000000  0.5251990000000  0.4701080000000 1.0
C      1  0.5678060000000  0.5419190000000  0.3670000000000 1.0
C      1  0.3603550000000  0.4522080000000  0.8029790000000 1.0
C      1  0.5290370000000  0.5109110000000  0.7283150000000 1.0
C      1  0.5306520000000  0.4641900000000  0.6342510000000 1.0
C      1  0.2552450000000  0.4418460000000  0.6019140000000 1.0
C      1  0.4006510000000  0.5377050000000  0.3179270000000 1.0
C      1  0.5558160000000  0.4079160000000  0.5162340000000 1.0
C      1  0.5302470000000  0.3317610000000  0.2877240000000 1.0
C      1  0.5629510000000  0.2885180000000  0.4436380000000 1.0
C      1  0.6787450000000  0.4062750000000  0.5671060000000 1.0
C      1  0.4337850000000  0.5039220000000  0.7868240000000 1.0
C      1  0.5516980000000  0.4432830000000  0.2197130000000 1.0
C      1  0.5736820000000  0.5154100000000  0.5417180000000 1.0
C      1  0.6234390000000  0.5487600000000  0.4577800000000 1.0
C      1  0.4595780000000  0.5565930000000  0.4873640000000 1.0
C      1  0.4015930000000  0.2847540000000  0.5235780000000 1.0
C      1  0.6159460000000  0.5213550000000  0.2668930000000 1.0
C      1  0.6779350000000  0.6462660000000  0.4500770000000 1.0
C      1  0.3449190000000  0.4826560000000  0.3711840000000 1.0
C      1  0.7062540000000  0.4980660000000  0.5643020000000 1.0
C      1  0.4755430000000  0.4667710000000  0.4661290000000 1.0
C      1  0.4741750000000  0.3964640000000  0.3186770000000 1.0
C      1  0.5275150000000  0.7534000000000  0.4827520000000 1.0
C      1  0.6371340000000  0.4113490000000  0.2873300000000 1.0
C      1  0.3454080000000  0.6674390000000  0.5109470000000 1.0
C      1  0.3070160000000  0.2996150000000  0.5153210000000 1.0
C      1  0.2866320000000  0.4148080000000  0.7667840000000 1.0
C      1  0.5337280000000  0.7261700000000  0.3945970000000 1.0
C      1  0.4369970000000  0.4266030000000  0.6063780000000 1.0
C      1  0.6962350000000  0.3922010000000  0.3806700000000 1.0
C      1  0.4477280000000  0.3895250000000  0.4091020000000 1.0
END
