TITL C-986978-6805-298 2.87270869736865e-06 3375 -331.016347153785 0 0 60 (D2) n - 1
REM
REM in /home/bkarasulu/work/CARBON/AIRSS/Generating-Clusters/REBO/Higher-Symm/Only-C60
REM
REM
REM
REM
REM
REM ./C.cell (a2850807a9bf4ad07a5b6933b78d9264)
REM AIRSS Version 0.9.1 bugfix July 2018 build 013d7b7c2542+ Fri, 06 Jul 2018 19:26:36 +0100
REM compiler GCC version 9.2.1 20190827 (Red Hat 9.2.1-1)
REM options -cpp -mtune=generic -march=x86-64 -g -O0 -fpre-include=/usr/include/finclude/math-vector-fortran.h
REM seed -581636416 5210172 -896042050 -959783352 -1977796036 -442675868 878914418 919963399 -315186658 234910964 -1897869494 1596244415 46288280 796923259 -2058029842 -447934581 -731938262 707035635 876882947 -1294680899 637031957 -468388978 -982263405 314066570 -1271608788 350266732 -587710271 332001861 210021400 259552505 1284139776 2128625134 -1815950429
REM
CELL 1.54180   15.00000   15.00000   15.00000   90.00000   90.00000   90.00000
LATT -1
SFAC C  
C      1  0.6342730000000  0.6444580000000  0.4605430000000 1.0
C      1  0.6342850000000  0.3555410000000  0.5394570000000 1.0
C      1  0.3616600000000  0.6440330000000  0.4413480000000 1.0
C      1  0.3616710000000  0.3559660000000  0.5586510000000 1.0
C      1  0.6383290000000  0.6440340000000  0.5586510000000 1.0
C      1  0.6383400000000  0.3559670000000  0.4413480000000 1.0
C      1  0.3657150000000  0.6444590000000  0.5394570000000 1.0
C      1  0.3657270000000  0.3555420000000  0.4605440000000 1.0
C      1  0.6308830000000  0.5374630000000  0.3236480000000 1.0
C      1  0.6308870000000  0.4625400000000  0.6763540000000 1.0
C      1  0.3481110000000  0.5738310000000  0.3126790000000 1.0
C      1  0.3481150000000  0.4261640000000  0.6873190000000 1.0
C      1  0.6518850000000  0.5738360000000  0.6873190000000 1.0
C      1  0.6518890000000  0.4261680000000  0.3126790000000 1.0
C      1  0.3691130000000  0.5374600000000  0.6763540000000 1.0
C      1  0.3691170000000  0.4625370000000  0.3236480000000 1.0
C      1  0.5560340000000  0.3106680000000  0.3902300000000 1.0
C      1  0.5560240000000  0.6893290000000  0.6097670000000 1.0
C      1  0.4444570000000  0.3197340000000  0.4131500000000 1.0
C      1  0.4444450000000  0.6802720000000  0.5868500000000 1.0
C      1  0.5555550000000  0.3197280000000  0.5868500000000 1.0
C      1  0.5555430000000  0.6802660000000  0.4131500000000 1.0
C      1  0.4439760000000  0.3106710000000  0.6097680000000 1.0
C      1  0.4439660000000  0.6893320000000  0.3902300000000 1.0
C      1  0.4411660000000  0.5597270000000  0.3762990000000 1.0
C      1  0.4411710000000  0.4402770000000  0.6237010000000 1.0
C      1  0.5464350000000  0.5480600000000  0.4001670000000 1.0
C      1  0.5464420000000  0.4519330000000  0.5998340000000 1.0
C      1  0.4535580000000  0.5480670000000  0.5998340000000 1.0
C      1  0.4535650000000  0.4519390000000  0.4001680000000 1.0
C      1  0.5588290000000  0.5597230000000  0.6237010000000 1.0
C      1  0.5588330000000  0.4402730000000  0.3762990000000 1.0
C      1  0.4609570000000  0.4424200000000  0.2603160000000 1.0
C      1  0.4609520000000  0.5575810000000  0.7396860000000 1.0
C      1  0.5699850000000  0.4497640000000  0.2438650000000 1.0
C      1  0.5699830000000  0.5502380000000  0.7561350000000 1.0
C      1  0.4300170000000  0.4497630000000  0.7561350000000 1.0
C      1  0.4300150000000  0.5502360000000  0.2438650000000 1.0
C      1  0.5390480000000  0.4424190000000  0.7396860000000 1.0
C      1  0.5390430000000  0.5575800000000  0.2603160000000 1.0
C      1  0.4512490000000  0.3451050000000  0.3160310000000 1.0
C      1  0.4512400000000  0.6548960000000  0.6839690000000 1.0
C      1  0.5502370000000  0.3461790000000  0.2835930000000 1.0
C      1  0.5502300000000  0.6538220000000  0.7164030000000 1.0
C      1  0.4497700000000  0.3461790000000  0.7164030000000 1.0
C      1  0.4497630000000  0.6538210000000  0.2835930000000 1.0
C      1  0.5487610000000  0.3451050000000  0.6839700000000 1.0
C      1  0.5487510000000  0.6548950000000  0.3160310000000 1.0
C      1  0.3157110000000  0.5437320000000  0.4146820000000 1.0
C      1  0.3157150000000  0.4562640000000  0.5853180000000 1.0
C      1  0.6763550000000  0.5652390000000  0.4206880000000 1.0
C      1  0.6763620000000  0.4347630000000  0.5793130000000 1.0
C      1  0.3236380000000  0.5652370000000  0.5793130000000 1.0
C      1  0.3236450000000  0.4347610000000  0.4206880000000 1.0
C      1  0.6842850000000  0.5437360000000  0.5853170000000 1.0
C      1  0.6842890000000  0.4562680000000  0.4146820000000 1.0
C      1  0.5539880000000  0.4470980000000  0.4865640000000 1.0
C      1  0.5539810000000  0.5528960000000  0.5134370000000 1.0
C      1  0.4460190000000  0.4471040000000  0.5134380000000 1.0
C      1  0.4460120000000  0.5529020000000  0.4865640000000 1.0
END
