TITL C-986973-6940-604 -2.0845202365928e-06 3375 -357.650225392861 0 0 60 (C1) n - 1
REM
REM in /home/bkarasulu/work/CARBON/AIRSS/Generating-Clusters/REBO/Higher-Symm/Only-C60
REM
REM
REM
REM
REM
REM ./C.cell (a2850807a9bf4ad07a5b6933b78d9264)
REM AIRSS Version 0.9.1 bugfix July 2018 build 013d7b7c2542+ Fri, 06 Jul 2018 19:26:36 +0100
REM compiler GCC version 9.2.1 20190827 (Red Hat 9.2.1-1)
REM options -cpp -mtune=generic -march=x86-64 -g -O0 -fpre-include=/usr/include/finclude/math-vector-fortran.h
REM seed 689048089 1215553349 -829154817 -61749315 74661968 -857922319 716806794 -174710144 529536348 849654769 -205815788 -735648916 1373955313 -1126893291 -1283116084 -603899230 -136558510 -1986444221 -1957698047 713954756 465060717 1716851767 -684773614 246735246 -1898053304 1441580293 -1432732738 991497863 1111893298 -741837563 2139878642 -1741523 2012712430
REM
CELL 1.54180   15.00000   15.00000   15.00000   90.00000   90.00000   90.00000
LATT -1
SFAC C  
C      1  0.3958720000000  0.5358290000000  0.5251390000000 1.0
C      1  0.5645060000000  0.5358620000000  0.6012020000000 1.0
C      1  0.5565980000000  0.5447510000000  0.4195550000000 1.0
C      1  0.6154850000000  0.5572400000000  0.5066380000000 1.0
C      1  0.4597810000000  0.5310730000000  0.6118580000000 1.0
C      1  0.4475060000000  0.5242990000000  0.4338430000000 1.0
C      1  0.4543940000000  0.3281530000000  0.1862950000000 1.0
C      1  0.2458110000000  0.3156500000000  0.6855920000000 1.0
C      1  0.7806020000000  0.3522330000000  0.6160410000000 1.0
C      1  0.5455150000000  0.3369800000000  0.1889860000000 1.0
C      1  0.7356050000000  0.3426970000000  0.6952830000000 1.0
C      1  0.2021040000000  0.3150930000000  0.6050750000000 1.0
C      1  0.5413850000000  0.4354610000000  0.4033500000000 1.0
C      1  0.3792660000000  0.4277020000000  0.4946980000000 1.0
C      1  0.5413040000000  0.4277050000000  0.5974220000000 1.0
C      1  0.4327400000000  0.4224160000000  0.3993470000000 1.0
C      1  0.5934280000000  0.4472010000000  0.5020230000000 1.0
C      1  0.4314870000000  0.4261930000000  0.5918330000000 1.0
C      1  0.6526350000000  0.3590640000000  0.5017810000000 1.0
C      1  0.4132600000000  0.3352990000000  0.3519600000000 1.0
C      1  0.4083490000000  0.3359340000000  0.6363460000000 1.0
C      1  0.3312560000000  0.3349930000000  0.4942090000000 1.0
C      1  0.5762170000000  0.3508400000000  0.3568500000000 1.0
C      1  0.5736540000000  0.3422990000000  0.6413330000000 1.0
C      1  0.5607220000000  0.6207120000000  0.3416460000000 1.0
C      1  0.3420770000000  0.6298850000000  0.5394120000000 1.0
C      1  0.6134070000000  0.6373160000000  0.6127790000000 1.0
C      1  0.4567360000000  0.6081160000000  0.3585930000000 1.0
C      1  0.6724860000000  0.6474440000000  0.5235140000000 1.0
C      1  0.4025010000000  0.6247540000000  0.6291590000000 1.0
C      1  0.6520320000000  0.7289680000000  0.4601230000000 1.0
C      1  0.4110660000000  0.6985590000000  0.3877430000000 1.0
C      1  0.4526850000000  0.7171400000000  0.6424280000000 1.0
C      1  0.3634350000000  0.7132910000000  0.4777100000000 1.0
C      1  0.6012310000000  0.7126290000000  0.3713960000000 1.0
C      1  0.5537980000000  0.7242070000000  0.6304590000000 1.0
C      1  0.4008430000000  0.3279630000000  0.2600900000000 1.0
C      1  0.3361190000000  0.3250550000000  0.6940120000000 1.0
C      1  0.7397630000000  0.3588880000000  0.5348320000000 1.0
C      1  0.5939500000000  0.3466040000000  0.2656000000000 1.0
C      1  0.6446700000000  0.3388420000000  0.7012770000000 1.0
C      1  0.2439360000000  0.3238690000000  0.5245560000000 1.0
C      1  0.5553250000000  0.6155690000000  0.7074180000000 1.0
C      1  0.6661960000000  0.5969590000000  0.3585000000000 1.0
C      1  0.3069770000000  0.5915290000000  0.4425010000000 1.0
C      1  0.4720910000000  0.6098010000000  0.7180840000000 1.0
C      1  0.3470990000000  0.5833500000000  0.3695850000000 1.0
C      1  0.7101350000000  0.6087810000000  0.4282550000000 1.0
C      1  0.4010680000000  0.2653920000000  0.4941470000000 1.0
C      1  0.5446290000000  0.2708200000000  0.5813590000000 1.0
C      1  0.5480050000000  0.2755990000000  0.4130870000000 1.0
C      1  0.5935070000000  0.2803650000000  0.4978910000000 1.0
C      1  0.4477060000000  0.2662050000000  0.5793860000000 1.0
C      1  0.4506880000000  0.2664440000000  0.4108780000000 1.0
C      1  0.4572510000000  0.8046280000000  0.5881610000000 1.0
C      1  0.6063650000000  0.8150680000000  0.4958110000000 1.0
C      1  0.4545890000000  0.7874370000000  0.4161330000000 1.0
C      1  0.5631180000000  0.8143550000000  0.5802660000000 1.0
C      1  0.4056950000000  0.8036910000000  0.5078810000000 1.0
C      1  0.5493390000000  0.7948000000000  0.4086700000000 1.0
END
