TITL C-986976-6631-425 5.2252328270044e-06 3375 -336.326450865268 0 0 60 (C1) n - 1
REM
REM in /home/bkarasulu/work/CARBON/AIRSS/Generating-Clusters/REBO/Higher-Symm/Only-C60
REM
REM
REM
REM
REM
REM ./C.cell (a2850807a9bf4ad07a5b6933b78d9264)
REM AIRSS Version 0.9.1 bugfix July 2018 build 013d7b7c2542+ Fri, 06 Jul 2018 19:26:36 +0100
REM compiler GCC version 9.2.1 20190827 (Red Hat 9.2.1-1)
REM options -cpp -mtune=generic -march=x86-64 -g -O0 -fpre-include=/usr/include/finclude/math-vector-fortran.h
REM seed -232132968 1408953918 -341821004 966929369 -602794063 -398877375 -387508996 -48307724 2111834091 -1892352176 1171089734 1734551433 1466023548 -1956943165 311039876 1494973734 -103478463 2108936740 458027387 1031023594 799991790 1870918599 573323959 -410400218 -1301879114 1477336615 -658183328 949187399 1897708510 2087344910 189963695 -1889752591 -1109232798
REM
CELL 1.54180   15.00000   15.00000   15.00000   90.00000   90.00000   90.00000
LATT -1
SFAC C  
C      1  0.5838910000000  0.6632400000000  0.6331370000000 1.0
C      1  0.4174490000000  0.6662430000000  0.6306120000000 1.0
C      1  0.5546130000000  0.3117870000000  0.7242150000000 1.0
C      1  0.4474880000000  0.3119090000000  0.7243990000000 1.0
C      1  0.5743160000000  0.3170270000000  0.6232350000000 1.0
C      1  0.4274100000000  0.3174710000000  0.6234780000000 1.0
C      1  0.3777220000000  0.4126260000000  0.5990910000000 1.0
C      1  0.6246310000000  0.4112420000000  0.5985180000000 1.0
C      1  0.3834060000000  0.5080740000000  0.6544880000000 1.0
C      1  0.6191890000000  0.5053620000000  0.6555860000000 1.0
C      1  0.2310760000000  0.5063710000000  0.4798970000000 1.0
C      1  0.7699580000000  0.5075080000000  0.4795720000000 1.0
C      1  0.3122890000000  0.5759010000000  0.5218920000000 1.0
C      1  0.6877900000000  0.5753840000000  0.5224920000000 1.0
C      1  0.5835030000000  0.2643140000000  0.4193120000000 1.0
C      1  0.4180710000000  0.2640350000000  0.4195680000000 1.0
C      1  0.3679570000000  0.5882920000000  0.6116760000000 1.0
C      1  0.6335090000000  0.5859520000000  0.6132630000000 1.0
C      1  0.3691660000000  0.3410760000000  0.4340430000000 1.0
C      1  0.6325240000000  0.3414550000000  0.4331200000000 1.0
C      1  0.3961040000000  0.5530670000000  0.3563460000000 1.0
C      1  0.6047720000000  0.5530000000000  0.3559970000000 1.0
C      1  0.6405800000000  0.6229060000000  0.4379420000000 1.0
C      1  0.3580330000000  0.6233890000000  0.4368070000000 1.0
C      1  0.7033670000000  0.5379820000000  0.3956120000000 1.0
C      1  0.2972780000000  0.5366920000000  0.3954550000000 1.0
C      1  0.3981460000000  0.4314370000000  0.4963440000000 1.0
C      1  0.6034850000000  0.4313550000000  0.4960130000000 1.0
C      1  0.3067700000000  0.4342500000000  0.4355600000000 1.0
C      1  0.6946380000000  0.4350860000000  0.4349970000000 1.0
C      1  0.4352320000000  0.5068120000000  0.2711310000000 1.0
C      1  0.5653080000000  0.5069500000000  0.2708330000000 1.0
C      1  0.4186510000000  0.7111200000000  0.4535200000000 1.0
C      1  0.5827270000000  0.7126050000000  0.4507200000000 1.0
C      1  0.7098270000000  0.4713680000000  0.5650490000000 1.0
C      1  0.2920380000000  0.4719670000000  0.5655150000000 1.0
C      1  0.5763780000000  0.6882040000000  0.3415800000000 1.0
C      1  0.4244850000000  0.6888580000000  0.3423060000000 1.0
C      1  0.5000310000000  0.5793680000000  0.2286300000000 1.0
C      1  0.4982540000000  0.5752060000000  0.6845100000000 1.0
C      1  0.5007090000000  0.3642560000000  0.4498720000000 1.0
C      1  0.5005490000000  0.3479760000000  0.3571590000000 1.0
C      1  0.5044650000000  0.7892130000000  0.5738330000000 1.0
C      1  0.5007760000000  0.4708200000000  0.4674890000000 1.0
C      1  0.5005790000000  0.6245350000000  0.3972030000000 1.0
C      1  0.4973200000000  0.6406470000000  0.5039100000000 1.0
C      1  0.5006760000000  0.4756130000000  0.7071760000000 1.0
C      1  0.5017170000000  0.7118610000000  0.6290420000000 1.0
C      1  0.5039410000000  0.7709720000000  0.4836860000000 1.0
C      1  0.5008680000000  0.2340760000000  0.4765770000000 1.0
C      1  0.5013420000000  0.4742100000000  0.6003870000000 1.0
C      1  0.5003570000000  0.4217970000000  0.2938940000000 1.0
C      1  0.5007000000000  0.2438860000000  0.3440510000000 1.0
C      1  0.5009140000000  0.3793750000000  0.5626680000000 1.0
C      1  0.5005940000000  0.2481890000000  0.5698740000000 1.0
C      1  0.4948580000000  0.6433170000000  0.7431650000000 1.0
C      1  0.5000460000000  0.6672900000000  0.2712660000000 1.0
C      1  0.5011840000000  0.3985770000000  0.7602950000000 1.0
C      1  0.5005240000000  0.5233810000000  0.3857110000000 1.0
C      1  0.4999280000000  0.5771810000000  0.5756660000000 1.0
END
