TITL C-986975-4297-76 4.04797319433411e-06 3375 -360.819470792278 0 0 60 (C1) n - 1
REM
REM in /home/bkarasulu/work/CARBON/AIRSS/Generating-Clusters/REBO/Higher-Symm/Only-C60
REM
REM
REM
REM
REM
REM ./C.cell (a2850807a9bf4ad07a5b6933b78d9264)
REM AIRSS Version 0.9.1 bugfix July 2018 build 013d7b7c2542+ Fri, 06 Jul 2018 19:26:36 +0100
REM compiler GCC version 9.2.1 20190827 (Red Hat 9.2.1-1)
REM options -cpp -mtune=generic -march=x86-64 -g -O0 -fpre-include=/usr/include/finclude/math-vector-fortran.h
REM seed 718672496 525664808 1693297023 -1175935430 1062361503 213678988 1300604396 502212749 73508494 873811 102165970 -1286231374 -763278187 -1975714750 271947814 319873663 2104724982 -400441974 519845421 -1571151023 -627784009 746066574 1981130036 983741663 -682799781 -651651957 -935094295 -1112073024 -749825205 -1227379417 -1367337714 -660295636 539748755
REM
CELL 1.54180   15.00000   15.00000   15.00000   90.00000   90.00000   90.00000
LATT -1
SFAC C  
C      1  0.8583760000000  0.5048360000000  0.3962040000000 1.0
C      1  0.5072490000000  0.5011660000000  0.1310000000000 1.0
C      1  0.1511930000000  0.5017880000000  0.3731930000000 1.0
C      1  0.2715610000000  0.5019330000000  0.7881080000000 1.0
C      1  0.7060220000000  0.5080740000000  0.8123800000000 1.0
C      1  0.2426470000000  0.5065660000000  0.3820570000000 1.0
C      1  0.3070360000000  0.5030460000000  0.7032630000000 1.0
C      1  0.6383190000000  0.5045230000000  0.7502540000000 1.0
C      1  0.7804570000000  0.5013260000000  0.4450240000000 1.0
C      1  0.5318780000000  0.5022470000000  0.2196570000000 1.0
C      1  0.6540760000000  0.5971660000000  0.5012250000000 1.0
C      1  0.5542020000000  0.6132440000000  0.3450190000000 1.0
C      1  0.3597380000000  0.6328560000000  0.3970430000000 1.0
C      1  0.3596220000000  0.6255060000000  0.5957510000000 1.0
C      1  0.5502670000000  0.6122210000000  0.6549420000000 1.0
C      1  0.5525710000000  0.3687260000000  0.3433500000000 1.0
C      1  0.3713310000000  0.3757040000000  0.4103630000000 1.0
C      1  0.3734580000000  0.3691720000000  0.6009120000000 1.0
C      1  0.5611980000000  0.3672620000000  0.6573850000000 1.0
C      1  0.6736170000000  0.3619640000000  0.4978930000000 1.0
C      1  0.5786900000000  0.4090060000000  0.7370550000000 1.0
C      1  0.7542680000000  0.4063810000000  0.5015450000000 1.0
C      1  0.5784730000000  0.4098700000000  0.2659610000000 1.0
C      1  0.3056430000000  0.4147190000000  0.3605640000000 1.0
C      1  0.3010480000000  0.4106620000000  0.6386530000000 1.0
C      1  0.6452240000000  0.5679210000000  0.6672160000000 1.0
C      1  0.7013610000000  0.5628600000000  0.4142890000000 1.0
C      1  0.4798510000000  0.5667160000000  0.2834310000000 1.0
C      1  0.2809290000000  0.5766800000000  0.4490750000000 1.0
C      1  0.3862170000000  0.5684680000000  0.6847320000000 1.0
C      1  0.5332600000000  0.3027720000000  0.5816180000000 1.0
C      1  0.5909620000000  0.2970610000000  0.4991400000000 1.0
C      1  0.5290120000000  0.3035250000000  0.4196960000000 1.0
C      1  0.4353540000000  0.3084680000000  0.4534240000000 1.0
C      1  0.4376170000000  0.3049140000000  0.5527120000000 1.0
C      1  0.4337660000000  0.4452970000000  0.4541010000000 1.0
C      1  0.4368400000000  0.4378700000000  0.5583300000000 1.0
C      1  0.5388200000000  0.4358950000000  0.5846110000000 1.0
C      1  0.5978340000000  0.4297050000000  0.4991230000000 1.0
C      1  0.5335490000000  0.4366280000000  0.4177380000000 1.0
C      1  0.4117970000000  0.5527510000000  0.4422260000000 1.0
C      1  0.4124160000000  0.5458780000000  0.5479830000000 1.0
C      1  0.5110420000000  0.5443800000000  0.5846860000000 1.0
C      1  0.5709840000000  0.5338850000000  0.5002240000000 1.0
C      1  0.5114530000000  0.5449610000000  0.4131420000000 1.0
C      1  0.3895310000000  0.5711060000000  0.3121130000000 1.0
C      1  0.2818390000000  0.5713930000000  0.5438620000000 1.0
C      1  0.4765500000000  0.5610030000000  0.7124330000000 1.0
C      1  0.6985670000000  0.5600470000000  0.5879840000000 1.0
C      1  0.6471050000000  0.5657020000000  0.3352630000000 1.0
C      1  0.5245040000000  0.6767620000000  0.5773870000000 1.0
C      1  0.5813190000000  0.6719000000000  0.5006160000000 1.0
C      1  0.5264470000000  0.6770800000000  0.4225360000000 1.0
C      1  0.4347610000000  0.6838040000000  0.4506420000000 1.0
C      1  0.4333860000000  0.6822730000000  0.5469230000000 1.0
C      1  0.6351530000000  0.5010470000000  0.2666590000000 1.0
C      1  0.3239800000000  0.5034640000000  0.3040480000000 1.0
C      1  0.2558640000000  0.5012930000000  0.6021280000000 1.0
C      1  0.5256800000000  0.4981620000000  0.7638010000000 1.0
C      1  0.7640840000000  0.4983660000000  0.5573060000000 1.0
END
