TITL C-986979-5873-943 -0.179816416001702 3375 -345.619872046808 0 0 60 (C2) n - 1
REM
REM in /home/bkarasulu/work/CARBON/AIRSS/Generating-Clusters/REBO/Higher-Symm/Only-C60
REM
REM
REM
REM
REM
REM ./C.cell (a2850807a9bf4ad07a5b6933b78d9264)
REM AIRSS Version 0.9.1 bugfix July 2018 build 013d7b7c2542+ Fri, 06 Jul 2018 19:26:36 +0100
REM compiler GCC version 9.2.1 20190827 (Red Hat 9.2.1-1)
REM options -cpp -mtune=generic -march=x86-64 -g -O0 -fpre-include=/usr/include/finclude/math-vector-fortran.h
REM seed -278268938 2087686954 203415647 -990990771 -1474672120 -1816775991 313872480 902128969 -1578078777 1102627982 -972686725 1148858588 -294330777 429189841 -1178182374 1005864714 -2043953973 -2019498942 1640836213 1414059032 608790771 2051344025 1823864268 2131924748 1800952504 1735716232 -1985650958 -1543853734 -1542919858 -1763880523 -703164987 845132358 1060856524
REM
CELL 1.54180   15.00000   15.00000   15.00000   90.00000   90.00000   90.00000
LATT -1
SFAC C  
C      1  0.4061410000000  0.5508260000000  0.7255710000000 1.0
C      1  0.5950410000000  0.5542300000000  0.2923680000000 1.0
C      1  0.4075090000000  0.4494150000000  0.7092370000000 1.0
C      1  0.5937410000000  0.4516850000000  0.2729880000000 1.0
C      1  0.5936730000000  0.5485190000000  0.7272510000000 1.0
C      1  0.4076170000000  0.5506130000000  0.2905770000000 1.0
C      1  0.5948740000000  0.4458700000000  0.7078670000000 1.0
C      1  0.4061630000000  0.4492500000000  0.2741930000000 1.0
C      1  0.6949870000000  0.4498140000000  0.4570520000000 1.0
C      1  0.2969320000000  0.4484820000000  0.5647690000000 1.0
C      1  0.7035390000000  0.5529140000000  0.4364310000000 1.0
C      1  0.3063090000000  0.5511780000000  0.5416540000000 1.0
C      1  0.3062170000000  0.4486810000000  0.4583920000000 1.0
C      1  0.7034940000000  0.4466860000000  0.5636250000000 1.0
C      1  0.2967730000000  0.5513480000000  0.4352880000000 1.0
C      1  0.6951820000000  0.5498120000000  0.5430340000000 1.0
C      1  0.5530690000000  0.5432640000000  0.6284880000000 1.0
C      1  0.4496080000000  0.5611310000000  0.3907180000000 1.0
C      1  0.5543690000000  0.4378790000000  0.6069630000000 1.0
C      1  0.4473720000000  0.4540230000000  0.3722280000000 1.0
C      1  0.4475590000000  0.5460000000000  0.6276290000000 1.0
C      1  0.5545730000000  0.5623830000000  0.3932080000000 1.0
C      1  0.4494220000000  0.4389430000000  0.6091130000000 1.0
C      1  0.5528660000000  0.4570010000000  0.3716520000000 1.0
C      1  0.6054200000000  0.5977550000000  0.5685350000000 1.0
C      1  0.3878360000000  0.6112650000000  0.4553790000000 1.0
C      1  0.6119140000000  0.3866400000000  0.5397170000000 1.0
C      1  0.3971820000000  0.3996670000000  0.4346850000000 1.0
C      1  0.3973430000000  0.6003240000000  0.5651210000000 1.0
C      1  0.6122290000000  0.6134120000000  0.4605680000000 1.0
C      1  0.3880070000000  0.3885310000000  0.5444050000000 1.0
C      1  0.6049990000000  0.4022520000000  0.4316800000000 1.0
C      1  0.4452430000000  0.2972960000000  0.5733160000000 1.0
C      1  0.5606450000000  0.3058650000000  0.4469060000000 1.0
C      1  0.4486060000000  0.6943720000000  0.5394510000000 1.0
C      1  0.5578440000000  0.7049900000000  0.4410900000000 1.0
C      1  0.5580070000000  0.2948660000000  0.5593980000000 1.0
C      1  0.4480820000000  0.3054060000000  0.4599130000000 1.0
C      1  0.5610190000000  0.6940760000000  0.5535440000000 1.0
C      1  0.4452670000000  0.7024080000000  0.4260640000000 1.0
C      1  0.4075290000000  0.6443260000000  0.7402200000000 1.0
C      1  0.5884630000000  0.6436010000000  0.2609330000000 1.0
C      1  0.4057450000000  0.3639810000000  0.7481810000000 1.0
C      1  0.5918390000000  0.3597670000000  0.2532980000000 1.0
C      1  0.5918600000000  0.6404120000000  0.7469930000000 1.0
C      1  0.4055490000000  0.6359870000000  0.2515150000000 1.0
C      1  0.5887550000000  0.3567100000000  0.7395750000000 1.0
C      1  0.4074260000000  0.3558840000000  0.2592420000000 1.0
C      1  0.4322280000000  0.7208740000000  0.3217420000000 1.0
C      1  0.5612470000000  0.7092670000000  0.6618900000000 1.0
C      1  0.4476580000000  0.2957690000000  0.3468880000000 1.0
C      1  0.5451270000000  0.2838130000000  0.6643340000000 1.0
C      1  0.5442670000000  0.7159350000000  0.3363870000000 1.0
C      1  0.4481740000000  0.7039480000000  0.6525100000000 1.0
C      1  0.5608160000000  0.2911430000000  0.3383870000000 1.0
C      1  0.4329470000000  0.2792530000000  0.6780320000000 1.0
C      1  0.4989630000000  0.6922510000000  0.7635750000000 1.0
C      1  0.4977760000000  0.6857660000000  0.2268040000000 1.0
C      1  0.4978850000000  0.3143040000000  0.7731700000000 1.0
C      1  0.4990720000000  0.3079340000000  0.2362550000000 1.0
END
