TITL C-986976-6631-376 -8.45534045014822e-07 3375 -332.042261734392 0 0 60 (C10) n - 1
REM
REM in /home/bkarasulu/work/CARBON/AIRSS/Generating-Clusters/REBO/Higher-Symm/Only-C60
REM
REM
REM
REM
REM
REM ./C.cell (a2850807a9bf4ad07a5b6933b78d9264)
REM AIRSS Version 0.9.1 bugfix July 2018 build 013d7b7c2542+ Fri, 06 Jul 2018 19:26:36 +0100
REM compiler GCC version 9.2.1 20190827 (Red Hat 9.2.1-1)
REM options -cpp -mtune=generic -march=x86-64 -g -O0 -fpre-include=/usr/include/finclude/math-vector-fortran.h
REM seed 426393156 1603717027 1969361841 1976019697 1225682681 -1342731619 471161522 1290477887 -699756632 602381284 -681525849 282578025 792846242 994083094 94570703 1337745357 -586344214 -1220115636 -534007404 -1772084134 797783160 -648022585 2102441653 695814478 -1076219576 492395634 748598983 -1220923827 -478379402 -423159325 736902760 566488938 1721929346
REM
CELL 1.54180   15.00000   15.00000   15.00000   90.00000   90.00000   90.00000
LATT -1
SFAC C  
C      1  0.5353860000000  0.6802470000000  0.3625610000000 1.0
C      1  0.4226810000000  0.6666230000000  0.3625610000000 1.0
C      1  0.3395090000000  0.5893540000000  0.3625610000000 1.0
C      1  0.3176400000000  0.4779550000000  0.3625610000000 1.0
C      1  0.3654250000000  0.3749770000000  0.3625610000000 1.0
C      1  0.4646140000000  0.3197530000000  0.3625610000000 1.0
C      1  0.5773190000000  0.3333770000000  0.3625610000000 1.0
C      1  0.6604910000000  0.4106460000000  0.3625610000000 1.0
C      1  0.6823600000000  0.5220450000000  0.3625610000000 1.0
C      1  0.6345750000000  0.6250230000000  0.3625610000000 1.0
C      1  0.5338700000000  0.2198180000000  0.5274970000000 1.0
C      1  0.6920890000000  0.2932370000000  0.5274970000000 1.0
C      1  0.7769360000000  0.4456320000000  0.5274970000000 1.0
C      1  0.7560030000000  0.6187940000000  0.5274960000000 1.0
C      1  0.6372850000000  0.7465810000000  0.5274970000000 1.0
C      1  0.4661300000000  0.7801820000000  0.5274970000000 1.0
C      1  0.3079110000000  0.7067630000000  0.5274970000000 1.0
C      1  0.2230640000000  0.5543680000000  0.5274970000000 1.0
C      1  0.2439970000000  0.3812060000000  0.5274960000000 1.0
C      1  0.3627150000000  0.2534190000000  0.5274970000000 1.0
C      1  0.4280020000000  0.3706830000000  0.4800750000000 1.0
C      1  0.5177640000000  0.3530590000000  0.4800750000000 1.0
C      1  0.6007410000000  0.3915630000000  0.4800750000000 1.0
C      1  0.6452370000000  0.4714860000000  0.4800750000000 1.0
C      1  0.6342580000000  0.5623000000000  0.4800750000000 1.0
C      1  0.5719980000000  0.6293170000000  0.4800750000000 1.0
C      1  0.4822360000000  0.6469410000000  0.4800750000000 1.0
C      1  0.3992590000000  0.6084370000000  0.4800750000000 1.0
C      1  0.3547630000000  0.5285140000000  0.4800750000000 1.0
C      1  0.3657420000000  0.4377000000000  0.4800750000000 1.0
C      1  0.5893010000000  0.6603950000000  0.6171920000000 1.0
C      1  0.4779680000000  0.6822520000000  0.6171920000000 1.0
C      1  0.3750510000000  0.6344950000000  0.6171920000000 1.0
C      1  0.3198600000000  0.5353650000000  0.6171920000000 1.0
C      1  0.3334760000000  0.4227270000000  0.6171920000000 1.0
C      1  0.4106990000000  0.3396050000000  0.6171920000000 1.0
C      1  0.5220320000000  0.3177480000000  0.6171920000000 1.0
C      1  0.6249490000000  0.3655050000000  0.6171920000000 1.0
C      1  0.6801400000000  0.4646350000000  0.6171920000000 1.0
C      1  0.6665240000000  0.5772730000000  0.6171920000000 1.0
C      1  0.6684170000000  0.3187170000000  0.4301410000000 1.0
C      1  0.7428070000000  0.4523320000000  0.4301420000000 1.0
C      1  0.7244530000000  0.6041540000000  0.4301420000000 1.0
C      1  0.6203660000000  0.7161920000000  0.4301420000000 1.0
C      1  0.4703040000000  0.7456540000000  0.4301410000000 1.0
C      1  0.3315830000000  0.6812830000000  0.4301410000000 1.0
C      1  0.2571930000000  0.5476680000000  0.4301420000000 1.0
C      1  0.2755470000000  0.3958460000000  0.4301420000000 1.0
C      1  0.3796340000000  0.2838080000000  0.4301420000000 1.0
C      1  0.5296960000000  0.2543460000000  0.4301410000000 1.0
C      1  0.7658300000000  0.5321360000000  0.5825340000000 1.0
C      1  0.6961720000000  0.6822490000000  0.5825340000000 1.0
C      1  0.5515830000000  0.7627490000000  0.5825340000000 1.0
C      1  0.3872920000000  0.7428880000000  0.5825340000000 1.0
C      1  0.2660510000000  0.6302520000000  0.5825340000000 1.0
C      1  0.2341700000000  0.4678640000000  0.5825340000000 1.0
C      1  0.3038280000000  0.3177510000000  0.5825340000000 1.0
C      1  0.4484170000000  0.2372510000000  0.5825340000000 1.0
C      1  0.6127080000000  0.2571120000000  0.5825340000000 1.0
C      1  0.7339490000000  0.3697480000000  0.5825340000000 1.0
END
