TITL C-986972-3822-89 -0.000904667757797213 3375 -347.148604887084 0 0 60 (C5) n - 1
REM
REM in /home/bkarasulu/work/CARBON/AIRSS/Generating-Clusters/REBO/Higher-Symm/Only-C60
REM
REM
REM
REM
REM
REM ./C.cell (a2850807a9bf4ad07a5b6933b78d9264)
REM AIRSS Version 0.9.1 bugfix July 2018 build 013d7b7c2542+ Fri, 06 Jul 2018 19:26:36 +0100
REM compiler GCC version 9.2.1 20190827 (Red Hat 9.2.1-1)
REM options -cpp -mtune=generic -march=x86-64 -g -O0 -fpre-include=/usr/include/finclude/math-vector-fortran.h
REM seed -502997777 -1153677937 1757542805 -630472417 -513520133 1357249838 -226802714 486937179 242942029 331957572 -576535219 766300381 1360245867 1209002704 -1839382586 -2137468935 105011632 -1290261479 -1653802509 -34299122 -528147075 -1597931099 1676387457 80064337 576776132 1721767915 -1445044427 -693713541 -1120644355 -964568455 -625317365 471545148 -1466710900
REM
CELL 1.54180   15.00000   15.00000   15.00000   90.00000   90.00000   90.00000
LATT -1
SFAC C  
C      1  0.6779490000000  0.6487980000000  0.3858080000000 1.0
C      1  0.6965040000000  0.3767350000000  0.3858160000000 1.0
C      1  0.4434910000000  0.2750160000000  0.3858310000000 1.0
C      1  0.2685640000000  0.4842110000000  0.3858320000000 1.0
C      1  0.4134660000000  0.7152230000000  0.3858180000000 1.0
C      1  0.7159390000000  0.5865080000000  0.4461490000000 1.0
C      1  0.6490040000000  0.3213600000000  0.4461610000000 1.0
C      1  0.3761480000000  0.3030800000000  0.4461740000000 1.0
C      1  0.2744490000000  0.5569370000000  0.4461700000000 1.0
C      1  0.4844510000000  0.7321030000000  0.4461550000000 1.0
C      1  0.2626310000000  0.5138820000000  0.5314820000000 1.0
C      1  0.4398520000000  0.7300430000000  0.5314680000000 1.0
C      1  0.7001980000000  0.6282940000000  0.5314590000000 1.0
C      1  0.6838800000000  0.3492480000000  0.5314680000000 1.0
C      1  0.4134480000000  0.2785360000000  0.5314820000000 1.0
C      1  0.3984130000000  0.5849960000000  0.4062350000000 1.0
C      1  0.5494440000000  0.6228740000000  0.4062260000000 1.0
C      1  0.6321390000000  0.4909410000000  0.4062260000000 1.0
C      1  0.5322160000000  0.3715230000000  0.4062330000000 1.0
C      1  0.3877650000000  0.4296550000000  0.4062380000000 1.0
C      1  0.5799330000000  0.5505000000000  0.3267640000000 1.0
C      1  0.5727290000000  0.4395730000000  0.3267680000000 1.0
C      1  0.4650040000000  0.4121470000000  0.3267750000000 1.0
C      1  0.4056310000000  0.5061240000000  0.3267750000000 1.0
C      1  0.4766620000000  0.5916310000000  0.3267690000000 1.0
C      1  0.3755340000000  0.4354790000000  0.5761320000000 1.0
C      1  0.4001740000000  0.5984410000000  0.5761260000000 1.0
C      1  0.5627760000000  0.6253650000000  0.5761180000000 1.0
C      1  0.6386290000000  0.4790400000000  0.5761180000000 1.0
C      1  0.5229050000000  0.3616840000000  0.5761260000000 1.0
C      1  0.3089240000000  0.5512740000000  0.6153130000000 1.0
C      1  0.4897190000000  0.6975760000000  0.6153010000000 1.0
C      1  0.6847280000000  0.5708390000000  0.6152940000000 1.0
C      1  0.6244560000000  0.3462110000000  0.6153020000000 1.0
C      1  0.3921980000000  0.3341180000000  0.6153140000000 1.0
C      1  0.5953350000000  0.7151830000000  0.4285130000000 1.0
C      1  0.7341120000000  0.4758220000000  0.4285130000000 1.0
C      1  0.5493490000000  0.2698710000000  0.4285280000000 1.0
C      1  0.2963820000000  0.3819500000000  0.4285350000000 1.0
C      1  0.3248040000000  0.6571650000000  0.4285270000000 1.0
C      1  0.3092700000000  0.6632090000000  0.6030520000000 1.0
C      1  0.5962830000000  0.7318350000000  0.6030370000000 1.0
C      1  0.7502420000000  0.4800780000000  0.6030360000000 1.0
C      1  0.5583820000000  0.2558560000000  0.6030520000000 1.0
C      1  0.2858480000000  0.3690360000000  0.6030600000000 1.0
C      1  0.5145400000000  0.4160260000000  0.4947410000000 1.0
C      1  0.4246290000000  0.4602220000000  0.4947440000000 1.0
C      1  0.4388770000000  0.5593900000000  0.4947410000000 1.0
C      1  0.5375950000000  0.5764830000000  0.4947360000000 1.0
C      1  0.5843570000000  0.4878790000000  0.4947360000000 1.0
C      1  0.2551470000000  0.4195890000000  0.5217540000000 1.0
C      1  0.3478610000000  0.7080230000000  0.5217420000000 1.0
C      1  0.6508280000000  0.7089760000000  0.5217280000000 1.0
C      1  0.7453580000000  0.4211330000000  0.5217320000000 1.0
C      1  0.5008120000000  0.2422810000000  0.5217490000000 1.0
C      1  0.4994840000000  0.5942380000000  0.6640610000000 1.0
C      1  0.5894660000000  0.5296210000000  0.6640580000000 1.0
C      1  0.5558180000000  0.4240760000000  0.6640620000000 1.0
C      1  0.4450420000000  0.4234620000000  0.6640680000000 1.0
C      1  0.4102250000000  0.5286270000000  0.6640680000000 1.0
END
