TITL C-986974-580-780 -1.55792442041912e-05 3375 -353.744120761059 0 0 60 (S4) n - 1
REM
REM in /home/bkarasulu/work/CARBON/AIRSS/Generating-Clusters/REBO/Higher-Symm/Only-C60
REM
REM
REM
REM
REM
REM ./C.cell (a2850807a9bf4ad07a5b6933b78d9264)
REM AIRSS Version 0.9.1 bugfix July 2018 build 013d7b7c2542+ Fri, 06 Jul 2018 19:26:36 +0100
REM compiler GCC version 9.2.1 20190827 (Red Hat 9.2.1-1)
REM options -cpp -mtune=generic -march=x86-64 -g -O0 -fpre-include=/usr/include/finclude/math-vector-fortran.h
REM seed -1896887150 -1783988533 175756015 -1292785116 -1532034627 1219273719 1929380222 -301621719 -2555308 655748669 -254612336 1858142492 -1875671837 250529598 2051375432 1532502083 537512269 -86288106 726260604 -1966964294 -469459392 75619141 -1850344843 618782130 -469962474 -1359559709 -1663860110 -574234023 288385532 -1096147031 -1450338893 1542956506 334990491
REM
CELL 1.54180   15.00000   15.00000   15.00000   90.00000   90.00000   90.00000
LATT -1
SFAC C  
C      1  0.5625000000000  0.2890960000000  0.6118110000000 1.0
C      1  0.7109040000000  0.5625000000000  0.3881890000000 1.0
C      1  0.4375000000000  0.7109040000000  0.6118110000000 1.0
C      1  0.2890960000000  0.4375000000000  0.3881890000000 1.0
C      1  0.3284930000000  0.3335300000000  0.3644500000000 1.0
C      1  0.6664700000000  0.3284930000000  0.6355500000000 1.0
C      1  0.6715070000000  0.6664700000000  0.3644500000000 1.0
C      1  0.3335300000000  0.6715070000000  0.6355500000000 1.0
C      1  0.5193130000000  0.4479530000000  0.6005560000000 1.0
C      1  0.5520470000000  0.5193130000000  0.3994440000000 1.0
C      1  0.4806880000000  0.5520470000000  0.6005560000000 1.0
C      1  0.4479530000000  0.4806880000000  0.3994440000000 1.0
C      1  0.7503790000000  0.4494310000000  0.5374410000000 1.0
C      1  0.5505690000000  0.7503780000000  0.4625590000000 1.0
C      1  0.2496220000000  0.5505690000000  0.5374410000000 1.0
C      1  0.4494310000000  0.2496220000000  0.4625590000000 1.0
C      1  0.5164010000000  0.6132260000000  0.5212480000000 1.0
C      1  0.3867740000000  0.5164010000000  0.4787530000000 1.0
C      1  0.4835990000000  0.3867740000000  0.5212470000000 1.0
C      1  0.6132260000000  0.4835990000000  0.4787520000000 1.0
C      1  0.3987330000000  0.4956330000000  0.5703210000000 1.0
C      1  0.5043670000000  0.3987330000000  0.4296790000000 1.0
C      1  0.6012670000000  0.5043670000000  0.5703210000000 1.0
C      1  0.4956330000000  0.6012670000000  0.4296790000000 1.0
C      1  0.2611140000000  0.4735150000000  0.4901490000000 1.0
C      1  0.5264850000000  0.2611140000000  0.5098510000000 1.0
C      1  0.7388860000000  0.5264850000000  0.4901490000000 1.0
C      1  0.4735150000000  0.7388860000000  0.5098510000000 1.0
C      1  0.6469750000000  0.3947230000000  0.4636030000000 1.0
C      1  0.6052780000000  0.6469750000000  0.5363970000000 1.0
C      1  0.3530250000000  0.6052770000000  0.4636030000000 1.0
C      1  0.3947230000000  0.3530250000000  0.5363970000000 1.0
C      1  0.3370030000000  0.6131480000000  0.3631160000000 1.0
C      1  0.3868530000000  0.3370030000000  0.6368840000000 1.0
C      1  0.6629970000000  0.3868530000000  0.3631160000000 1.0
C      1  0.6131480000000  0.6629970000000  0.6368840000000 1.0
C      1  0.2728680000000  0.6243760000000  0.5834280000000 1.0
C      1  0.3756240000000  0.2728680000000  0.4165720000000 1.0
C      1  0.7271320000000  0.3756240000000  0.5834280000000 1.0
C      1  0.6243760000000  0.7271320000000  0.4165720000000 1.0
C      1  0.3951570000000  0.4698680000000  0.3144490000000 1.0
C      1  0.5301320000000  0.3951570000000  0.6855520000000 1.0
C      1  0.6048420000000  0.5301320000000  0.3144480000000 1.0
C      1  0.4698680000000  0.6048430000000  0.6855520000000 1.0
C      1  0.6103520000000  0.3262860000000  0.5148810000000 1.0
C      1  0.6737140000000  0.6103520000000  0.4851180000000 1.0
C      1  0.3896480000000  0.6737130000000  0.5148820000000 1.0
C      1  0.3262860000000  0.3896480000000  0.4851190000000 1.0
C      1  0.6853220000000  0.4722420000000  0.3245780000000 1.0
C      1  0.5277590000000  0.6853220000000  0.6754220000000 1.0
C      1  0.3146770000000  0.5277580000000  0.3245780000000 1.0
C      1  0.4722420000000  0.3146770000000  0.6754220000000 1.0
C      1  0.4364430000000  0.6392810000000  0.3657360000000 1.0
C      1  0.3607200000000  0.4364430000000  0.6342640000000 1.0
C      1  0.5635570000000  0.3607200000000  0.3657360000000 1.0
C      1  0.6392810000000  0.5635570000000  0.6342640000000 1.0
C      1  0.3809580000000  0.6248710000000  0.7087200000000 1.0
C      1  0.3751290000000  0.3809580000000  0.2912800000000 1.0
C      1  0.6190430000000  0.3751290000000  0.7087200000000 1.0
C      1  0.6248710000000  0.6190430000000  0.2912800000000 1.0
END
