TITL C-986973-6940-305 -6.11963366358714e-07 3375 -340.739021900676 0 0 60 (Ci) n - 1
REM
REM in /home/bkarasulu/work/CARBON/AIRSS/Generating-Clusters/REBO/Higher-Symm/Only-C60
REM
REM
REM
REM
REM
REM ./C.cell (a2850807a9bf4ad07a5b6933b78d9264)
REM AIRSS Version 0.9.1 bugfix July 2018 build 013d7b7c2542+ Fri, 06 Jul 2018 19:26:36 +0100
REM compiler GCC version 9.2.1 20190827 (Red Hat 9.2.1-1)
REM options -cpp -mtune=generic -march=x86-64 -g -O0 -fpre-include=/usr/include/finclude/math-vector-fortran.h
REM seed -633725009 199714142 1925158291 740457134 -1748677853 -1261005873 233414557 -1530779763 -197551202 1985202288 1698671724 1958382351 445865731 1129630354 788241771 -1074660090 -1757616165 308152751 -1015819421 -523101300 11008712 1956938050 -1827820819 -253639418 -1616447303 -316865770 1562570395 1620846719 -1412541433 534793639 -310048529 -1406147881 1704762222
REM
CELL 1.54180   15.00000   15.00000   15.00000   90.00000   90.00000   90.00000
LATT -1
SFAC C  
C      1  0.5225380000000  0.6924650000000  0.3972420000000 1.0
C      1  0.4774820000000  0.3075130000000  0.6027500000000 1.0
C      1  0.4798720000000  0.4122740000000  0.7370720000000 1.0
C      1  0.5201240000000  0.5877180000000  0.2629120000000 1.0
C      1  0.3687330000000  0.4804630000000  0.5336570000000 1.0
C      1  0.6312760000000  0.5195340000000  0.4663520000000 1.0
C      1  0.7197200000000  0.5481410000000  0.3971640000000 1.0
C      1  0.2802940000000  0.4518540000000  0.6028530000000 1.0
C      1  0.4442380000000  0.5293630000000  0.4138510000000 1.0
C      1  0.5557600000000  0.4706420000000  0.5861530000000 1.0
C      1  0.3696970000000  0.5788260000000  0.5126640000000 1.0
C      1  0.6303000000000  0.4211690000000  0.4873450000000 1.0
C      1  0.4766580000000  0.5156260000000  0.7502250000000 1.0
C      1  0.5233310000000  0.4843620000000  0.2497620000000 1.0
C      1  0.5699910000000  0.6480280000000  0.4836760000000 1.0
C      1  0.4300000000000  0.3519850000000  0.5163370000000 1.0
C      1  0.4747750000000  0.5968480000000  0.4970330000000 1.0
C      1  0.5252220000000  0.4031580000000  0.5029780000000 1.0
C      1  0.7412690000000  0.2515120000000  0.3422500000000 1.0
C      1  0.2587400000000  0.7485150000000  0.6577260000000 1.0
C      1  0.2458250000000  0.4463090000000  0.4993990000000 1.0
C      1  0.7541730000000  0.5537130000000  0.5006250000000 1.0
C      1  0.6835670000000  0.6409530000000  0.4808370000000 1.0
C      1  0.3164220000000  0.3590540000000  0.5191560000000 1.0
C      1  0.5659250000000  0.3007700000000  0.6219560000000 1.0
C      1  0.4340930000000  0.6992170000000  0.3780460000000 1.0
C      1  0.4155410000000  0.5597150000000  0.6781770000000 1.0
C      1  0.5844380000000  0.4402880000000  0.3218210000000 1.0
C      1  0.6145810000000  0.6131770000000  0.6481710000000 1.0
C      1  0.3854150000000  0.3868200000000  0.3518340000000 1.0
C      1  0.3742970000000  0.6283700000000  0.3560160000000 1.0
C      1  0.6257130000000  0.3716240000000  0.6439900000000 1.0
C      1  0.5252220000000  0.4581800000000  0.4144330000000 1.0
C      1  0.4747780000000  0.5418280000000  0.5855780000000 1.0
C      1  0.4636120000000  0.7033920000000  0.7140750000000 1.0
C      1  0.5363800000000  0.2966070000000  0.2859260000000 1.0
C      1  0.4245880000000  0.5514790000000  0.3065900000000 1.0
C      1  0.5754110000000  0.4485150000000  0.6934070000000 1.0
C      1  0.4511410000000  0.3369980000000  0.2828400000000 1.0
C      1  0.5488490000000  0.6629970000000  0.7171610000000 1.0
C      1  0.6928110000000  0.3253820000000  0.3630640000000 1.0
C      1  0.3071860000000  0.6746350000000  0.6369260000000 1.0
C      1  0.7555210000000  0.4522230000000  0.5165870000000 1.0
C      1  0.2444750000000  0.5477840000000  0.4834100000000 1.0
C      1  0.3207400000000  0.3605350000000  0.6311120000000 1.0
C      1  0.6792740000000  0.6394540000000  0.3688800000000 1.0
C      1  0.2810190000000  0.6165050000000  0.5664030000000 1.0
C      1  0.7189780000000  0.3835080000000  0.4335890000000 1.0
C      1  0.5814410000000  0.6386660000000  0.3309600000000 1.0
C      1  0.4185680000000  0.3613130000000  0.6690240000000 1.0
C      1  0.4231090000000  0.4459800000000  0.2648620000000 1.0
C      1  0.5768780000000  0.5540130000000  0.7351350000000 1.0
C      1  0.3881060000000  0.6538860000000  0.6830070000000 1.0
C      1  0.6118820000000  0.3461200000000  0.3169920000000 1.0
C      1  0.3152990000000  0.5999700000000  0.4213810000000 1.0
C      1  0.6847060000000  0.4000300000000  0.5786230000000 1.0
C      1  0.5907230000000  0.5398230000000  0.3687330000000 1.0
C      1  0.4092940000000  0.4601650000000  0.6312740000000 1.0
C      1  0.3982370000000  0.4295720000000  0.4421310000000 1.0
C      1  0.6017620000000  0.5704320000000  0.5578690000000 1.0
END
