TITL C-986974-580-365 3.13125557627411e-06 3375 -342.977412862651 0 0 60 (C1) n - 1
REM
REM in /home/bkarasulu/work/CARBON/AIRSS/Generating-Clusters/REBO/Higher-Symm/Only-C60
REM
REM
REM
REM
REM
REM ./C.cell (a2850807a9bf4ad07a5b6933b78d9264)
REM AIRSS Version 0.9.1 bugfix July 2018 build 013d7b7c2542+ Fri, 06 Jul 2018 19:26:36 +0100
REM compiler GCC version 9.2.1 20190827 (Red Hat 9.2.1-1)
REM options -cpp -mtune=generic -march=x86-64 -g -O0 -fpre-include=/usr/include/finclude/math-vector-fortran.h
REM seed -1943745575 -1880888204 -1154929100 1100962424 -1135671530 1157829912 -152902830 1519045653 -1751067523 -1998364009 2122491574 68787442 -945064646 -309280567 -2001643070 388231579 1818012930 1962552687 879437428 1127796845 -1426494112 -569011014 90689393 -1013077919 958237243 -922316533 -1969371967 2097187702 -1391244542 -1213361445 -764731913 -847097144 -1553010086
REM
CELL 1.54180   15.00000   15.00000   15.00000   90.00000   90.00000   90.00000
LATT -1
SFAC C  
C      1  0.4679690000000  0.4418190000000  0.7373320000000 1.0
C      1  0.7340190000000  0.5546470000000  0.5314440000000 1.0
C      1  0.5292300000000  0.4478950000000  0.2627240000000 1.0
C      1  0.2585950000000  0.5554040000000  0.4701270000000 1.0
C      1  0.4565430000000  0.5129370000000  0.3124150000000 1.0
C      1  0.3081430000000  0.4917150000000  0.5435910000000 1.0
C      1  0.5414230000000  0.5037800000000  0.6870880000000 1.0
C      1  0.6833460000000  0.4917290000000  0.4585130000000 1.0
C      1  0.3033510000000  0.6124840000000  0.3213820000000 1.0
C      1  0.3175660000000  0.3890580000000  0.6944020000000 1.0
C      1  0.6908500000000  0.6089270000000  0.6813760000000 1.0
C      1  0.6777150000000  0.3894370000000  0.3070200000000 1.0
C      1  0.4901640000000  0.7208760000000  0.5396320000000 1.0
C      1  0.5553580000000  0.2607580000000  0.5203020000000 1.0
C      1  0.5229000000000  0.7397840000000  0.4452160000000 1.0
C      1  0.4601930000000  0.2786440000000  0.4890050000000 1.0
C      1  0.6400030000000  0.5211790000000  0.7104010000000 1.0
C      1  0.7070560000000  0.4758290000000  0.3594670000000 1.0
C      1  0.3564370000000  0.5267350000000  0.2917060000000 1.0
C      1  0.2880120000000  0.4763650000000  0.6433320000000 1.0
C      1  0.6312090000000  0.5927270000000  0.4572250000000 1.0
C      1  0.4562140000000  0.4140080000000  0.3677240000000 1.0
C      1  0.3630610000000  0.5905110000000  0.5433410000000 1.0
C      1  0.5421860000000  0.4029360000000  0.6348010000000 1.0
C      1  0.4663620000000  0.6888810000000  0.6470460000000 1.0
C      1  0.6577650000000  0.3064800000000  0.5386570000000 1.0
C      1  0.5421820000000  0.6961200000000  0.3421360000000 1.0
C      1  0.3525240000000  0.3084380000000  0.4634680000000 1.0
C      1  0.4687080000000  0.6092510000000  0.5409600000000 1.0
C      1  0.5435960000000  0.3737310000000  0.5298180000000 1.0
C      1  0.5273630000000  0.6262040000000  0.4540930000000 1.0
C      1  0.4559200000000  0.3910650000000  0.4726330000000 1.0
C      1  0.3175170000000  0.6819940000000  0.3872480000000 1.0
C      1  0.3814990000000  0.3176850000000  0.6800160000000 1.0
C      1  0.6763160000000  0.6795840000000  0.6166830000000 1.0
C      1  0.6111290000000  0.3208020000000  0.3221280000000 1.0
C      1  0.6243300000000  0.4687900000000  0.2562620000000 1.0
C      1  0.2538880000000  0.5328800000000  0.3752980000000 1.0
C      1  0.3740450000000  0.4668640000000  0.7435450000000 1.0
C      1  0.7413170000000  0.5311850000000  0.6257080000000 1.0
C      1  0.3524540000000  0.3903300000000  0.3895220000000 1.0
C      1  0.3889250000000  0.6104150000000  0.6470210000000 1.0
C      1  0.6470830000000  0.3868120000000  0.6120390000000 1.0
C      1  0.6117000000000  0.6123430000000  0.3524380000000 1.0
C      1  0.6909410000000  0.6481210000000  0.5274190000000 1.0
C      1  0.5229020000000  0.3549610000000  0.3078490000000 1.0
C      1  0.3031620000000  0.6487390000000  0.4758620000000 1.0
C      1  0.4711740000000  0.3482360000000  0.6942910000000 1.0
C      1  0.4990190000000  0.5801030000000  0.6459390000000 1.0
C      1  0.6460920000000  0.4130650000000  0.5009950000000 1.0
C      1  0.4996560000000  0.5910660000000  0.3497730000000 1.0
C      1  0.3492170000000  0.4156290000000  0.5007810000000 1.0
C      1  0.3791700000000  0.2069480000000  0.4819390000000 1.0
C      1  0.4867640000000  0.7905670000000  0.6226200000000 1.0
C      1  0.6446680000000  0.2008700000000  0.5257490000000 1.0
C      1  0.5328070000000  0.8017570000000  0.3577320000000 1.0
C      1  0.2983760000000  0.4504440000000  0.3327060000000 1.0
C      1  0.3319760000000  0.5508620000000  0.7017300000000 1.0
C      1  0.7001080000000  0.4474860000000  0.6685700000000 1.0
C      1  0.6678060000000  0.5511070000000  0.2997550000000 1.0
END
