TITL C-986976-6631-20 -1.5162412066418e-05 3375 -353.099330019319 0 0 60 (C1) n - 1
REM
REM in /home/bkarasulu/work/CARBON/AIRSS/Generating-Clusters/REBO/Higher-Symm/Only-C60
REM
REM
REM
REM
REM
REM ./C.cell (a2850807a9bf4ad07a5b6933b78d9264)
REM AIRSS Version 0.9.1 bugfix July 2018 build 013d7b7c2542+ Fri, 06 Jul 2018 19:26:36 +0100
REM compiler GCC version 9.2.1 20190827 (Red Hat 9.2.1-1)
REM options -cpp -mtune=generic -march=x86-64 -g -O0 -fpre-include=/usr/include/finclude/math-vector-fortran.h
REM seed 216540400 -1340245822 -1878756628 -2098999613 -1913101475 2062080778 1102791135 1777018487 -634680083 99292137 842448476 957754350 -746710347 -1238641068 -2105093308 -1081953772 -2103730584 -1176740255 1453657137 589446321 -1358139549 1181601167 406134482 -1339491915 -1477621653 437448480 -1552114230 309595807 -457852549 -1912434021 -1274785401 2089452331 -1510727313
REM
CELL 1.54180   15.00000   15.00000   15.00000   90.00000   90.00000   90.00000
LATT -1
SFAC C  
C      1  0.4392260000000  0.3176010000000  0.3673340000000 1.0
C      1  0.3127170000000  0.5641630000000  0.3617000000000 1.0
C      1  0.5634180000000  0.6817900000000  0.3642570000000 1.0
C      1  0.6936200000000  0.4320440000000  0.3633930000000 1.0
C      1  0.5432910000000  0.3435320000000  0.3765090000000 1.0
C      1  0.6723540000000  0.5371140000000  0.3692730000000 1.0
C      1  0.4552610000000  0.6753890000000  0.3623090000000 1.0
C      1  0.3176910000000  0.4547470000000  0.3617070000000 1.0
C      1  0.4410710000000  0.6186100000000  0.7417330000000 1.0
C      1  0.6095700000000  0.5509770000000  0.7423530000000 1.0
C      1  0.5587940000000  0.3805850000000  0.7423080000000 1.0
C      1  0.3901950000000  0.4482670000000  0.7408460000000 1.0
C      1  0.5366700000000  0.6141140000000  0.7144870000000 1.0
C      1  0.3794530000000  0.5439090000000  0.7149280000000 1.0
C      1  0.4636720000000  0.3857410000000  0.7135180000000 1.0
C      1  0.6205310000000  0.4553860000000  0.7160480000000 1.0
C      1  0.6389400000000  0.4477880000000  0.6082750000000 1.0
C      1  0.4558840000000  0.3712060000000  0.6063180000000 1.0
C      1  0.3620440000000  0.5519180000000  0.6072790000000 1.0
C      1  0.5457420000000  0.6289580000000  0.6072100000000 1.0
C      1  0.3822730000000  0.4445750000000  0.6263250000000 1.0
C      1  0.5654180000000  0.3718900000000  0.6284680000000 1.0
C      1  0.6189350000000  0.5553300000000  0.6281440000000 1.0
C      1  0.4363520000000  0.6264340000000  0.6275700000000 1.0
C      1  0.4450370000000  0.6070600000000  0.2731980000000 1.0
C      1  0.6131830000000  0.5524400000000  0.2744760000000 1.0
C      1  0.5563100000000  0.3921590000000  0.2774840000000 1.0
C      1  0.3878360000000  0.4430940000000  0.2734480000000 1.0
C      1  0.5468610000000  0.6191370000000  0.2839010000000 1.0
C      1  0.3751860000000  0.5445350000000  0.2820390000000 1.0
C      1  0.4541130000000  0.3771450000000  0.2839740000000 1.0
C      1  0.6306370000000  0.4496990000000  0.2789200000000 1.0
C      1  0.3502670000000  0.7122320000000  0.5730590000000 1.0
C      1  0.7096910000000  0.6468880000000  0.5953820000000 1.0
C      1  0.6523630000000  0.2858380000000  0.5699130000000 1.0
C      1  0.2901560000000  0.3541620000000  0.5943160000000 1.0
C      1  0.6519060000000  0.7083910000000  0.5943730000000 1.0
C      1  0.2877300000000  0.6570970000000  0.5727520000000 1.0
C      1  0.3484130000000  0.2931240000000  0.5957680000000 1.0
C      1  0.7162190000000  0.3388030000000  0.5650970000000 1.0
C      1  0.6949020000000  0.5496160000000  0.5438360000000 1.0
C      1  0.5476850000000  0.3006300000000  0.5418720000000 1.0
C      1  0.3066910000000  0.4505980000000  0.5414710000000 1.0
C      1  0.4537530000000  0.6962190000000  0.5395430000000 1.0
C      1  0.2912050000000  0.5578720000000  0.5284780000000 1.0
C      1  0.4364160000000  0.2969820000000  0.5320260000000 1.0
C      1  0.7123100000000  0.4422640000000  0.5316070000000 1.0
C      1  0.5635890000000  0.7021830000000  0.5309770000000 1.0
C      1  0.6665950000000  0.5960730000000  0.4536280000000 1.0
C      1  0.6048250000000  0.3293840000000  0.4532450000000 1.0
C      1  0.3309930000000  0.4014280000000  0.4509280000000 1.0
C      1  0.3990280000000  0.6681060000000  0.4504790000000 1.0
C      1  0.3258710000000  0.6075090000000  0.4428050000000 1.0
C      1  0.3916600000000  0.3286240000000  0.4456100000000 1.0
C      1  0.6820690000000  0.3865910000000  0.4454360000000 1.0
C      1  0.6063400000000  0.6687610000000  0.4449890000000 1.0
C      1  0.5669340000000  0.5284960000000  0.3968050000000 1.0
C      1  0.5082760000000  0.4444300000000  0.3901180000000 1.0
C      1  0.4168800000000  0.4881720000000  0.3953320000000 1.0
C      1  0.4749460000000  0.5721910000000  0.3981190000000 1.0
END
