TITL C-986975-4297-644 -7.27006594842046e-05 3375 -373.782005856217 0 0 60 (D6h) n - 1
REM
REM in /home/bkarasulu/work/CARBON/AIRSS/Generating-Clusters/REBO/Higher-Symm/Only-C60
REM
REM
REM
REM
REM
REM ./C.cell (a2850807a9bf4ad07a5b6933b78d9264)
REM AIRSS Version 0.9.1 bugfix July 2018 build 013d7b7c2542+ Fri, 06 Jul 2018 19:26:36 +0100
REM compiler GCC version 9.2.1 20190827 (Red Hat 9.2.1-1)
REM options -cpp -mtune=generic -march=x86-64 -g -O0 -fpre-include=/usr/include/finclude/math-vector-fortran.h
REM seed 875291880 559352777 -155822334 -1772850720 -1787238506 2070800556 544278811 1106191604 -510873654 1467921625 -1499679041 1437893119 -1599991748 -2059654705 -1488044281 1956692428 947749098 1090502703 -580424005 -1308227521 1933103216 696955585 1708410006 -1985247947 353719891 -2105896016 276275334 1459765594 -101808181 -668862904 2031191787 284305416 1454750620
REM
CELL 1.54180   15.00000   15.00000   15.00000   90.00000   90.00000   90.00000
LATT -1
SFAC C  
C      1  0.5957880000000  0.2743240000000  0.3639130000000 1.0
C      1  0.6657490000000  0.2743240000000  0.5149110000000 1.0
C      1  0.5699610000000  0.2743240000000  0.6509980000000 1.0
C      1  0.4042120000000  0.2743240000000  0.6360870000000 1.0
C      1  0.3342510000000  0.2743240000000  0.4850890000000 1.0
C      1  0.4300390000000  0.2743240000000  0.3490020000000 1.0
C      1  0.5957880000000  0.7256760000000  0.3639130000000 1.0
C      1  0.6657490000000  0.7256760000000  0.5149110000000 1.0
C      1  0.5699610000000  0.7256760000000  0.6509980000000 1.0
C      1  0.4042120000000  0.7256760000000  0.6360870000000 1.0
C      1  0.3342510000000  0.7256760000000  0.4850890000000 1.0
C      1  0.4300390000000  0.7256760000000  0.3490020000000 1.0
C      1  0.5181140000000  0.5993920000000  0.2986450000000 1.0
C      1  0.6834350000000  0.5993920000000  0.4150100000000 1.0
C      1  0.6653210000000  0.5993920000000  0.6163640000000 1.0
C      1  0.4818860000000  0.5993920000000  0.7013550000000 1.0
C      1  0.3165650000000  0.5993920000000  0.5849900000000 1.0
C      1  0.3346790000000  0.5993920000000  0.3836360000000 1.0
C      1  0.5181140000000  0.4006080000000  0.2986450000000 1.0
C      1  0.6834350000000  0.4006080000000  0.4150100000000 1.0
C      1  0.6653210000000  0.4006080000000  0.6163640000000 1.0
C      1  0.4818860000000  0.4006080000000  0.7013550000000 1.0
C      1  0.3165650000000  0.4006080000000  0.5849900000000 1.0
C      1  0.3346790000000  0.4006080000000  0.3836360000000 1.0
C      1  0.4482550000000  0.5874710000000  0.5735150000000 1.0
C      1  0.4104610000000  0.5874710000000  0.4919450000000 1.0
C      1  0.4622070000000  0.5874710000000  0.4184300000000 1.0
C      1  0.5517450000000  0.5874710000000  0.4264850000000 1.0
C      1  0.5895390000000  0.5874710000000  0.5080550000000 1.0
C      1  0.5377930000000  0.5874710000000  0.5815700000000 1.0
C      1  0.4482550000000  0.4125290000000  0.5735150000000 1.0
C      1  0.4104610000000  0.4125290000000  0.4919450000000 1.0
C      1  0.4622070000000  0.4125290000000  0.4184300000000 1.0
C      1  0.5517450000000  0.4125290000000  0.4264850000000 1.0
C      1  0.5895390000000  0.4125290000000  0.5080550000000 1.0
C      1  0.5377930000000  0.4125290000000  0.5815700000000 1.0
C      1  0.3552370000000  0.6929000000000  0.3981060000000 1.0
C      1  0.5158610000000  0.6929000000000  0.3236840000000 1.0
C      1  0.6606250000000  0.6929000000000  0.4255780000000 1.0
C      1  0.6447630000000  0.6929000000000  0.6018940000000 1.0
C      1  0.4841390000000  0.6929000000000  0.6763160000000 1.0
C      1  0.3393750000000  0.6929000000000  0.5744220000000 1.0
C      1  0.3552370000000  0.3071000000000  0.3981060000000 1.0
C      1  0.5158610000000  0.3071000000000  0.3236840000000 1.0
C      1  0.6606250000000  0.3071000000000  0.4255780000000 1.0
C      1  0.6447630000000  0.3071000000000  0.6018940000000 1.0
C      1  0.4841390000000  0.3071000000000  0.6763160000000 1.0
C      1  0.3393750000000  0.3071000000000  0.5744220000000 1.0
C      1  0.3093180000000  0.4498490000000  0.4828460000000 1.0
C      1  0.4195150000000  0.4498490000000  0.3262880000000 1.0
C      1  0.6101960000000  0.4498490000000  0.3434420000000 1.0
C      1  0.6906820000000  0.4498490000000  0.5171540000000 1.0
C      1  0.5804850000000  0.4498490000000  0.6737120000000 1.0
C      1  0.3898040000000  0.4498490000000  0.6565580000000 1.0
C      1  0.3093180000000  0.5501510000000  0.4828460000000 1.0
C      1  0.4195150000000  0.5501510000000  0.3262880000000 1.0
C      1  0.6101960000000  0.5501510000000  0.3434420000000 1.0
C      1  0.6906820000000  0.5501510000000  0.5171540000000 1.0
C      1  0.5804850000000  0.5501510000000  0.6737120000000 1.0
C      1  0.3898040000000  0.5501510000000  0.6565580000000 1.0
END
