TITL C-986978-6805-947 -3.82867665697058e-06 3375 -338.288769789174 0 0 60 (C1) n - 1
REM
REM in /home/bkarasulu/work/CARBON/AIRSS/Generating-Clusters/REBO/Higher-Symm/Only-C60
REM
REM
REM
REM
REM
REM ./C.cell (a2850807a9bf4ad07a5b6933b78d9264)
REM AIRSS Version 0.9.1 bugfix July 2018 build 013d7b7c2542+ Fri, 06 Jul 2018 19:26:36 +0100
REM compiler GCC version 9.2.1 20190827 (Red Hat 9.2.1-1)
REM options -cpp -mtune=generic -march=x86-64 -g -O0 -fpre-include=/usr/include/finclude/math-vector-fortran.h
REM seed 1528460429 1937438836 853420015 806942969 -1485994998 1545730037 89900019 -1167412382 1556266294 919774983 -1124354739 822324868 1203436887 -1855124952 1735716272 -571888776 -1956391857 1148559067 1720748183 -1139162238 -332678782 1644445839 2119906539 -523174652 -58033380 853929002 -508405236 1218930626 -447204408 -725414437 698176205 116482452 -1425884160
REM
CELL 1.54180   15.00000   15.00000   15.00000   90.00000   90.00000   90.00000
LATT -1
SFAC C  
C      1  0.4380080000000  0.3170020000000  0.6460470000000 1.0
C      1  0.5539400000000  0.6765230000000  0.3600300000000 1.0
C      1  0.5553450000000  0.5170160000000  0.5736930000000 1.0
C      1  0.4151350000000  0.4878950000000  0.4307900000000 1.0
C      1  0.6775070000000  0.6093100000000  0.4899920000000 1.0
C      1  0.3089270000000  0.3873910000000  0.5201560000000 1.0
C      1  0.6928790000000  0.3584720000000  0.6735590000000 1.0
C      1  0.3032120000000  0.6368540000000  0.3123120000000 1.0
C      1  0.3066910000000  0.5001460000000  0.4046950000000 1.0
C      1  0.7105280000000  0.5089000000000  0.6105890000000 1.0
C      1  0.3583790000000  0.3790480000000  0.6655610000000 1.0
C      1  0.6383960000000  0.6200370000000  0.3479500000000 1.0
C      1  0.7513590000000  0.3417310000000  0.4523500000000 1.0
C      1  0.2677390000000  0.7297520000000  0.4950670000000 1.0
C      1  0.2849410000000  0.5980710000000  0.3963350000000 1.0
C      1  0.7174770000000  0.4123080000000  0.5995700000000 1.0
C      1  0.4571990000000  0.2621360000000  0.5756690000000 1.0
C      1  0.5281740000000  0.7294740000000  0.4293880000000 1.0
C      1  0.5882090000000  0.4435060000000  0.2312060000000 1.0
C      1  0.4306490000000  0.5530470000000  0.7741320000000 1.0
C      1  0.5240000000000  0.4223640000000  0.5641140000000 1.0
C      1  0.4634090000000  0.5771370000000  0.4350940000000 1.0
C      1  0.3726460000000  0.4488220000000  0.3332550000000 1.0
C      1  0.6220480000000  0.5372000000000  0.6393500000000 1.0
C      1  0.6236680000000  0.5447910000000  0.2656140000000 1.0
C      1  0.3852300000000  0.4535940000000  0.7459080000000 1.0
C      1  0.5957370000000  0.6644240000000  0.5235350000000 1.0
C      1  0.3918770000000  0.3322750000000  0.4838430000000 1.0
C      1  0.5018030000000  0.6291100000000  0.7255910000000 1.0
C      1  0.5180370000000  0.3627800000000  0.2735840000000 1.0
C      1  0.4971620000000  0.3068110000000  0.4934600000000 1.0
C      1  0.4895170000000  0.6847900000000  0.5113690000000 1.0
C      1  0.6833800000000  0.4659600000000  0.3216340000000 1.0
C      1  0.3272480000000  0.5350510000000  0.6920380000000 1.0
C      1  0.4341100000000  0.4297930000000  0.5130840000000 1.0
C      1  0.5511910000000  0.5693270000000  0.4862570000000 1.0
C      1  0.5923290000000  0.5783040000000  0.7198600000000 1.0
C      1  0.4249540000000  0.4081070000000  0.2711490000000 1.0
C      1  0.2699380000000  0.4487390000000  0.6813510000000 1.0
C      1  0.7319920000000  0.5559710000000  0.3405550000000 1.0
C      1  0.5173430000000  0.5521430000000  0.2600290000000 1.0
C      1  0.4908070000000  0.4398910000000  0.7397690000000 1.0
C      1  0.7435600000000  0.5715490000000  0.5466290000000 1.0
C      1  0.2547050000000  0.4311070000000  0.4600170000000 1.0
C      1  0.6919760000000  0.3740450000000  0.5149330000000 1.0
C      1  0.3104080000000  0.6524810000000  0.4692630000000 1.0
C      1  0.6260060000000  0.4270640000000  0.4121860000000 1.0
C      1  0.3759370000000  0.5703570000000  0.5952080000000 1.0
C      1  0.3974620000000  0.6224840000000  0.6906970000000 1.0
C      1  0.6192540000000  0.3739750000000  0.3153680000000 1.0
C      1  0.3894880000000  0.6559050000000  0.2909740000000 1.0
C      1  0.6078680000000  0.3325270000000  0.6904940000000 1.0
C      1  0.5194040000000  0.3780520000000  0.6649470000000 1.0
C      1  0.4758790000000  0.6147060000000  0.3288610000000 1.0
C      1  0.5387300000000  0.5167570000000  0.7823980000000 1.0
C      1  0.4796280000000  0.4723520000000  0.2127070000000 1.0
C      1  0.6295980000000  0.5343350000000  0.4223230000000 1.0
C      1  0.3625880000000  0.4610680000000  0.5871520000000 1.0
C      1  0.3973310000000  0.6243610000000  0.5121950000000 1.0
C      1  0.5870620000000  0.3708690000000  0.4941130000000 1.0
END
