TITL C-986978-6805-358 0.00028056124669389 3375 -336.608879439868 0 0 60 (C4h) n - 1
REM
REM in /home/bkarasulu/work/CARBON/AIRSS/Generating-Clusters/REBO/Higher-Symm/Only-C60
REM
REM
REM
REM
REM
REM ./C.cell (a2850807a9bf4ad07a5b6933b78d9264)
REM AIRSS Version 0.9.1 bugfix July 2018 build 013d7b7c2542+ Fri, 06 Jul 2018 19:26:36 +0100
REM compiler GCC version 9.2.1 20190827 (Red Hat 9.2.1-1)
REM options -cpp -mtune=generic -march=x86-64 -g -O0 -fpre-include=/usr/include/finclude/math-vector-fortran.h
REM seed 588187676 -879167231 -2095184232 -1425504012 -1433643881 571729823 -476067785 -1356725928 206522127 -1833413380 720268007 -1161358882 -607580599 -1720353330 1667605948 606608653 2017372599 -922182109 -146160464 -774828172 310313180 858084699 -588128619 -1273706482 559575745 -941634243 341734666 -1652875375 181760061 1902727152 -245603437 498328556 362793230
REM
CELL 1.54180   15.00000   15.00000   15.00000   90.00000   90.00000   90.00000
LATT -1
SFAC C  
C      1  0.5201700000000  0.3683430000000  0.3018860000000 1.0
C      1  0.3018860000000  0.3683430000000  0.4798300000000 1.0
C      1  0.4798300000000  0.3683430000000  0.6981140000000 1.0
C      1  0.6981140000000  0.3683430000000  0.5201700000000 1.0
C      1  0.5202010000000  0.6343980000000  0.3018620000000 1.0
C      1  0.3018620000000  0.6343980000000  0.4797990000000 1.0
C      1  0.4797990000000  0.6343980000000  0.6981380000000 1.0
C      1  0.6981380000000  0.6343980000000  0.5202010000000 1.0
C      1  0.3538980000000  0.6860980000000  0.5641710000000 1.0
C      1  0.5641710000000  0.6860980000000  0.6461020000000 1.0
C      1  0.6461020000000  0.6860980000000  0.4358290000000 1.0
C      1  0.4358290000000  0.6860980000000  0.3538980000000 1.0
C      1  0.3537180000000  0.3165150000000  0.5641720000000 1.0
C      1  0.5641720000000  0.3165150000000  0.6462820000000 1.0
C      1  0.6462820000000  0.3165150000000  0.4358280000000 1.0
C      1  0.4358280000000  0.3165150000000  0.3537180000000 1.0
C      1  0.6626520000000  0.6344830000000  0.6289840000000 1.0
C      1  0.6289840000000  0.6344830000000  0.3373480000000 1.0
C      1  0.3373480000000  0.6344830000000  0.3710160000000 1.0
C      1  0.3710160000000  0.6344830000000  0.6626520000000 1.0
C      1  0.6625230000000  0.3682910000000  0.6288890000000 1.0
C      1  0.6288890000000  0.3682910000000  0.3374770000000 1.0
C      1  0.3374770000000  0.3682910000000  0.3711110000000 1.0
C      1  0.3711110000000  0.3682910000000  0.6625230000000 1.0
C      1  0.5859200000000  0.4108970000000  0.7028270000000 1.0
C      1  0.7028270000000  0.4108970000000  0.4140800000000 1.0
C      1  0.4140800000000  0.4108970000000  0.2971730000000 1.0
C      1  0.2971730000000  0.4108970000000  0.5859200000000 1.0
C      1  0.5859380000000  0.5919160000000  0.7028750000000 1.0
C      1  0.7028750000000  0.5919160000000  0.4140620000000 1.0
C      1  0.4140620000000  0.5919160000000  0.2971250000000 1.0
C      1  0.2971250000000  0.5919160000000  0.5859380000000 1.0
C      1  0.4322170000000  0.6637140000000  0.4593150000000 1.0
C      1  0.4593150000000  0.6637140000000  0.5677830000000 1.0
C      1  0.5677830000000  0.6637140000000  0.5406850000000 1.0
C      1  0.5406850000000  0.6637140000000  0.4322170000000 1.0
C      1  0.4322170000000  0.3380820000000  0.4592470000000 1.0
C      1  0.4592470000000  0.3380820000000  0.5677830000000 1.0
C      1  0.5677830000000  0.3380820000000  0.5407530000000 1.0
C      1  0.5407530000000  0.3380820000000  0.4322170000000 1.0
C      1  0.4197360000000  0.5575780000000  0.4980800000000 1.0
C      1  0.4980800000000  0.5575780000000  0.5802640000000 1.0
C      1  0.5802640000000  0.5575780000000  0.5019200000000 1.0
C      1  0.5019200000000  0.5575780000000  0.4197360000000 1.0
C      1  0.4197230000000  0.4442050000000  0.4980110000000 1.0
C      1  0.4980110000000  0.4442050000000  0.5802770000000 1.0
C      1  0.5802770000000  0.4442050000000  0.5019890000000 1.0
C      1  0.5019890000000  0.4442050000000  0.4197230000000 1.0
C      1  0.6878720000000  0.4602530000000  0.5785180000000 1.0
C      1  0.5785180000000  0.4602530000000  0.3121280000000 1.0
C      1  0.3121280000000  0.4602530000000  0.4214820000000 1.0
C      1  0.4214820000000  0.4602530000000  0.6878720000000 1.0
C      1  0.6878900000000  0.5425220000000  0.5785990000000 1.0
C      1  0.5785990000000  0.5425220000000  0.3121100000000 1.0
C      1  0.3121100000000  0.5425220000000  0.4214010000000 1.0
C      1  0.4214010000000  0.5425220000000  0.6878900000000 1.0
C      1  0.7238070000000  0.5013940000000  0.4061110000000 1.0
C      1  0.4061110000000  0.5013940000000  0.2761930000000 1.0
C      1  0.2761930000000  0.5013940000000  0.5938890000000 1.0
C      1  0.5938890000000  0.5013940000000  0.7238070000000 1.0
END
