TITL C-986973-6940-260 -0.019738332319474 3375 -357.054509330141 0 0 60 (C1) n - 1
REM
REM in /home/bkarasulu/work/CARBON/AIRSS/Generating-Clusters/REBO/Higher-Symm/Only-C60
REM
REM
REM
REM
REM
REM ./C.cell (a2850807a9bf4ad07a5b6933b78d9264)
REM AIRSS Version 0.9.1 bugfix July 2018 build 013d7b7c2542+ Fri, 06 Jul 2018 19:26:36 +0100
REM compiler GCC version 9.2.1 20190827 (Red Hat 9.2.1-1)
REM options -cpp -mtune=generic -march=x86-64 -g -O0 -fpre-include=/usr/include/finclude/math-vector-fortran.h
REM seed -617429754 1587922700 -865884024 -1585377525 1126375064 878379504 -2136706328 573621813 -2026526522 -1383577303 -892669362 279293097 1775623586 -338909057 740587642 -2024338739 1464402893 602458825 1378671757 1685083818 -635054321 1220024288 -6063844 -1550404400 -583123073 1206152235 -259192637 497489373 1066851574 685416536 1175957103 1541329889 -18436822
REM
CELL 1.54180   15.00000   15.00000   15.00000   90.00000   90.00000   90.00000
LATT -1
SFAC C  
C      1  0.5470680000000  0.4218950000000  0.5089470000000 1.0
C      1  0.3869670000000  0.5084280000000  0.5501540000000 1.0
C      1  0.5453050000000  0.5973820000000  0.5150010000000 1.0
C      1  0.4421610000000  0.4228530000000  0.5277350000000 1.0
C      1  0.6003660000000  0.5085000000000  0.5315490000000 1.0
C      1  0.4391330000000  0.5980320000000  0.5345120000000 1.0
C      1  0.7306890000000  0.4851600000000  0.4572980000000 1.0
C      1  0.3785140000000  0.2875340000000  0.4643680000000 1.0
C      1  0.4002650000000  0.7160580000000  0.4490030000000 1.0
C      1  0.2703990000000  0.4830330000000  0.4628540000000 1.0
C      1  0.6279560000000  0.2902670000000  0.4504170000000 1.0
C      1  0.6109940000000  0.7180040000000  0.4498180000000 1.0
C      1  0.6992890000000  0.3308430000000  0.5271790000000 1.0
C      1  0.2487450000000  0.4067820000000  0.5359310000000 1.0
C      1  0.5468860000000  0.7653490000000  0.5244130000000 1.0
C      1  0.2981550000000  0.3262430000000  0.5344410000000 1.0
C      1  0.7453540000000  0.4124460000000  0.5337770000000 1.0
C      1  0.4538000000000  0.7669200000000  0.5250700000000 1.0
C      1  0.5993070000000  0.5164870000000  0.4241720000000 1.0
C      1  0.4508650000000  0.4199900000000  0.4172440000000 1.0
C      1  0.4461460000000  0.5995080000000  0.4262610000000 1.0
C      1  0.3977270000000  0.5129420000000  0.4409820000000 1.0
C      1  0.5511060000000  0.4231320000000  0.3972440000000 1.0
C      1  0.5498360000000  0.6038050000000  0.4049360000000 1.0
C      1  0.3286060000000  0.5443080000000  0.6643660000000 1.0
C      1  0.6164590000000  0.6379630000000  0.6506040000000 1.0
C      1  0.5554130000000  0.3232690000000  0.6390420000000 1.0
C      1  0.6615890000000  0.5425310000000  0.6581160000000 1.0
C      1  0.3759830000000  0.6385460000000  0.6538770000000 1.0
C      1  0.4522520000000  0.3272000000000  0.6507590000000 1.0
C      1  0.5411330000000  0.3294860000000  0.3030950000000 1.0
C      1  0.3610090000000  0.5339570000000  0.3146540000000 1.0
C      1  0.6275930000000  0.6186640000000  0.2980880000000 1.0
C      1  0.4589500000000  0.3294660000000  0.3101690000000 1.0
C      1  0.6565520000000  0.5417750000000  0.3065820000000 1.0
C      1  0.3981540000000  0.6066990000000  0.3024000000000 1.0
C      1  0.7302160000000  0.5850260000000  0.4709820000000 1.0
C      1  0.4611240000000  0.2236950000000  0.4536540000000 1.0
C      1  0.3196750000000  0.6565990000000  0.4680300000000 1.0
C      1  0.2781190000000  0.5837540000000  0.4734610000000 1.0
C      1  0.5434530000000  0.2254610000000  0.4488240000000 1.0
C      1  0.6923600000000  0.6590150000000  0.4701870000000 1.0
C      1  0.6937650000000  0.4982250000000  0.5740580000000 1.0
C      1  0.4032010000000  0.3367470000000  0.5640520000000 1.0
C      1  0.4026430000000  0.6876870000000  0.5713680000000 1.0
C      1  0.2892520000000  0.4939550000000  0.5840350000000 1.0
C      1  0.5915510000000  0.3383070000000  0.5474780000000 1.0
C      1  0.5923020000000  0.6753190000000  0.5624910000000 1.0
C      1  0.5452750000000  0.4041880000000  0.7053710000000 1.0
C      1  0.3980920000000  0.4904910000000  0.7208010000000 1.0
C      1  0.5432310000000  0.5815240000000  0.7030450000000 1.0
C      1  0.4410170000000  0.4068390000000  0.7181440000000 1.0
C      1  0.5901910000000  0.4871440000000  0.7096390000000 1.0
C      1  0.4483610000000  0.5823790000000  0.7062500000000 1.0
C      1  0.6264000000000  0.3527700000000  0.3658820000000 1.0
C      1  0.3274160000000  0.4495710000000  0.3786000000000 1.0
C      1  0.5688980000000  0.6957600000000  0.3532360000000 1.0
C      1  0.3785260000000  0.3501610000000  0.3780480000000 1.0
C      1  0.6773510000000  0.4539830000000  0.3706470000000 1.0
C      1  0.4568570000000  0.6859440000000  0.3566610000000 1.0
END
