TITL C-986973-6940-214 2.23616160985612e-06 3375 -335.88906715591 0 0 60 (C5) n - 1
REM
REM in /home/bkarasulu/work/CARBON/AIRSS/Generating-Clusters/REBO/Higher-Symm/Only-C60
REM
REM
REM
REM
REM
REM ./C.cell (a2850807a9bf4ad07a5b6933b78d9264)
REM AIRSS Version 0.9.1 bugfix July 2018 build 013d7b7c2542+ Fri, 06 Jul 2018 19:26:36 +0100
REM compiler GCC version 9.2.1 20190827 (Red Hat 9.2.1-1)
REM options -cpp -mtune=generic -march=x86-64 -g -O0 -fpre-include=/usr/include/finclude/math-vector-fortran.h
REM seed -1831753647 -1506974611 -1241650563 1524616603 1663422299 -1332590412 -1386412569 789152191 -843710487 344409334 1427153706 529002390 -1768434545 -438779462 -240697596 1192168692 -1428194571 -1918879166 -929399488 1148266934 2112681091 -1906474843 -860375627 -200668650 695841176 1227920042 1781870819 -2019016057 -401097582 -890849703 -1519475004 501186769 -624093632
REM
CELL 1.54180   15.00000   15.00000   15.00000   90.00000   90.00000   90.00000
LATT -1
SFAC C  
C      1  0.6503950000000  0.4450400000000  0.6748280000000 1.0
C      1  0.5987440000000  0.6260510000000  0.6748280000000 1.0
C      1  0.4106320000000  0.6328630000000  0.6748280000000 1.0
C      1  0.3460230000000  0.4560630000000  0.6748280000000 1.0
C      1  0.4942050000000  0.3399820000000  0.6748280000000 1.0
C      1  0.6503950000000  0.4450400000000  0.3251720000000 1.0
C      1  0.5987440000000  0.6260510000000  0.3251720000000 1.0
C      1  0.4106320000000  0.6328630000000  0.3251720000000 1.0
C      1  0.3460230000000  0.4560630000000  0.3251720000000 1.0
C      1  0.4942050000000  0.3399820000000  0.3251720000000 1.0
C      1  0.2815220000000  0.5592590000000  0.4588690000000 1.0
C      1  0.3761280000000  0.3105270000000  0.4588690000000 1.0
C      1  0.6419210000000  0.3236400000000  0.4588690000000 1.0
C      1  0.7115850000000  0.5804770000000  0.4588680000000 1.0
C      1  0.4888450000000  0.7260970000000  0.4588690000000 1.0
C      1  0.2815220000000  0.5592590000000  0.5411310000000 1.0
C      1  0.3761280000000  0.3105270000000  0.5411310000000 1.0
C      1  0.6419210000000  0.3236400000000  0.5411310000000 1.0
C      1  0.7115850000000  0.5804770000000  0.5411320000000 1.0
C      1  0.4888450000000  0.7260970000000  0.5411310000000 1.0
C      1  0.4514630000000  0.5688910000000  0.5908990000000 1.0
C      1  0.4194820000000  0.4751270000000  0.5908990000000 1.0
C      1  0.4987740000000  0.4157360000000  0.5908990000000 1.0
C      1  0.5797610000000  0.4727950000000  0.5908990000000 1.0
C      1  0.5505210000000  0.5674500000000  0.5908990000000 1.0
C      1  0.4514630000000  0.5688910000000  0.4091010000000 1.0
C      1  0.4194820000000  0.4751270000000  0.4091010000000 1.0
C      1  0.4987740000000  0.4157360000000  0.4091010000000 1.0
C      1  0.5797610000000  0.4727950000000  0.4091010000000 1.0
C      1  0.5505210000000  0.5674500000000  0.4091010000000 1.0
C      1  0.6038930000000  0.3529570000000  0.6436550000000 1.0
C      1  0.6719510000000  0.5533690000000  0.6436550000000 1.0
C      1  0.5023790000000  0.6800270000000  0.6436550000000 1.0
C      1  0.3295190000000  0.5578940000000  0.6436550000000 1.0
C      1  0.3922580000000  0.3557540000000  0.6436540000000 1.0
C      1  0.6038930000000  0.3529570000000  0.3563450000000 1.0
C      1  0.6719510000000  0.5533690000000  0.3563450000000 1.0
C      1  0.5023790000000  0.6800270000000  0.3563450000000 1.0
C      1  0.3295190000000  0.5578940000000  0.3563450000000 1.0
C      1  0.3922580000000  0.3557540000000  0.3563460000000 1.0
C      1  0.3871690000000  0.6400940000000  0.5448590000000 1.0
C      1  0.3318960000000  0.4359830000000  0.5448590000000 1.0
C      1  0.5089370000000  0.3203410000000  0.5448590000000 1.0
C      1  0.6736270000000  0.4529820000000  0.5448590000000 1.0
C      1  0.5983710000000  0.6506000000000  0.5448590000000 1.0
C      1  0.3871690000000  0.6400940000000  0.4551410000000 1.0
C      1  0.3318960000000  0.4359830000000  0.4551410000000 1.0
C      1  0.5089370000000  0.3203410000000  0.4551410000000 1.0
C      1  0.6736270000000  0.4529820000000  0.4551410000000 1.0
C      1  0.5983710000000  0.6506000000000  0.4551410000000 1.0
C      1  0.2822360000000  0.3794350000000  0.3805000000000 1.0
C      1  0.5473720000000  0.2556380000000  0.3805000000000 1.0
C      1  0.7470410000000  0.4695410000000  0.3805000000000 1.0
C      1  0.6053080000000  0.7255380000000  0.3805000000000 1.0
C      1  0.3180430000000  0.6698490000000  0.3805000000000 1.0
C      1  0.2822360000000  0.3794350000000  0.6195000000000 1.0
C      1  0.5473720000000  0.2556380000000  0.6195000000000 1.0
C      1  0.7470410000000  0.4695410000000  0.6195000000000 1.0
C      1  0.6053080000000  0.7255380000000  0.6195000000000 1.0
C      1  0.3180430000000  0.6698490000000  0.6195000000000 1.0
END
