TITL C-986976-6631-983 -0.00239164430408709 3375 -333.535808246607 0 0 60 (Ci) n - 1
REM
REM in /home/bkarasulu/work/CARBON/AIRSS/Generating-Clusters/REBO/Higher-Symm/Only-C60
REM
REM
REM
REM
REM
REM ./C.cell (a2850807a9bf4ad07a5b6933b78d9264)
REM AIRSS Version 0.9.1 bugfix July 2018 build 013d7b7c2542+ Fri, 06 Jul 2018 19:26:36 +0100
REM compiler GCC version 9.2.1 20190827 (Red Hat 9.2.1-1)
REM options -cpp -mtune=generic -march=x86-64 -g -O0 -fpre-include=/usr/include/finclude/math-vector-fortran.h
REM seed -584923979 1619348266 511053978 -1924915470 -282442469 1206550854 779809938 1124364837 -353073257 -1454846720 -1372245796 693972990 -214227911 1048062784 -1423136185 -868966877 2012516710 -1129906980 668953759 2125189094 80060262 -1682830410 17361845 -1341460162 -2072969317 846559510 -1854963359 770388046 -897177252 1459867517 374442392 1733676374 50672199
REM
CELL 1.54180   15.00000   15.00000   15.00000   90.00000   90.00000   90.00000
LATT -1
SFAC C  
C      1  0.2819120000000  0.4578590000000  0.6818470000000 1.0
C      1  0.7173580000000  0.4572090000000  0.3185140000000 1.0
C      1  0.2833420000000  0.5421070000000  0.6818540000000 1.0
C      1  0.7175480000000  0.5414660000000  0.3178400000000 1.0
C      1  0.5967910000000  0.7061140000000  0.6595260000000 1.0
C      1  0.4035370000000  0.7050000000000  0.3407830000000 1.0
C      1  0.5961290000000  0.2957000000000  0.6593090000000 1.0
C      1  0.4036270000000  0.2946600000000  0.3403330000000 1.0
C      1  0.5249320000000  0.7205500000000  0.5839790000000 1.0
C      1  0.4756650000000  0.7205680000000  0.4162070000000 1.0
C      1  0.5240450000000  0.2791990000000  0.5838790000000 1.0
C      1  0.4753480000000  0.2793290000000  0.4159170000000 1.0
C      1  0.4092920000000  0.4426880000000  0.6459030000000 1.0
C      1  0.5899730000000  0.4429710000000  0.3549130000000 1.0
C      1  0.4107230000000  0.5563550000000  0.6453560000000 1.0
C      1  0.5901470000000  0.5566410000000  0.3537850000000 1.0
C      1  0.4352570000000  0.7275430000000  0.5133790000000 1.0
C      1  0.5654080000000  0.7277340000000  0.4868080000000 1.0
C      1  0.4345340000000  0.2718710000000  0.5129400000000 1.0
C      1  0.5647780000000  0.2720690000000  0.4868500000000 1.0
C      1  0.6850640000000  0.4042940000000  0.4058700000000 1.0
C      1  0.3141460000000  0.4040720000000  0.5950000000000 1.0
C      1  0.6853700000000  0.5955490000000  0.4043940000000 1.0
C      1  0.3154860000000  0.5953000000000  0.5947610000000 1.0
C      1  0.6043960000000  0.5538870000000  0.7286840000000 1.0
C      1  0.3989960000000  0.5521360000000  0.2709560000000 1.0
C      1  0.5987930000000  0.4494060000000  0.7287780000000 1.0
C      1  0.3975690000000  0.4472700000000  0.2712820000000 1.0
C      1  0.5922860000000  0.4554890000000  0.5931630000000 1.0
C      1  0.4074350000000  0.4537070000000  0.4076320000000 1.0
C      1  0.5927130000000  0.5473580000000  0.5921910000000 1.0
C      1  0.4074520000000  0.5455340000000  0.4071060000000 1.0
C      1  0.5674040000000  0.3440360000000  0.3994900000000 1.0
C      1  0.4317250000000  0.3436090000000  0.6002150000000 1.0
C      1  0.5676610000000  0.6557750000000  0.3995710000000 1.0
C      1  0.4331830000000  0.6554990000000  0.6007950000000 1.0
C      1  0.6671720000000  0.3785990000000  0.6711810000000 1.0
C      1  0.3317300000000  0.3761270000000  0.3309990000000 1.0
C      1  0.6691330000000  0.6251090000000  0.6679780000000 1.0
C      1  0.3318870000000  0.6228070000000  0.3300450000000 1.0
C      1  0.7149170000000  0.5472360000000  0.4895380000000 1.0
C      1  0.2854140000000  0.5466970000000  0.5100460000000 1.0
C      1  0.7146150000000  0.4534800000000  0.4903770000000 1.0
C      1  0.2849830000000  0.4529360000000  0.5100890000000 1.0
C      1  0.3370420000000  0.6984960000000  0.5625260000000 1.0
C      1  0.6636630000000  0.6987280000000  0.4376360000000 1.0
C      1  0.3359710000000  0.3009230000000  0.5614980000000 1.0
C      1  0.6633030000000  0.3011540000000  0.4383250000000 1.0
C      1  0.5386200000000  0.6094280000000  0.6557650000000 1.0
C      1  0.4621440000000  0.6087870000000  0.3454910000000 1.0
C      1  0.5370940000000  0.3915190000000  0.6538030000000 1.0
C      1  0.4620990000000  0.3911590000000  0.3451630000000 1.0
C      1  0.3160520000000  0.4131180000000  0.4291810000000 1.0
C      1  0.6839200000000  0.4145240000000  0.5719720000000 1.0
C      1  0.3159890000000  0.5862210000000  0.4287410000000 1.0
C      1  0.6840060000000  0.5876230000000  0.5701570000000 1.0
C      1  0.4879090000000  0.5484280000000  0.7288280000000 1.0
C      1  0.5152650000000  0.5559630000000  0.2679440000000 1.0
C      1  0.4829750000000  0.4415500000000  0.7326560000000 1.0
C      1  0.5140730000000  0.4488330000000  0.2702490000000 1.0
END
