TITL C-986975-4297-938 0.00101201395415137 3375 -351.192269954343 0 0 60 (C1) n - 1
REM
REM in /home/bkarasulu/work/CARBON/AIRSS/Generating-Clusters/REBO/Higher-Symm/Only-C60
REM
REM
REM
REM
REM
REM ./C.cell (a2850807a9bf4ad07a5b6933b78d9264)
REM AIRSS Version 0.9.1 bugfix July 2018 build 013d7b7c2542+ Fri, 06 Jul 2018 19:26:36 +0100
REM compiler GCC version 9.2.1 20190827 (Red Hat 9.2.1-1)
REM options -cpp -mtune=generic -march=x86-64 -g -O0 -fpre-include=/usr/include/finclude/math-vector-fortran.h
REM seed -1428443547 713415608 -1867043350 1731775910 1800219202 1916721275 2057185920 -1247922872 1357386431 -181316813 -956431417 -1722444834 152722316 1894653284 1953374921 1358143651 1316834147 -185301794 -1662706588 -672923014 -578589157 -744141705 1674356077 1209210274 -445911798 1594587689 386258606 1546930759 1570228487 451759141 -923533994 -404830792 1620106386
REM
CELL 1.54180   15.00000   15.00000   15.00000   90.00000   90.00000   90.00000
LATT -1
SFAC C  
C      1  0.6331560000000  0.4466820000000  0.5118270000000 1.0
C      1  0.3884390000000  0.4130280000000  0.5151030000000 1.0
C      1  0.4767630000000  0.6454090000000  0.5062700000000 1.0
C      1  0.6346890000000  0.5534850000000  0.4903890000000 1.0
C      1  0.3880870000000  0.5870370000000  0.4844320000000 1.0
C      1  0.4773300000000  0.3553010000000  0.4931590000000 1.0
C      1  0.5267080000000  0.3501020000000  0.3157740000000 1.0
C      1  0.3587590000000  0.5485510000000  0.3160490000000 1.0
C      1  0.6140900000000  0.5950720000000  0.3165000000000 1.0
C      1  0.5260130000000  0.6496190000000  0.6845090000000 1.0
C      1  0.3576540000000  0.4510970000000  0.6843910000000 1.0
C      1  0.6130540000000  0.4046740000000  0.6836320000000 1.0
C      1  0.3607770000000  0.2555660000000  0.5377050000000 1.0
C      1  0.3586460000000  0.7474650000000  0.5550470000000 1.0
C      1  0.7815760000000  0.5015740000000  0.5434080000000 1.0
C      1  0.3616960000000  0.7438360000000  0.4634580000000 1.0
C      1  0.3580070000000  0.2522170000000  0.4461150000000 1.0
C      1  0.7832850000000  0.4987190000000  0.4519220000000 1.0
C      1  0.5707730000000  0.6953870000000  0.5307980000000 1.0
C      1  0.6333540000000  0.3405230000000  0.5335690000000 1.0
C      1  0.2956050000000  0.4658360000000  0.5331440000000 1.0
C      1  0.5713570000000  0.3049680000000  0.4694930000000 1.0
C      1  0.6331920000000  0.6595900000000  0.4671750000000 1.0
C      1  0.2952630000000  0.5342500000000  0.4663600000000 1.0
C      1  0.4100820000000  0.7012270000000  0.3952220000000 1.0
C      1  0.7220000000000  0.4720050000000  0.3855640000000 1.0
C      1  0.3646970000000  0.3213010000000  0.3819950000000 1.0
C      1  0.4095840000000  0.2981510000000  0.6057010000000 1.0
C      1  0.7205510000000  0.5262260000000  0.6105470000000 1.0
C      1  0.3644760000000  0.6778010000000  0.6186890000000 1.0
C      1  0.4320630000000  0.3657590000000  0.3248970000000 1.0
C      1  0.4184130000000  0.6224170000000  0.3344940000000 1.0
C      1  0.6480040000000  0.5057890000000  0.3281710000000 1.0
C      1  0.4313400000000  0.6338820000000  0.6764100000000 1.0
C      1  0.4174730000000  0.3773390000000  0.6658720000000 1.0
C      1  0.6471610000000  0.4936100000000  0.6695250000000 1.0
C      1  0.2975450000000  0.5046500000000  0.6221140000000 1.0
C      1  0.6004790000000  0.6776410000000  0.6212900000000 1.0
C      1  0.6017420000000  0.3238720000000  0.6238200000000 1.0
C      1  0.2977170000000  0.4952380000000  0.3775120000000 1.0
C      1  0.6014800000000  0.3232310000000  0.3792910000000 1.0
C      1  0.6027790000000  0.6758680000000  0.3764960000000 1.0
C      1  0.5515950000000  0.4634310000000  0.5812530000000 1.0
C      1  0.4393950000000  0.4802020000000  0.5835460000000 1.0
C      1  0.5100430000000  0.5690790000000  0.5797930000000 1.0
C      1  0.5527120000000  0.5373390000000  0.4195190000000 1.0
C      1  0.4405080000000  0.5201620000000  0.4171130000000 1.0
C      1  0.5114310000000  0.4315240000000  0.4199070000000 1.0
C      1  0.5763880000000  0.5574390000000  0.6724950000000 1.0
C      1  0.5084280000000  0.4064720000000  0.6705480000000 1.0
C      1  0.4131330000000  0.5402230000000  0.6773760000000 1.0
C      1  0.5768200000000  0.4425510000000  0.3264710000000 1.0
C      1  0.5094480000000  0.5934040000000  0.3296600000000 1.0
C      1  0.4139820000000  0.4594020000000  0.3238530000000 1.0
C      1  0.6639470000000  0.6081670000000  0.5858470000000 1.0
C      1  0.5111700000000  0.3019000000000  0.5880520000000 1.0
C      1  0.3297690000000  0.5918920000000  0.5812040000000 1.0
C      1  0.6633130000000  0.3943360000000  0.4156680000000 1.0
C      1  0.5120380000000  0.6983980000000  0.4115640000000 1.0
C      1  0.3300220000000  0.4080890000000  0.4182920000000 1.0
END
