TITL C-986973-6940-543 -0.0370201562538533 3375 -335.47467466916 0 0 60 (C5) n - 1
REM
REM in /home/bkarasulu/work/CARBON/AIRSS/Generating-Clusters/REBO/Higher-Symm/Only-C60
REM
REM
REM
REM
REM
REM ./C.cell (a2850807a9bf4ad07a5b6933b78d9264)
REM AIRSS Version 0.9.1 bugfix July 2018 build 013d7b7c2542+ Fri, 06 Jul 2018 19:26:36 +0100
REM compiler GCC version 9.2.1 20190827 (Red Hat 9.2.1-1)
REM options -cpp -mtune=generic -march=x86-64 -g -O0 -fpre-include=/usr/include/finclude/math-vector-fortran.h
REM seed 872266375 1489640538 1966742097 315023528 366523689 -1803013938 1138877730 1853310640 459473425 -184041200 -1902807719 840448858 -2040267448 -506010224 1744925159 -1886456938 -1000042033 762792657 841850039 -942560883 -1061700134 -372925612 174223786 -1335899007 1860133018 -751229197 -1732292370 1409578666 1939793177 -971255098 1620841070 -1486412662 -1108556462
REM
CELL 1.54180   15.00000   15.00000   15.00000   90.00000   90.00000   90.00000
LATT -1
SFAC C  
C      1  0.5730200000000  0.5945000000000  0.7042470000000 1.0
C      1  0.5730290000000  0.7234740000000  0.4732110000000 1.0
C      1  0.5730140000000  0.5436070000000  0.2792020000000 1.0
C      1  0.5730230000000  0.3034700000000  0.3903110000000 1.0
C      1  0.5730200000000  0.3349560000000  0.6530190000000 1.0
C      1  0.5207410000000  0.6448380000000  0.3215390000000 1.0
C      1  0.5207470000000  0.3750450000000  0.3071410000000 1.0
C      1  0.5207480000000  0.2779330000000  0.5592570000000 1.0
C      1  0.5207360000000  0.4877310000000  0.7294880000000 1.0
C      1  0.5207370000000  0.7144670000000  0.5825680000000 1.0
C      1  0.5982080000000  0.2731130000000  0.4886290000000 1.0
C      1  0.5982010000000  0.4190960000000  0.7122460000000 1.0
C      1  0.5981910000000  0.6768520000000  0.6425400000000 1.0
C      1  0.5982120000000  0.6902400000000  0.3758340000000 1.0
C      1  0.5982080000000  0.4407210000000  0.2807260000000 1.0
C      1  0.6378830000000  0.3266640000000  0.5668600000000 1.0
C      1  0.6379130000000  0.5100090000000  0.6854990000000 1.0
C      1  0.6378840000000  0.6795200000000  0.5477830000000 1.0
C      1  0.6378840000000  0.6009420000000  0.3440320000000 1.0
C      1  0.6378930000000  0.3828490000000  0.3558080000000 1.0
C      1  0.3034850000000  0.5937170000000  0.4987540000000 1.0
C      1  0.3034980000000  0.5277820000000  0.4104990000000 1.0
C      1  0.3035160000000  0.4234650000000  0.4459300000000 1.0
C      1  0.3034990000000  0.4249200000000  0.5560810000000 1.0
C      1  0.3034850000000  0.5301410000000  0.5887300000000 1.0
C      1  0.3486770000000  0.4535010000000  0.6563900000000 1.0
C      1  0.3486620000000  0.6343750000000  0.5925510000000 1.0
C      1  0.3486690000000  0.6295650000000  0.4008070000000 1.0
C      1  0.3487030000000  0.4457030000000  0.3461590000000 1.0
C      1  0.3486840000000  0.3368850000000  0.5041020000000 1.0
C      1  0.4052980000000  0.6776750000000  0.4870110000000 1.0
C      1  0.4052870000000  0.5425750000000  0.3269960000000 1.0
C      1  0.4052910000000  0.3485950000000  0.4060660000000 1.0
C      1  0.4052770000000  0.3638720000000  0.6149620000000 1.0
C      1  0.4052710000000  0.5672750000000  0.6649740000000 1.0
C      1  0.4719190000000  0.3374640000000  0.6875750000000 1.0
C      1  0.4719160000000  0.6281820000000  0.7125280000000 1.0
C      1  0.4719220000000  0.7417480000000  0.4438080000000 1.0
C      1  0.4719190000000  0.5212630000000  0.2527210000000 1.0
C      1  0.4719290000000  0.2713760000000  0.4033810000000 1.0
C      1  0.5657270000000  0.5850300000000  0.4546080000000 1.0
C      1  0.5657270000000  0.4830950000000  0.4051020000000 1.0
C      1  0.5657300000000  0.4045110000000  0.4867350000000 1.0
C      1  0.5657360000000  0.4578720000000  0.5867190000000 1.0
C      1  0.5657360000000  0.5694440000000  0.5668620000000 1.0
C      1  0.4414660000000  0.2729550000000  0.5076100000000 1.0
C      1  0.4414540000000  0.4370840000000  0.7182680000000 1.0
C      1  0.4414520000000  0.6881490000000  0.6272710000000 1.0
C      1  0.4414570000000  0.6792220000000  0.3603960000000 1.0
C      1  0.4414670000000  0.4226260000000  0.2864410000000 1.0
C      1  0.4583060000000  0.5351950000000  0.5821840000000 1.0
C      1  0.4583030000000  0.5890140000000  0.4919220000000 1.0
C      1  0.4582950000000  0.5198020000000  0.4128340000000 1.0
C      1  0.4582950000000  0.4232090000000  0.4542260000000 1.0
C      1  0.4583060000000  0.4327190000000  0.5588820000000 1.0
C      1  0.6752780000000  0.4986860000000  0.5898730000000 1.0
C      1  0.6752680000000  0.5850790000000  0.5290110000000 1.0
C      1  0.6752620000000  0.5538830000000  0.4280440000000 1.0
C      1  0.6752700000000  0.4482170000000  0.4265150000000 1.0
C      1  0.6752660000000  0.4141020000000  0.5265290000000 1.0
END
