TITL C-986974-580-875 0.0384153052721586 3375 -342.730178628797 0 0 60 (C1) n - 1
REM
REM in /home/bkarasulu/work/CARBON/AIRSS/Generating-Clusters/REBO/Higher-Symm/Only-C60
REM
REM
REM
REM
REM
REM ./C.cell (a2850807a9bf4ad07a5b6933b78d9264)
REM AIRSS Version 0.9.1 bugfix July 2018 build 013d7b7c2542+ Fri, 06 Jul 2018 19:26:36 +0100
REM compiler GCC version 9.2.1 20190827 (Red Hat 9.2.1-1)
REM options -cpp -mtune=generic -march=x86-64 -g -O0 -fpre-include=/usr/include/finclude/math-vector-fortran.h
REM seed 949680943 746161177 768240239 -2006943443 -520625572 35088880 929607908 2134426778 1249338188 -1351067772 1511505588 -23071044 1831189690 -1400268972 648496082 15919108 -260505802 459051011 -662519654 -1829546184 611459660 -1484948165 788229745 1581865479 568273180 -1200646013 993821902 -128170718 -1804908540 1672050500 625104501 -1931424972 911502436
REM
CELL 1.54180   15.00000   15.00000   15.00000   90.00000   90.00000   90.00000
LATT -1
SFAC C  
C      1  0.4751310000000  0.4412530000000  0.4241660000000 1.0
C      1  0.6662740000000  0.4425420000000  0.5594410000000 1.0
C      1  0.5679360000000  0.2316490000000  0.4626970000000 1.0
C      1  0.5189110000000  0.7514830000000  0.5267930000000 1.0
C      1  0.3292650000000  0.5610200000000  0.6516530000000 1.0
C      1  0.2821570000000  0.4758780000000  0.5948670000000 1.0
C      1  0.4669360000000  0.2554770000000  0.4707810000000 1.0
C      1  0.4609870000000  0.5442040000000  0.4132460000000 1.0
C      1  0.2538330000000  0.4917990000000  0.4860870000000 1.0
C      1  0.6873880000000  0.6285350000000  0.5702070000000 1.0
C      1  0.4841050000000  0.3053810000000  0.3285340000000 1.0
C      1  0.4040110000000  0.5273600000000  0.7108730000000 1.0
C      1  0.5904040000000  0.5258100000000  0.4352280000000 1.0
C      1  0.6147910000000  0.5428450000000  0.5637560000000 1.0
C      1  0.5791270000000  0.4117460000000  0.4374870000000 1.0
C      1  0.4454970000000  0.5790550000000  0.5076110000000 1.0
C      1  0.3508130000000  0.4530660000000  0.3491620000000 1.0
C      1  0.5159670000000  0.5646040000000  0.5908030000000 1.0
C      1  0.2630820000000  0.5933270000000  0.5370470000000 1.0
C      1  0.7940010000000  0.5265550000000  0.4917780000000 1.0
C      1  0.6201600000000  0.6866440000000  0.4732970000000 1.0
C      1  0.3344040000000  0.6112650000000  0.3924230000000 1.0
C      1  0.5822410000000  0.7852030000000  0.4543590000000 1.0
C      1  0.6019870000000  0.5070430000000  0.3039200000000 1.0
C      1  0.6795570000000  0.3623020000000  0.4127710000000 1.0
C      1  0.6776220000000  0.4910520000000  0.3841150000000 1.0
C      1  0.5457590000000  0.6607150000000  0.6777730000000 1.0
C      1  0.6180620000000  0.3535250000000  0.5680460000000 1.0
C      1  0.4167860000000  0.4048940000000  0.5003190000000 1.0
C      1  0.4111520000000  0.2927330000000  0.3930540000000 1.0
C      1  0.5747960000000  0.6195220000000  0.4231770000000 1.0
C      1  0.3036770000000  0.3913980000000  0.4892630000000 1.0
C      1  0.5157040000000  0.4068800000000  0.3205090000000 1.0
C      1  0.7739810000000  0.6001630000000  0.5263140000000 1.0
C      1  0.5341960000000  0.3428120000000  0.6103010000000 1.0
C      1  0.6719300000000  0.4996820000000  0.6551700000000 1.0
C      1  0.3326370000000  0.6620030000000  0.4816960000000 1.0
C      1  0.6424380000000  0.2969820000000  0.4962880000000 1.0
C      1  0.5150360000000  0.5390660000000  0.3119790000000 1.0
C      1  0.3638250000000  0.5382150000000  0.5435960000000 1.0
C      1  0.4308060000000  0.4746930000000  0.3034040000000 1.0
C      1  0.4801200000000  0.5803250000000  0.7244280000000 1.0
C      1  0.7274400000000  0.4480540000000  0.4704340000000 1.0
C      1  0.3015990000000  0.5224570000000  0.3947410000000 1.0
C      1  0.4496860000000  0.6532560000000  0.6177120000000 1.0
C      1  0.5680720000000  0.5305340000000  0.6871240000000 1.0
C      1  0.3384390000000  0.6572370000000  0.5961390000000 1.0
C      1  0.3466340000000  0.3660280000000  0.3942170000000 1.0
C      1  0.6292570000000  0.3992800000000  0.3169340000000 1.0
C      1  0.4185590000000  0.6230040000000  0.3441570000000 1.0
C      1  0.3429320000000  0.3160170000000  0.5645830000000 1.0
C      1  0.4240350000000  0.4392880000000  0.6823630000000 1.0
C      1  0.4545970000000  0.3145910000000  0.5529130000000 1.0
C      1  0.3677560000000  0.4152410000000  0.6034000000000 1.0
C      1  0.4351760000000  0.6921790000000  0.5126610000000 1.0
C      1  0.5618240000000  0.3074900000000  0.3928880000000 1.0
C      1  0.5083850000000  0.6595310000000  0.3665610000000 1.0
C      1  0.6477780000000  0.6101550000000  0.6736800000000 1.0
C      1  0.5948510000000  0.6931290000000  0.5846600000000 1.0
C      1  0.5054850000000  0.3918240000000  0.6864170000000 1.0
END
