TITL C-986974-580-939 4.17597785443824e-06 3375 -338.495521315532 0 0 60 (Ci) n - 1
REM
REM in /home/bkarasulu/work/CARBON/AIRSS/Generating-Clusters/REBO/Higher-Symm/Only-C60
REM
REM
REM
REM
REM
REM ./C.cell (a2850807a9bf4ad07a5b6933b78d9264)
REM AIRSS Version 0.9.1 bugfix July 2018 build 013d7b7c2542+ Fri, 06 Jul 2018 19:26:36 +0100
REM compiler GCC version 9.2.1 20190827 (Red Hat 9.2.1-1)
REM options -cpp -mtune=generic -march=x86-64 -g -O0 -fpre-include=/usr/include/finclude/math-vector-fortran.h
REM seed -1308334738 -1568553282 -516327541 1972981200 1155610229 450396180 -1248867046 -1679191229 -1923417693 -1168072994 1386303676 827142662 -644460546 -570161463 88585461 -1327906468 235379077 876443892 1196848908 -2043590010 1270361916 1877180833 -539075175 1133151886 -1587663366 -652052378 -369962647 1163549580 696676788 1901995618 967899807 -2106583871 -1691667430
REM
CELL 1.54180   15.00000   15.00000   15.00000   90.00000   90.00000   90.00000
LATT -1
SFAC C  
C      1  0.4070190000000  0.4390930000000  0.5315600000000 1.0
C      1  0.5892100000000  0.4563840000000  0.4619300000000 1.0
C      1  0.4107900000000  0.5436160000000  0.5380700000000 1.0
C      1  0.5929810000000  0.5609070000000  0.4684400000000 1.0
C      1  0.3270820000000  0.3852410000000  0.3884520000000 1.0
C      1  0.6754700000000  0.3749640000000  0.6034450000000 1.0
C      1  0.3245300000000  0.6250340000000  0.3965550000000 1.0
C      1  0.6729180000000  0.6147580000000  0.6115480000000 1.0
C      1  0.3411340000000  0.4524990000000  0.3234390000000 1.0
C      1  0.6638310000000  0.4403930000000  0.6688710000000 1.0
C      1  0.3361690000000  0.5596060000000  0.3311290000000 1.0
C      1  0.6588660000000  0.5475000000000  0.6765600000000 1.0
C      1  0.6805250000000  0.6100130000000  0.4416290000000 1.0
C      1  0.3236110000000  0.5971880000000  0.5611760000000 1.0
C      1  0.6763890000000  0.4028110000000  0.4388240000000 1.0
C      1  0.3194740000000  0.3899870000000  0.5583710000000 1.0
C      1  0.4625140000000  0.5818680000000  0.4557540000000 1.0
C      1  0.5295110000000  0.6034550000000  0.5410500000000 1.0
C      1  0.4704890000000  0.3965440000000  0.4589500000000 1.0
C      1  0.5374860000000  0.4181320000000  0.5442460000000 1.0
C      1  0.4971140000000  0.4113460000000  0.7075840000000 1.0
C      1  0.5022430000000  0.3981800000000  0.2843570000000 1.0
C      1  0.4977580000000  0.6018190000000  0.7156430000000 1.0
C      1  0.5028850000000  0.5886540000000  0.2924170000000 1.0
C      1  0.4003870000000  0.5549240000000  0.7252590000000 1.0
C      1  0.6003260000000  0.5463240000000  0.2774370000000 1.0
C      1  0.3996730000000  0.4536780000000  0.7225630000000 1.0
C      1  0.5996130000000  0.4450780000000  0.2747410000000 1.0
C      1  0.6839150000000  0.3797630000000  0.2355700000000 1.0
C      1  0.3186120000000  0.3860780000000  0.7644400000000 1.0
C      1  0.6813840000000  0.6139280000000  0.2355600000000 1.0
C      1  0.3160890000000  0.6202430000000  0.7644300000000 1.0
C      1  0.7574380000000  0.4631660000000  0.4625740000000 1.0
C      1  0.2394930000000  0.4533500000000  0.5366430000000 1.0
C      1  0.7605060000000  0.5466500000000  0.4633560000000 1.0
C      1  0.2425620000000  0.5368340000000  0.5374270000000 1.0
C      1  0.4825660000000  0.5619040000000  0.6208300000000 1.0
C      1  0.5216100000000  0.5408390000000  0.3844850000000 1.0
C      1  0.4783900000000  0.4591600000000  0.6155150000000 1.0
C      1  0.5174340000000  0.4380960000000  0.3791700000000 1.0
C      1  0.5814420000000  0.5562810000000  0.7483870000000 1.0
C      1  0.4149510000000  0.5455290000000  0.2643160000000 1.0
C      1  0.5850490000000  0.4544700000000  0.7356840000000 1.0
C      1  0.4185590000000  0.4437180000000  0.2516130000000 1.0
C      1  0.3560990000000  0.6577180000000  0.4769750000000 1.0
C      1  0.6486110000000  0.6615250000000  0.5354100000000 1.0
C      1  0.3513890000000  0.3384750000000  0.4645900000000 1.0
C      1  0.6439010000000  0.3422820000000  0.5230250000000 1.0
C      1  0.5364540000000  0.3065070000000  0.5311350000000 1.0
C      1  0.4539440000000  0.2908100000000  0.4547690000000 1.0
C      1  0.5460560000000  0.7091900000000  0.5452300000000 1.0
C      1  0.4635450000000  0.6934920000000  0.4688650000000 1.0
C      1  0.3277730000000  0.6125440000000  0.6593750000000 1.0
C      1  0.6695760000000  0.6114460000000  0.3408380000000 1.0
C      1  0.3304240000000  0.3885560000000  0.6591620000000 1.0
C      1  0.6722280000000  0.3874570000000  0.3406260000000 1.0
C      1  0.4958470000000  0.6723380000000  0.3639140000000 1.0
C      1  0.5117350000000  0.6888870000000  0.6490460000000 1.0
C      1  0.4882660000000  0.3111120000000  0.3509540000000 1.0
C      1  0.5041520000000  0.3276620000000  0.6360860000000 1.0
END
