TITL C-986978-6805-469 0.132343447843527 3375 -326.93249543679 0 0 60 (C2) n - 1
REM
REM in /home/bkarasulu/work/CARBON/AIRSS/Generating-Clusters/REBO/Higher-Symm/Only-C60
REM
REM
REM
REM
REM
REM ./C.cell (a2850807a9bf4ad07a5b6933b78d9264)
REM AIRSS Version 0.9.1 bugfix July 2018 build 013d7b7c2542+ Fri, 06 Jul 2018 19:26:36 +0100
REM compiler GCC version 9.2.1 20190827 (Red Hat 9.2.1-1)
REM options -cpp -mtune=generic -march=x86-64 -g -O0 -fpre-include=/usr/include/finclude/math-vector-fortran.h
REM seed 198961830 231767107 843164302 -119165607 -1180861522 -952952097 1685904270 -363895544 162375021 214144433 1644121806 -78700460 -1734923171 -1797254591 948432887 2064074577 -1780251446 910214861 86747612 -919705967 -1319475042 -76373381 624222647 -908332536 2028440296 -2082928531 1782896410 -1155736670 787887291 256336221 1068247141 1623036658 1733317918
REM
CELL 1.54180   15.00000   15.00000   15.00000   90.00000   90.00000   90.00000
LATT -1
SFAC C  
C      1  0.5756790000000  0.4352470000000  0.2223700000000 1.0
C      1  0.5752150000000  0.5644470000000  0.7774540000000 1.0
C      1  0.3219160000000  0.5489100000000  0.4266640000000 1.0
C      1  0.3216990000000  0.4513320000000  0.5731880000000 1.0
C      1  0.3661010000000  0.7014000000000  0.5347150000000 1.0
C      1  0.3661110000000  0.2987080000000  0.4653580000000 1.0
C      1  0.4070510000000  0.3463740000000  0.6408830000000 1.0
C      1  0.4074860000000  0.6544020000000  0.3594540000000 1.0
C      1  0.5145970000000  0.3669340000000  0.6746050000000 1.0
C      1  0.5150500000000  0.6341100000000  0.3259820000000 1.0
C      1  0.3574780000000  0.5056150000000  0.3474160000000 1.0
C      1  0.3569960000000  0.4944230000000  0.6523270000000 1.0
C      1  0.5882710000000  0.6780550000000  0.4023370000000 1.0
C      1  0.5878210000000  0.3227320000000  0.5980990000000 1.0
C      1  0.3513550000000  0.6885630000000  0.4388370000000 1.0
C      1  0.3514210000000  0.3117520000000  0.5611090000000 1.0
C      1  0.4489590000000  0.5039970000000  0.4532170000000 1.0
C      1  0.4490300000000  0.4961250000000  0.5465700000000 1.0
C      1  0.5466490000000  0.2169320000000  0.4687220000000 1.0
C      1  0.5466420000000  0.7830110000000  0.5313920000000 1.0
C      1  0.4455530000000  0.5383660000000  0.3077470000000 1.0
C      1  0.4465540000000  0.4592860000000  0.6930370000000 1.0
C      1  0.5215050000000  0.5439260000000  0.7053050000000 1.0
C      1  0.5217680000000  0.4555530000000  0.2945260000000 1.0
C      1  0.3452020000000  0.4278670000000  0.4874980000000 1.0
C      1  0.3452260000000  0.5722220000000  0.5124330000000 1.0
C      1  0.5132740000000  0.3530460000000  0.5263410000000 1.0
C      1  0.5134630000000  0.6469740000000  0.4737120000000 1.0
C      1  0.4479020000000  0.4093190000000  0.5699280000000 1.0
C      1  0.4480950000000  0.5907710000000  0.4298870000000 1.0
C      1  0.3200430000000  0.4153090000000  0.3368180000000 1.0
C      1  0.3199850000000  0.5845170000000  0.6630810000000 1.0
C      1  0.5523190000000  0.3882260000000  0.4401110000000 1.0
C      1  0.5522930000000  0.6116430000000  0.5598970000000 1.0
C      1  0.4638010000000  0.7108020000000  0.5487250000000 1.0
C      1  0.4638060000000  0.2891230000000  0.4512500000000 1.0
C      1  0.4913450000000  0.6226950000000  0.6480820000000 1.0
C      1  0.4914540000000  0.3768920000000  0.3519490000000 1.0
C      1  0.6808360000000  0.3832300000000  0.3476000000000 1.0
C      1  0.6808360000000  0.6167090000000  0.6523510000000 1.0
C      1  0.6373810000000  0.3216030000000  0.4205660000000 1.0
C      1  0.6373170000000  0.6783740000000  0.5794840000000 1.0
C      1  0.7216400000000  0.4571350000000  0.4791250000000 1.0
C      1  0.7216930000000  0.5427160000000  0.5205940000000 1.0
C      1  0.5568930000000  0.5363710000000  0.3616590000000 1.0
C      1  0.5588880000000  0.4644590000000  0.6383250000000 1.0
C      1  0.6117930000000  0.5248930000000  0.4483490000000 1.0
C      1  0.6116530000000  0.4752250000000  0.5509470000000 1.0
C      1  0.6882230000000  0.4664120000000  0.3852200000000 1.0
C      1  0.6880860000000  0.5335160000000  0.6145520000000 1.0
C      1  0.6542680000000  0.6255940000000  0.4793040000000 1.0
C      1  0.6542300000000  0.3743630000000  0.5207630000000 1.0
C      1  0.4230470000000  0.4154640000000  0.4205580000000 1.0
C      1  0.4230150000000  0.5844030000000  0.5793730000000 1.0
C      1  0.3179590000000  0.6605950000000  0.6082250000000 1.0
C      1  0.3179420000000  0.3393290000000  0.3917780000000 1.0
C      1  0.5438160000000  0.2772530000000  0.3719370000000 1.0
C      1  0.5436450000000  0.7224830000000  0.6281260000000 1.0
C      1  0.5838680000000  0.7778230000000  0.4468820000000 1.0
C      1  0.5838540000000  0.2224450000000  0.5532560000000 1.0
END
