TITL C-986975-4297-580 1.15133661164118e-05 3375 -364.871806743674 0 0 60 (D5h) n - 1
REM
REM in /home/bkarasulu/work/CARBON/AIRSS/Generating-Clusters/REBO/Higher-Symm/Only-C60
REM
REM
REM
REM
REM
REM ./C.cell (a2850807a9bf4ad07a5b6933b78d9264)
REM AIRSS Version 0.9.1 bugfix July 2018 build 013d7b7c2542+ Fri, 06 Jul 2018 19:26:36 +0100
REM compiler GCC version 9.2.1 20190827 (Red Hat 9.2.1-1)
REM options -cpp -mtune=generic -march=x86-64 -g -O0 -fpre-include=/usr/include/finclude/math-vector-fortran.h
REM seed 1048690312 1082684252 -730732265 -1905927275 1962295265 982421816 168085173 120260667 -584755179 -1526394825 1519696551 1221751048 -17916602 1530005423 990033599 -1930686199 859674910 878569689 1100349239 135436163 74459544 1880868267 -728887541 -600332128 -796866084 -1591046617 -2015965690 1689713849 1214214022 -751144430 -1385167856 424802444 -1135009943
REM
CELL 1.54180   15.00000   15.00000   15.00000   90.00000   90.00000   90.00000
LATT -1
SFAC C  
C      1  0.5870080000000  0.3565570000000  0.3726820000000 1.0
C      1  0.6633100000000  0.5384240000000  0.3726820000000 1.0
C      1  0.5139220000000  0.6671900000000  0.3726820000000 1.0
C      1  0.3452950000000  0.5649060000000  0.3726820000000 1.0
C      1  0.3904650000000  0.3729240000000  0.3726820000000 1.0
C      1  0.5870080000000  0.3565570000000  0.6273180000000 1.0
C      1  0.6633100000000  0.5384240000000  0.6273180000000 1.0
C      1  0.5139220000000  0.6671900000000  0.6273180000000 1.0
C      1  0.3452950000000  0.5649060000000  0.6273180000000 1.0
C      1  0.3904650000000  0.3729240000000  0.6273180000000 1.0
C      1  0.4251000000000  0.5314240000000  0.3117890000000 1.0
C      1  0.4469680000000  0.4384760000000  0.3117890000000 1.0
C      1  0.5421250000000  0.4305520000000  0.3117890000000 1.0
C      1  0.5790660000000  0.5186030000000  0.3117890000000 1.0
C      1  0.5067410000000  0.5809450000000  0.3117890000000 1.0
C      1  0.4251000000000  0.5314240000000  0.6882110000000 1.0
C      1  0.4469680000000  0.4384760000000  0.6882110000000 1.0
C      1  0.5421250000000  0.4305520000000  0.6882110000000 1.0
C      1  0.5790660000000  0.5186030000000  0.6882110000000 1.0
C      1  0.5067410000000  0.5809450000000  0.6882110000000 1.0
C      1  0.2685460000000  0.5007850000000  0.3744620000000 1.0
C      1  0.4277300000000  0.2801170000000  0.3744620000000 1.0
C      1  0.6867890000000  0.3633200000000  0.3744620000000 1.0
C      1  0.6877110000000  0.6354100000000  0.3744620000000 1.0
C      1  0.4292230000000  0.7203680000000  0.3744620000000 1.0
C      1  0.2685460000000  0.5007850000000  0.6255380000000 1.0
C      1  0.4277300000000  0.2801170000000  0.6255380000000 1.0
C      1  0.6867890000000  0.3633200000000  0.6255380000000 1.0
C      1  0.6877110000000  0.6354100000000  0.6255380000000 1.0
C      1  0.4292230000000  0.7203680000000  0.6255380000000 1.0
C      1  0.4403200000000  0.4307630000000  0.4445580000000 1.0
C      1  0.5474060000000  0.4218460000000  0.4445580000000 1.0
C      1  0.5889780000000  0.5209350000000  0.4445580000000 1.0
C      1  0.5075860000000  0.5910920000000  0.4445580000000 1.0
C      1  0.4157100000000  0.5353630000000  0.4445580000000 1.0
C      1  0.4403200000000  0.4307630000000  0.5554420000000 1.0
C      1  0.5474060000000  0.4218460000000  0.5554420000000 1.0
C      1  0.5889780000000  0.5209350000000  0.5554420000000 1.0
C      1  0.5075860000000  0.5910920000000  0.5554420000000 1.0
C      1  0.4157100000000  0.5353630000000  0.5554420000000 1.0
C      1  0.2931770000000  0.3960970000000  0.6255380000000 1.0
C      1  0.5349060000000  0.2711920000000  0.6255380000000 1.0
C      1  0.7283960000000  0.4624920000000  0.6255380000000 1.0
C      1  0.6062510000000  0.7056270000000  0.6255380000000 1.0
C      1  0.3372710000000  0.6645920000000  0.6255380000000 1.0
C      1  0.2931770000000  0.3960970000000  0.3744620000000 1.0
C      1  0.5349060000000  0.2711920000000  0.3744620000000 1.0
C      1  0.7283960000000  0.4624920000000  0.3744620000000 1.0
C      1  0.6062510000000  0.7056270000000  0.3744620000000 1.0
C      1  0.3372710000000  0.6645920000000  0.3744620000000 1.0
C      1  0.4772340000000  0.2266120000000  0.4540100000000 1.0
C      1  0.7529720000000  0.3938670000000  0.4540100000000 1.0
C      1  0.6791120000000  0.7077940000000  0.4540100000000 1.0
C      1  0.3577250000000  0.7345570000000  0.4540100000000 1.0
C      1  0.2329570000000  0.4371700000000  0.4540100000000 1.0
C      1  0.4772340000000  0.2266120000000  0.5459900000000 1.0
C      1  0.7529720000000  0.3938670000000  0.5459900000000 1.0
C      1  0.6791120000000  0.7077940000000  0.5459900000000 1.0
C      1  0.3577250000000  0.7345570000000  0.5459900000000 1.0
C      1  0.2329570000000  0.4371700000000  0.5459900000000 1.0
END
