TITL C-986976-6631-541 -1.75530946092622e-05 3375 -348.429189470601 0 0 60 (C1) n - 1
REM
REM in /home/bkarasulu/work/CARBON/AIRSS/Generating-Clusters/REBO/Higher-Symm/Only-C60
REM
REM
REM
REM
REM
REM ./C.cell (a2850807a9bf4ad07a5b6933b78d9264)
REM AIRSS Version 0.9.1 bugfix July 2018 build 013d7b7c2542+ Fri, 06 Jul 2018 19:26:36 +0100
REM compiler GCC version 9.2.1 20190827 (Red Hat 9.2.1-1)
REM options -cpp -mtune=generic -march=x86-64 -g -O0 -fpre-include=/usr/include/finclude/math-vector-fortran.h
REM seed -2113067830 1035524193 555869351 -1241883419 58789776 821148565 -8214016 1589357664 -999638079 617413545 -1354237451 -445381470 419193751 1925524800 -717441000 869300837 1055478737 1708107698 1722735071 415542526 1976985604 -615006917 13432028 -2106110407 397979668 -1893738113 -298161501 2005140654 -542083747 207785648 -144028545 1103456918 -677779236
REM
CELL 1.54180   15.00000   15.00000   15.00000   90.00000   90.00000   90.00000
LATT -1
SFAC C  
C      1  0.6229280000000  0.5489970000000  0.6222000000000 1.0
C      1  0.6241490000000  0.4549590000000  0.6193650000000 1.0
C      1  0.3367010000000  0.3332900000000  0.5315570000000 1.0
C      1  0.3365140000000  0.6674590000000  0.5296930000000 1.0
C      1  0.5036610000000  0.6636460000000  0.4437010000000 1.0
C      1  0.5031230000000  0.3358070000000  0.4403210000000 1.0
C      1  0.4051700000000  0.5470490000000  0.6618480000000 1.0
C      1  0.4067380000000  0.4529110000000  0.6619680000000 1.0
C      1  0.6518380000000  0.3191790000000  0.4227330000000 1.0
C      1  0.6573610000000  0.6778380000000  0.4279560000000 1.0
C      1  0.2541540000000  0.6267860000000  0.5518670000000 1.0
C      1  0.2551220000000  0.3750710000000  0.5545150000000 1.0
C      1  0.5653730000000  0.2818190000000  0.5739190000000 1.0
C      1  0.5615650000000  0.7225700000000  0.5762310000000 1.0
C      1  0.6890980000000  0.4455030000000  0.4455950000000 1.0
C      1  0.6909490000000  0.5545030000000  0.4653030000000 1.0
C      1  0.3231290000000  0.5910260000000  0.4201170000000 1.0
C      1  0.3225570000000  0.4093930000000  0.4217140000000 1.0
C      1  0.2169780000000  0.5459760000000  0.5682900000000 1.0
C      1  0.2174890000000  0.4559200000000  0.5694330000000 1.0
C      1  0.5744800000000  0.5471700000000  0.3257710000000 1.0
C      1  0.5722650000000  0.4453380000000  0.3217320000000 1.0
C      1  0.4882210000000  0.4060240000000  0.3286300000000 1.0
C      1  0.4922690000000  0.5904940000000  0.3330680000000 1.0
C      1  0.3903660000000  0.5478510000000  0.3423720000000 1.0
C      1  0.3888390000000  0.4508990000000  0.3424760000000 1.0
C      1  0.4223240000000  0.3847270000000  0.5751640000000 1.0
C      1  0.4204640000000  0.6154690000000  0.5751170000000 1.0
C      1  0.3521750000000  0.3002970000000  0.4334240000000 1.0
C      1  0.3544310000000  0.6996200000000  0.4317130000000 1.0
C      1  0.7660260000000  0.5608370000000  0.5474940000000 1.0
C      1  0.7584560000000  0.4603440000000  0.5303800000000 1.0
C      1  0.5105640000000  0.7033100000000  0.6575150000000 1.0
C      1  0.5142020000000  0.2969190000000  0.6558050000000 1.0
C      1  0.7358800000000  0.5378200000000  0.3622710000000 1.0
C      1  0.7378340000000  0.4394970000000  0.3425770000000 1.0
C      1  0.5069350000000  0.7373790000000  0.4983210000000 1.0
C      1  0.5104060000000  0.2636250000000  0.4964060000000 1.0
C      1  0.6568380000000  0.6001560000000  0.3454290000000 1.0
C      1  0.6513410000000  0.3849480000000  0.3338560000000 1.0
C      1  0.4073910000000  0.3368140000000  0.3514330000000 1.0
C      1  0.4112430000000  0.6612660000000  0.3514930000000 1.0
C      1  0.5898490000000  0.4084720000000  0.4491640000000 1.0
C      1  0.5916450000000  0.5941790000000  0.4607280000000 1.0
C      1  0.5119930000000  0.5475980000000  0.5067340000000 1.0
C      1  0.5135600000000  0.4509780000000  0.5048280000000 1.0
C      1  0.2376540000000  0.5424950000000  0.4366480000000 1.0
C      1  0.2374350000000  0.4587150000000  0.4376650000000 1.0
C      1  0.5269010000000  0.5459660000000  0.7140410000000 1.0
C      1  0.5292220000000  0.4533240000000  0.7126070000000 1.0
C      1  0.6872980000000  0.4029810000000  0.5725300000000 1.0
C      1  0.6868430000000  0.6085180000000  0.5870740000000 1.0
C      1  0.5244290000000  0.5814630000000  0.6055640000000 1.0
C      1  0.5268680000000  0.4187830000000  0.6037690000000 1.0
C      1  0.4649100000000  0.3659240000000  0.7073940000000 1.0
C      1  0.4622270000000  0.6336510000000  0.7093200000000 1.0
C      1  0.4223630000000  0.4086600000000  0.4642770000000 1.0
C      1  0.4221910000000  0.5902760000000  0.4644750000000 1.0
C      1  0.6481430000000  0.6849120000000  0.5401820000000 1.0
C      1  0.6489190000000  0.3226010000000  0.5322260000000 1.0
END
