TITL C-986976-6631-654 0.00460712445061401 3375 -342.727738041158 0 0 60 (C1) n - 1
REM
REM in /home/bkarasulu/work/CARBON/AIRSS/Generating-Clusters/REBO/Higher-Symm/Only-C60
REM
REM
REM
REM
REM
REM ./C.cell (a2850807a9bf4ad07a5b6933b78d9264)
REM AIRSS Version 0.9.1 bugfix July 2018 build 013d7b7c2542+ Fri, 06 Jul 2018 19:26:36 +0100
REM compiler GCC version 9.2.1 20190827 (Red Hat 9.2.1-1)
REM options -cpp -mtune=generic -march=x86-64 -g -O0 -fpre-include=/usr/include/finclude/math-vector-fortran.h
REM seed -2143331507 445619670 524751404 281603415 1173933520 437778391 -1240443732 -2104769411 505473750 -661935045 -482041449 1951117318 1368677116 1939570310 2146587262 -1691464000 1353221227 -358468913 -656098812 293991948 874509248 -1347591719 -1020804892 -441106852 -1405484623 -1572459379 -468603930 1912272561 -278816437 116078559 -468156495 1791353386 -884903478
REM
CELL 1.54180   15.00000   15.00000   15.00000   90.00000   90.00000   90.00000
LATT -1
SFAC C  
C      1  0.5081990000000  0.3717750000000  0.2607980000000 1.0
C      1  0.5057750000000  0.7791550000000  0.5124010000000 1.0
C      1  0.4994200000000  0.3499360000000  0.7359190000000 1.0
C      1  0.6484320000000  0.6839070000000  0.5464620000000 1.0
C      1  0.6415770000000  0.3686770000000  0.6423720000000 1.0
C      1  0.6467360000000  0.4465520000000  0.3307030000000 1.0
C      1  0.3752760000000  0.4550110000000  0.6153820000000 1.0
C      1  0.3613490000000  0.4265750000000  0.4054410000000 1.0
C      1  0.3393210000000  0.6225960000000  0.4695980000000 1.0
C      1  0.6829850000000  0.6152850000000  0.6039410000000 1.0
C      1  0.6803690000000  0.3580220000000  0.5559260000000 1.0
C      1  0.6856830000000  0.5287150000000  0.3628460000000 1.0
C      1  0.6583080000000  0.5246790000000  0.5627080000000 1.0
C      1  0.6457740000000  0.4368270000000  0.4993390000000 1.0
C      1  0.6450880000000  0.5369940000000  0.4579370000000 1.0
C      1  0.4734050000000  0.6749750000000  0.3939050000000 1.0
C      1  0.4608130000000  0.4937500000000  0.6757640000000 1.0
C      1  0.4629160000000  0.3191110000000  0.4069820000000 1.0
C      1  0.5264110000000  0.4487460000000  0.7247500000000 1.0
C      1  0.5376080000000  0.3260580000000  0.3469710000000 1.0
C      1  0.5402610000000  0.7320830000000  0.4294210000000 1.0
C      1  0.4309750000000  0.5511270000000  0.5855140000000 1.0
C      1  0.4269710000000  0.3846850000000  0.4863990000000 1.0
C      1  0.4268100000000  0.5796130000000  0.4099960000000 1.0
C      1  0.5544050000000  0.5826350000000  0.4458430000000 1.0
C      1  0.5493900000000  0.4920230000000  0.5750340000000 1.0
C      1  0.5468670000000  0.4259190000000  0.4473170000000 1.0
C      1  0.6300640000000  0.6922530000000  0.4407400000000 1.0
C      1  0.6224020000000  0.4562000000000  0.6978580000000 1.0
C      1  0.6295630000000  0.3532930000000  0.3721790000000 1.0
C      1  0.6553390000000  0.5552920000000  0.6917450000000 1.0
C      1  0.6677470000000  0.3113120000000  0.4605640000000 1.0
C      1  0.6475590000000  0.6308140000000  0.3641880000000 1.0
C      1  0.5675840000000  0.3300090000000  0.4878880000000 1.0
C      1  0.5519260000000  0.5859810000000  0.3345800000000 1.0
C      1  0.5629070000000  0.5720480000000  0.6424030000000 1.0
C      1  0.4967680000000  0.6349370000000  0.6655320000000 1.0
C      1  0.4989540000000  0.2819380000000  0.5313420000000 1.0
C      1  0.4739480000000  0.5666260000000  0.2860440000000 1.0
C      1  0.4179620000000  0.2818620000000  0.5698640000000 1.0
C      1  0.3850010000000  0.5328280000000  0.2927260000000 1.0
C      1  0.4184660000000  0.6708400000000  0.6417860000000 1.0
C      1  0.3358830000000  0.6076780000000  0.6009590000000 1.0
C      1  0.3348710000000  0.3536740000000  0.5399570000000 1.0
C      1  0.3222530000000  0.5778190000000  0.3665960000000 1.0
C      1  0.3653620000000  0.7021910000000  0.5462430000000 1.0
C      1  0.3662250000000  0.3464250000000  0.6471980000000 1.0
C      1  0.3746540000000  0.4379040000000  0.3111050000000 1.0
C      1  0.5465880000000  0.4537570000000  0.3101360000000 1.0
C      1  0.5460660000000  0.6936210000000  0.5566220000000 1.0
C      1  0.5410450000000  0.3479920000000  0.6391430000000 1.0
C      1  0.4070400000000  0.3291250000000  0.7377800000000 1.0
C      1  0.4147450000000  0.3785210000000  0.2498500000000 1.0
C      1  0.4114320000000  0.7880130000000  0.5182340000000 1.0
C      1  0.4995290000000  0.4095270000000  0.5701730000000 1.0
C      1  0.4862200000000  0.4849850000000  0.3909890000000 1.0
C      1  0.5039260000000  0.6074070000000  0.5268940000000 1.0
C      1  0.2903650000000  0.4509460000000  0.5421210000000 1.0
C      1  0.2948380000000  0.5003220000000  0.4417190000000 1.0
C      1  0.2716440000000  0.5584300000000  0.5351710000000 1.0
END
