TITL C-986979-5873-300 -4.47376857232331e-06 3375 -344.563161298473 0 0 60 (C1) n - 1
REM
REM in /home/bkarasulu/work/CARBON/AIRSS/Generating-Clusters/REBO/Higher-Symm/Only-C60
REM
REM
REM
REM
REM
REM ./C.cell (a2850807a9bf4ad07a5b6933b78d9264)
REM AIRSS Version 0.9.1 bugfix July 2018 build 013d7b7c2542+ Fri, 06 Jul 2018 19:26:36 +0100
REM compiler GCC version 9.2.1 20190827 (Red Hat 9.2.1-1)
REM options -cpp -mtune=generic -march=x86-64 -g -O0 -fpre-include=/usr/include/finclude/math-vector-fortran.h
REM seed 547003508 153499661 342953507 1642418469 -1776775840 1181836287 1875821328 -581660276 1697474075 -892471829 1839218562 695207868 2040852383 241286717 -551490827 1433236734 -69555931 -850549180 1959541110 -1983948740 1855604357 -392757604 -1970074328 844855632 -1273302449 1241095328 -90814764 -1249070134 -576731706 1331646547 -491469659 -366457552 -1008001575
REM
CELL 1.54180   15.00000   15.00000   15.00000   90.00000   90.00000   90.00000
LATT -1
SFAC C  
C      1  0.6311670000000  0.6940990000000  0.6902140000000 1.0
C      1  0.2758420000000  0.7002930000000  0.5320670000000 1.0
C      1  0.5755020000000  0.6755520000000  0.2909400000000 1.0
C      1  0.5167590000000  0.4707900000000  0.7119470000000 1.0
C      1  0.2933370000000  0.4865320000000  0.4020160000000 1.0
C      1  0.6773090000000  0.4625150000000  0.3739090000000 1.0
C      1  0.5368580000000  0.3830330000000  0.6788920000000 1.0
C      1  0.3683690000000  0.4196470000000  0.4312740000000 1.0
C      1  0.6388980000000  0.3763860000000  0.3943620000000 1.0
C      1  0.4636900000000  0.4785320000000  0.4063140000000 1.0
C      1  0.6302070000000  0.4921810000000  0.5208550000000 1.0
C      1  0.4289430000000  0.5010890000000  0.6153600000000 1.0
C      1  0.6121540000000  0.3418320000000  0.6176380000000 1.0
C      1  0.3851040000000  0.3695200000000  0.5154410000000 1.0
C      1  0.5601960000000  0.3298610000000  0.3523190000000 1.0
C      1  0.5569190000000  0.6541610000000  0.3998700000000 1.0
C      1  0.5564490000000  0.6688600000000  0.6106910000000 1.0
C      1  0.3787890000000  0.6723930000000  0.4950710000000 1.0
C      1  0.5325420000000  0.7373090000000  0.4480160000000 1.0
C      1  0.5318610000000  0.7464440000000  0.5537210000000 1.0
C      1  0.4413600000000  0.7490010000000  0.4986550000000 1.0
C      1  0.3035330000000  0.3796700000000  0.5774460000000 1.0
C      1  0.5432350000000  0.3654020000000  0.2484360000000 1.0
C      1  0.7025560000000  0.3790560000000  0.6466610000000 1.0
C      1  0.5023600000000  0.4379430000000  0.2368630000000 1.0
C      1  0.7274260000000  0.4580940000000  0.6471220000000 1.0
C      1  0.2769540000000  0.4510230000000  0.6105330000000 1.0
C      1  0.3334720000000  0.4076170000000  0.2689390000000 1.0
C      1  0.7400890000000  0.3680380000000  0.5193810000000 1.0
C      1  0.3812150000000  0.3762940000000  0.7173440000000 1.0
C      1  0.5761290000000  0.5773650000000  0.2930880000000 1.0
C      1  0.6346070000000  0.5954010000000  0.6893900000000 1.0
C      1  0.2706810000000  0.6022960000000  0.5278010000000 1.0
C      1  0.5639750000000  0.4127700000000  0.5466460000000 1.0
C      1  0.4654950000000  0.4154510000000  0.5715090000000 1.0
C      1  0.4747610000000  0.3898120000000  0.3593710000000 1.0
C      1  0.3813500000000  0.5642380000000  0.3013290000000 1.0
C      1  0.7234710000000  0.5640190000000  0.5100750000000 1.0
C      1  0.3780680000000  0.5697780000000  0.6935680000000 1.0
C      1  0.3981630000000  0.5995510000000  0.5667690000000 1.0
C      1  0.4807250000000  0.5815510000000  0.3860520000000 1.0
C      1  0.6065500000000  0.5964210000000  0.5593200000000 1.0
C      1  0.4456560000000  0.3423980000000  0.6572410000000 1.0
C      1  0.3829100000000  0.3579110000000  0.3354950000000 1.0
C      1  0.6463220000000  0.3619010000000  0.4881350000000 1.0
C      1  0.4704700000000  0.6213410000000  0.6518280000000 1.0
C      1  0.3807010000000  0.6238060000000  0.3982690000000 1.0
C      1  0.6360640000000  0.6046040000000  0.4498610000000 1.0
C      1  0.2991040000000  0.5695300000000  0.4451670000000 1.0
C      1  0.6330290000000  0.5436030000000  0.3596960000000 1.0
C      1  0.5491080000000  0.5567090000000  0.6933520000000 1.0
C      1  0.6981820000000  0.5521170000000  0.6181690000000 1.0
C      1  0.3047340000000  0.5492800000000  0.6116460000000 1.0
C      1  0.4838640000000  0.5298050000000  0.2790800000000 1.0
C      1  0.5378630000000  0.2721890000000  0.4377510000000 1.0
C      1  0.5610840000000  0.2796380000000  0.5448100000000 1.0
C      1  0.4613190000000  0.2982080000000  0.5083740000000 1.0
C      1  0.3124890000000  0.4948530000000  0.3044250000000 1.0
C      1  0.7280030000000  0.4650040000000  0.4676220000000 1.0
C      1  0.4120340000000  0.4752830000000  0.7318600000000 1.0
END
