TITL C-986976-6631-122 -0.0187177310273179 3375 -344.929786765906 0 0 60 (C1) n - 1
REM
REM in /home/bkarasulu/work/CARBON/AIRSS/Generating-Clusters/REBO/Higher-Symm/Only-C60
REM
REM
REM
REM
REM
REM ./C.cell (a2850807a9bf4ad07a5b6933b78d9264)
REM AIRSS Version 0.9.1 bugfix July 2018 build 013d7b7c2542+ Fri, 06 Jul 2018 19:26:36 +0100
REM compiler GCC version 9.2.1 20190827 (Red Hat 9.2.1-1)
REM options -cpp -mtune=generic -march=x86-64 -g -O0 -fpre-include=/usr/include/finclude/math-vector-fortran.h
REM seed 210670948 -2012553131 -42045747 328471824 348051360 573638379 1071360009 -503018111 -1996991177 -1910346642 2119548578 -1217640969 -700190473 -1414470354 -995178074 -1402343204 -2012854707 -1335189151 -2013709042 -1556870767 766405182 1829507185 -412947572 1828428316 1417486357 -1878967752 155078185 -674318050 -1479404258 820065906 -1295141376 1212102758 -625387571
REM
CELL 1.54180   15.00000   15.00000   15.00000   90.00000   90.00000   90.00000
LATT -1
SFAC C  
C      1  0.4653780000000  0.7330740000000  0.4674540000000 1.0
C      1  0.3340830000000  0.4753210000000  0.2919990000000 1.0
C      1  0.6482020000000  0.6064090000000  0.6282360000000 1.0
C      1  0.5133500000000  0.3757260000000  0.2639440000000 1.0
C      1  0.3675560000000  0.7231460000000  0.6018060000000 1.0
C      1  0.4400830000000  0.6498780000000  0.3312490000000 1.0
C      1  0.4222800000000  0.2590800000000  0.5657690000000 1.0
C      1  0.4206950000000  0.3141680000000  0.6560220000000 1.0
C      1  0.7162720000000  0.4528360000000  0.5597640000000 1.0
C      1  0.3266120000000  0.4235310000000  0.3842650000000 1.0
C      1  0.4268170000000  0.4210970000000  0.6263560000000 1.0
C      1  0.4650830000000  0.7735480000000  0.5735080000000 1.0
C      1  0.6823330000000  0.3938640000000  0.4684380000000 1.0
C      1  0.5847680000000  0.4581100000000  0.3926080000000 1.0
C      1  0.4041180000000  0.4474860000000  0.4612720000000 1.0
C      1  0.3728450000000  0.5624820000000  0.6035410000000 1.0
C      1  0.4651550000000  0.6548200000000  0.7062070000000 1.0
C      1  0.3558230000000  0.4330910000000  0.5574970000000 1.0
C      1  0.5951340000000  0.5064270000000  0.4788280000000 1.0
C      1  0.2742710000000  0.4588540000000  0.4796990000000 1.0
C      1  0.4171910000000  0.3774910000000  0.3293950000000 1.0
C      1  0.4192260000000  0.4981090000000  0.2731700000000 1.0
C      1  0.5647570000000  0.7219320000000  0.5529150000000 1.0
C      1  0.6001020000000  0.6062290000000  0.3770950000000 1.0
C      1  0.4902470000000  0.3018260000000  0.7229780000000 1.0
C      1  0.3129610000000  0.3520670000000  0.4950050000000 1.0
C      1  0.6613340000000  0.5982660000000  0.4723170000000 1.0
C      1  0.3756240000000  0.2803410000000  0.4840300000000 1.0
C      1  0.5310200000000  0.3793520000000  0.6225180000000 1.0
C      1  0.4859530000000  0.3841260000000  0.4423910000000 1.0
C      1  0.3615080000000  0.6256150000000  0.3712160000000 1.0
C      1  0.6454920000000  0.6564340000000  0.5507550000000 1.0
C      1  0.5057050000000  0.5944610000000  0.7693150000000 1.0
C      1  0.6914070000000  0.4514660000000  0.6512250000000 1.0
C      1  0.5838340000000  0.4550220000000  0.5728320000000 1.0
C      1  0.3805400000000  0.6443110000000  0.6558590000000 1.0
C      1  0.5429970000000  0.6574450000000  0.4618530000000 1.0
C      1  0.7278350000000  0.5173550000000  0.4796790000000 1.0
C      1  0.5316560000000  0.3111630000000  0.3406450000000 1.0
C      1  0.3343930000000  0.6296450000000  0.4617910000000 1.0
C      1  0.4387120000000  0.2918640000000  0.4013710000000 1.0
C      1  0.6265050000000  0.4433750000000  0.7249450000000 1.0
C      1  0.5097750000000  0.5366330000000  0.2504420000000 1.0
C      1  0.5184120000000  0.7177320000000  0.6565540000000 1.0
C      1  0.4861830000000  0.4635020000000  0.3588560000000 1.0
C      1  0.5102150000000  0.5653280000000  0.5024210000000 1.0
C      1  0.4310510000000  0.5383360000000  0.4538090000000 1.0
C      1  0.5681680000000  0.5269220000000  0.7452500000000 1.0
C      1  0.6438010000000  0.5146640000000  0.3238400000000 1.0
C      1  0.4719340000000  0.5218240000000  0.5987460000000 1.0
C      1  0.5700940000000  0.3643240000000  0.7189860000000 1.0
C      1  0.5194160000000  0.2879690000000  0.5706220000000 1.0
C      1  0.5230300000000  0.6139810000000  0.3041620000000 1.0
C      1  0.6074890000000  0.3491200000000  0.3948440000000 1.0
C      1  0.5763980000000  0.5341760000000  0.6415380000000 1.0
C      1  0.5744360000000  0.3760650000000  0.4970510000000 1.0
C      1  0.7174580000000  0.4677160000000  0.3896150000000 1.0
C      1  0.3177120000000  0.5552050000000  0.5216300000000 1.0
C      1  0.3735590000000  0.7071410000000  0.5031770000000 1.0
C      1  0.5710130000000  0.4585200000000  0.2566980000000 1.0
END
