TITL C-986974-580-409 0.00168186703062609 3375 -315.61343043082 0 0 60 (C1) n - 1
REM
REM in /home/bkarasulu/work/CARBON/AIRSS/Generating-Clusters/REBO/Higher-Symm/Only-C60
REM
REM
REM
REM
REM
REM ./C.cell (a2850807a9bf4ad07a5b6933b78d9264)
REM AIRSS Version 0.9.1 bugfix July 2018 build 013d7b7c2542+ Fri, 06 Jul 2018 19:26:36 +0100
REM compiler GCC version 9.2.1 20190827 (Red Hat 9.2.1-1)
REM options -cpp -mtune=generic -march=x86-64 -g -O0 -fpre-include=/usr/include/finclude/math-vector-fortran.h
REM seed -674621409 -1026579489 -532915707 2026367840 -9769886 -360046758 -551569873 -1041985370 -240569946 -961953090 1524812271 -168507850 354939196 2018867157 1398354401 -562266005 -1407114599 417254526 273016891 1873812114 -1224208675 1353098223 -1873403258 678541191 -2140522090 -653223585 1239519170 453356372 -496466580 -1900515581 -1988331451 770851614 -1631444663
REM
CELL 1.54180   15.00000   15.00000   15.00000   90.00000   90.00000   90.00000
LATT -1
SFAC C  
C      1  0.3495520000000  0.4948630000000  0.6993670000000 1.0
C      1  0.3427660000000  0.5005060000000  0.2916800000000 1.0
C      1  0.6571500000000  0.4995010000000  0.2915570000000 1.0
C      1  0.6499990000000  0.5054760000000  0.6994840000000 1.0
C      1  0.3538050000000  0.7150550000000  0.5008650000000 1.0
C      1  0.3472160000000  0.2747000000000  0.4940650000000 1.0
C      1  0.6465950000000  0.2851390000000  0.5010380000000 1.0
C      1  0.6528110000000  0.7254230000000  0.4937570000000 1.0
C      1  0.4030660000000  0.7265640000000  0.3388070000000 1.0
C      1  0.4164330000000  0.2952490000000  0.6566820000000 1.0
C      1  0.5837620000000  0.7042670000000  0.6571770000000 1.0
C      1  0.5968130000000  0.2735340000000  0.3390420000000 1.0
C      1  0.4085210000000  0.3464260000000  0.7315970000000 1.0
C      1  0.4199930000000  0.6487030000000  0.2916730000000 1.0
C      1  0.5922590000000  0.6521430000000  0.7314170000000 1.0
C      1  0.5800510000000  0.3513060000000  0.2917370000000 1.0
C      1  0.4507710000000  0.5287120000000  0.7380860000000 1.0
C      1  0.4511610000000  0.4709170000000  0.2762890000000 1.0
C      1  0.5486520000000  0.5288820000000  0.2764700000000 1.0
C      1  0.5489700000000  0.4711250000000  0.7382320000000 1.0
C      1  0.4620750000000  0.7340060000000  0.5285390000000 1.0
C      1  0.4526640000000  0.2539910000000  0.4573130000000 1.0
C      1  0.5383110000000  0.2660240000000  0.5285930000000 1.0
C      1  0.5474140000000  0.7463760000000  0.4569580000000 1.0
C      1  0.5152640000000  0.4160570000000  0.3425900000000 1.0
C      1  0.5237820000000  0.5872940000000  0.6782130000000 1.0
C      1  0.4762480000000  0.4120240000000  0.6790090000000 1.0
C      1  0.4848120000000  0.5841220000000  0.3427510000000 1.0
C      1  0.5223230000000  0.3227820000000  0.4079330000000 1.0
C      1  0.5232020000000  0.6621120000000  0.5838980000000 1.0
C      1  0.4776020000000  0.6775600000000  0.4078370000000 1.0
C      1  0.4768180000000  0.3380570000000  0.5837630000000 1.0
C      1  0.3793240000000  0.3124310000000  0.3913290000000 1.0
C      1  0.3920960000000  0.6780280000000  0.6012520000000 1.0
C      1  0.6079580000000  0.3223030000000  0.6012660000000 1.0
C      1  0.6206050000000  0.6876390000000  0.3910730000000 1.0
C      1  0.3805680000000  0.4019410000000  0.3357780000000 1.0
C      1  0.3915680000000  0.5943770000000  0.6646590000000 1.0
C      1  0.6193340000000  0.5980690000000  0.3356280000000 1.0
C      1  0.6084410000000  0.4057560000000  0.6648130000000 1.0
C      1  0.3440290000000  0.5725470000000  0.3699550000000 1.0
C      1  0.3477210000000  0.4239070000000  0.6239140000000 1.0
C      1  0.6519110000000  0.5762830000000  0.6238260000000 1.0
C      1  0.6561200000000  0.4275140000000  0.3698690000000 1.0
C      1  0.3465700000000  0.3561390000000  0.5611550000000 1.0
C      1  0.3475230000000  0.6378880000000  0.4336180000000 1.0
C      1  0.6532470000000  0.6439820000000  0.5609830000000 1.0
C      1  0.6527780000000  0.3622280000000  0.4336210000000 1.0
C      1  0.4033020000000  0.5063890000000  0.5803880000000 1.0
C      1  0.3910600000000  0.4857710000000  0.4123040000000 1.0
C      1  0.6090120000000  0.5142880000000  0.4122380000000 1.0
C      1  0.5963360000000  0.4936840000000  0.5805010000000 1.0
C      1  0.3950630000000  0.5926900000000  0.5268300000000 1.0
C      1  0.3919870000000  0.3950700000000  0.4681400000000 1.0
C      1  0.6051310000000  0.4074910000000  0.5266770000000 1.0
C      1  0.6078810000000  0.6050910000000  0.4679790000000 1.0
C      1  0.5000080000000  0.5000250000000  0.4308420000000 1.0
C      1  0.4996730000000  0.4993830000000  0.6180950000000 1.0
C      1  0.5021660000000  0.3992350000000  0.4886250000000 1.0
C      1  0.4977280000000  0.6009550000000  0.4882240000000 1.0
END
