TITL C-986979-5873-250 0.0258380297118737 3375 -359.488239332938 0 0 60 (C1) n - 1
REM
REM in /home/bkarasulu/work/CARBON/AIRSS/Generating-Clusters/REBO/Higher-Symm/Only-C60
REM
REM
REM
REM
REM
REM ./C.cell (a2850807a9bf4ad07a5b6933b78d9264)
REM AIRSS Version 0.9.1 bugfix July 2018 build 013d7b7c2542+ Fri, 06 Jul 2018 19:26:36 +0100
REM compiler GCC version 9.2.1 20190827 (Red Hat 9.2.1-1)
REM options -cpp -mtune=generic -march=x86-64 -g -O0 -fpre-include=/usr/include/finclude/math-vector-fortran.h
REM seed -1202604413 -2090686404 596305391 -1088376483 277118407 -353507794 -1892739517 -1135151774 -1604470978 732627086 1624723478 -1027245675 913881071 321771633 -1136921404 -595235603 762175836 1524102299 -1794756751 -309776883 -330814931 -2100558322 617472703 1739497569 2087079474 669950160 -1784138817 -1955276258 -640069740 620400837 -936664496 -101287640 1032625003
REM
CELL 1.54180   15.00000   15.00000   15.00000   90.00000   90.00000   90.00000
LATT -1
SFAC C  
C      1  0.6592250000000  0.3445330000000  0.4439780000000 1.0
C      1  0.5807020000000  0.3351050000000  0.6199750000000 1.0
C      1  0.3988520000000  0.3575120000000  0.6376160000000 1.0
C      1  0.3650200000000  0.3455680000000  0.4526290000000 1.0
C      1  0.5051450000000  0.3457670000000  0.3474280000000 1.0
C      1  0.6323100000000  0.3361730000000  0.5438080000000 1.0
C      1  0.6066840000000  0.3476600000000  0.3643600000000 1.0
C      1  0.4133360000000  0.3447810000000  0.3627470000000 1.0
C      1  0.3607080000000  0.3487650000000  0.5430060000000 1.0
C      1  0.4902100000000  0.3578880000000  0.6622990000000 1.0
C      1  0.3647310000000  0.5835250000000  0.2930850000000 1.0
C      1  0.6587240000000  0.5941440000000  0.3043150000000 1.0
C      1  0.7073860000000  0.5769680000000  0.5896910000000 1.0
C      1  0.4764910000000  0.6028600000000  0.7438520000000 1.0
C      1  0.2783250000000  0.5842120000000  0.5557350000000 1.0
C      1  0.3743300000000  0.6024390000000  0.7243720000000 1.0
C      1  0.6598350000000  0.5699720000000  0.6820620000000 1.0
C      1  0.7157740000000  0.6004790000000  0.3915360000000 1.0
C      1  0.4662550000000  0.5865990000000  0.2724610000000 1.0
C      1  0.2633290000000  0.5739120000000  0.4538100000000 1.0
C      1  0.6458280000000  0.4762250000000  0.4548200000000 1.0
C      1  0.5731070000000  0.4679070000000  0.6247080000000 1.0
C      1  0.3971150000000  0.4900430000000  0.6279480000000 1.0
C      1  0.3643790000000  0.4792230000000  0.4506260000000 1.0
C      1  0.5027820000000  0.4786660000000  0.3572990000000 1.0
C      1  0.6197680000000  0.4687900000000  0.5487970000000 1.0
C      1  0.5990100000000  0.4798490000000  0.3760480000000 1.0
C      1  0.4139570000000  0.4775780000000  0.3671320000000 1.0
C      1  0.3613590000000  0.4818000000000  0.5380270000000 1.0
C      1  0.4834550000000  0.4907160000000  0.6535410000000 1.0
C      1  0.5147380000000  0.6559070000000  0.6622970000000 1.0
C      1  0.3629200000000  0.6459310000000  0.5603350000000 1.0
C      1  0.4019340000000  0.6377040000000  0.3767310000000 1.0
C      1  0.5958620000000  0.6516360000000  0.3662440000000 1.0
C      1  0.6544370000000  0.6548590000000  0.5439420000000 1.0
C      1  0.5037680000000  0.6453700000000  0.3507220000000 1.0
C      1  0.3502900000000  0.6349770000000  0.4563300000000 1.0
C      1  0.4124580000000  0.6535890000000  0.6393550000000 1.0
C      1  0.6036010000000  0.6463170000000  0.6344780000000 1.0
C      1  0.6545980000000  0.6615640000000  0.4514490000000 1.0
C      1  0.7645720000000  0.5325920000000  0.4352050000000 1.0
C      1  0.6213160000000  0.5083460000000  0.7417290000000 1.0
C      1  0.3083260000000  0.5369640000000  0.7153280000000 1.0
C      1  0.2503390000000  0.5106920000000  0.3868850000000 1.0
C      1  0.5253470000000  0.5242950000000  0.2341890000000 1.0
C      1  0.7470180000000  0.5131760000000  0.5332420000000 1.0
C      1  0.6249870000000  0.5227850000000  0.2530330000000 1.0
C      1  0.3040560000000  0.5113430000000  0.3009850000000 1.0
C      1  0.2672380000000  0.5193270000000  0.6245340000000 1.0
C      1  0.5296810000000  0.5333250000000  0.7775110000000 1.0
C      1  0.5435070000000  0.4192160000000  0.2713570000000 1.0
C      1  0.7438000000000  0.4210310000000  0.4373930000000 1.0
C      1  0.6170220000000  0.4010270000000  0.7052350000000 1.0
C      1  0.3324410000000  0.4285050000000  0.6973740000000 1.0
C      1  0.3005810000000  0.4110120000000  0.3883570000000 1.0
C      1  0.5140550000000  0.4297550000000  0.7448530000000 1.0
C      1  0.7164340000000  0.4086070000000  0.5454180000000 1.0
C      1  0.6526570000000  0.4224390000000  0.2920900000000 1.0
C      1  0.3569580000000  0.4129070000000  0.2913690000000 1.0
C      1  0.2869250000000  0.4151430000000  0.5943210000000 1.0
END
