TITL C-986978-6805-102 1.91907180950161e-06 3375 -342.476495106809 0 0 60 (C1) n - 1
REM
REM in /home/bkarasulu/work/CARBON/AIRSS/Generating-Clusters/REBO/Higher-Symm/Only-C60
REM
REM
REM
REM
REM
REM ./C.cell (a2850807a9bf4ad07a5b6933b78d9264)
REM AIRSS Version 0.9.1 bugfix July 2018 build 013d7b7c2542+ Fri, 06 Jul 2018 19:26:36 +0100
REM compiler GCC version 9.2.1 20190827 (Red Hat 9.2.1-1)
REM options -cpp -mtune=generic -march=x86-64 -g -O0 -fpre-include=/usr/include/finclude/math-vector-fortran.h
REM seed 324519586 112997979 1758714828 -1726658216 -1451779541 313657415 -1101879415 1896965024 -1862836937 740942646 1264452414 1516764040 539162661 -1391671211 -667248767 1721701435 -1995537245 890547171 -1275073753 -215688157 -467630204 -57851957 1847266950 1003979485 1397485810 211751006 1834104831 -146002349 2145788864 684569324 1895128077 -986672664 1607734303
REM
CELL 1.54180   15.00000   15.00000   15.00000   90.00000   90.00000   90.00000
LATT -1
SFAC C  
C      1  0.4756940000000  0.3635320000000  0.4785710000000 1.0
C      1  0.5624210000000  0.7396420000000  0.4269750000000 1.0
C      1  0.5977070000000  0.6224200000000  0.2921720000000 1.0
C      1  0.3066920000000  0.4256600000000  0.5945900000000 1.0
C      1  0.3718430000000  0.3446290000000  0.4397770000000 1.0
C      1  0.7103580000000  0.3980510000000  0.4763640000000 1.0
C      1  0.5632160000000  0.6004630000000  0.7022440000000 1.0
C      1  0.4677700000000  0.7338130000000  0.3684900000000 1.0
C      1  0.5605640000000  0.3952440000000  0.6702030000000 1.0
C      1  0.5099270000000  0.5524040000000  0.5538320000000 1.0
C      1  0.4165610000000  0.4606190000000  0.3917300000000 1.0
C      1  0.4952890000000  0.5467880000000  0.7312310000000 1.0
C      1  0.6404540000000  0.4290700000000  0.7310170000000 1.0
C      1  0.3257310000000  0.5025880000000  0.3395870000000 1.0
C      1  0.3102510000000  0.4286270000000  0.4186720000000 1.0
C      1  0.3850340000000  0.7265070000000  0.4441860000000 1.0
C      1  0.5894440000000  0.3027220000000  0.6138560000000 1.0
C      1  0.5278560000000  0.5524870000000  0.3038140000000 1.0
C      1  0.6845290000000  0.5367410000000  0.5775710000000 1.0
C      1  0.7094650000000  0.5112330000000  0.4714500000000 1.0
C      1  0.6075140000000  0.3547870000000  0.4928260000000 1.0
C      1  0.5681680000000  0.6895230000000  0.6334330000000 1.0
C      1  0.6754570000000  0.4505100000000  0.6339250000000 1.0
C      1  0.4389210000000  0.3177560000000  0.3589180000000 1.0
C      1  0.6302910000000  0.6800700000000  0.4882830000000 1.0
C      1  0.5672760000000  0.7084140000000  0.3203460000000 1.0
C      1  0.3940980000000  0.6487670000000  0.3673190000000 1.0
C      1  0.4294430000000  0.7097210000000  0.5404130000000 1.0
C      1  0.5704860000000  0.4688070000000  0.5895370000000 1.0
C      1  0.3275390000000  0.6615720000000  0.5179730000000 1.0
C      1  0.6510950000000  0.6156680000000  0.6385180000000 1.0
C      1  0.3624880000000  0.5332920000000  0.5422160000000 1.0
C      1  0.4587320000000  0.3917770000000  0.6981680000000 1.0
C      1  0.4996510000000  0.4562850000000  0.3236110000000 1.0
C      1  0.4404480000000  0.5254940000000  0.4815970000000 1.0
C      1  0.6793660000000  0.3624420000000  0.5786220000000 1.0
C      1  0.5456870000000  0.4443260000000  0.4844500000000 1.0
C      1  0.4303000000000  0.4863330000000  0.7139220000000 1.0
C      1  0.6060590000000  0.5806860000000  0.5180650000000 1.0
C      1  0.6468550000000  0.5568000000000  0.3634600000000 1.0
C      1  0.5368330000000  0.3089790000000  0.3739440000000 1.0
C      1  0.3763380000000  0.3481470000000  0.6406120000000 1.0
C      1  0.4280400000000  0.3804660000000  0.2862400000000 1.0
C      1  0.5366400000000  0.2762730000000  0.5195880000000 1.0
C      1  0.5625860000000  0.5315000000000  0.4305100000000 1.0
C      1  0.4759240000000  0.6347790000000  0.6074930000000 1.0
C      1  0.6574200000000  0.4473240000000  0.3908300000000 1.0
C      1  0.3548970000000  0.5112970000000  0.6522410000000 1.0
C      1  0.5791320000000  0.2339570000000  0.4005680000000 1.0
C      1  0.3289590000000  0.3280210000000  0.5406050000000 1.0
C      1  0.7025290000000  0.6171960000000  0.4348430000000 1.0
C      1  0.5382330000000  0.7277290000000  0.5357450000000 1.0
C      1  0.4279800000000  0.2789190000000  0.5402470000000 1.0
C      1  0.3690060000000  0.6169270000000  0.6135530000000 1.0
C      1  0.4784430000000  0.2967210000000  0.6376210000000 1.0
C      1  0.5759680000000  0.3960820000000  0.3603870000000 1.0
C      1  0.2773530000000  0.4839340000000  0.5010710000000 1.0
C      1  0.4692640000000  0.5821530000000  0.3903150000000 1.0
C      1  0.3091660000000  0.5925000000000  0.3695510000000 1.0
C      1  0.2746120000000  0.5908220000000  0.4620990000000 1.0
END
