TITL C-986976-6631-515 -0.0124854164289492 3375 -366.399784416434 0 0 60 (C6) n - 1
REM
REM in /home/bkarasulu/work/CARBON/AIRSS/Generating-Clusters/REBO/Higher-Symm/Only-C60
REM
REM
REM
REM
REM
REM ./C.cell (a2850807a9bf4ad07a5b6933b78d9264)
REM AIRSS Version 0.9.1 bugfix July 2018 build 013d7b7c2542+ Fri, 06 Jul 2018 19:26:36 +0100
REM compiler GCC version 9.2.1 20190827 (Red Hat 9.2.1-1)
REM options -cpp -mtune=generic -march=x86-64 -g -O0 -fpre-include=/usr/include/finclude/math-vector-fortran.h
REM seed -1543113431 -1044700856 -954878352 -1275985189 1282627530 854593411 835924919 -852417628 -1616645051 -463783480 -1985755034 1359922626 1896830620 1100605265 1527035946 -549344372 -1439657046 -643056287 2014809543 1209555943 800880349 -74421510 -1073364771 -2039171673 1870035684 227212504 -868332501 2118962952 1390000744 1266311884 -2131558939 1529715627 -1544768209
REM
CELL 1.54180   15.00000   15.00000   15.00000   90.00000   90.00000   90.00000
LATT -1
SFAC C  
C      1  0.5658100000000  0.5375360000000  0.4161120000000 1.0
C      1  0.5657480000000  0.4461360000000  0.4256150000000 1.0
C      1  0.5658370000000  0.4085770000000  0.5094710000000 1.0
C      1  0.5657990000000  0.4624590000000  0.5838780000000 1.0
C      1  0.5657540000000  0.5538630000000  0.5743830000000 1.0
C      1  0.5658150000000  0.5914210000000  0.4905110000000 1.0
C      1  0.4342020000000  0.5375330000000  0.5838920000000 1.0
C      1  0.4342440000000  0.4461390000000  0.5743910000000 1.0
C      1  0.4341590000000  0.4085910000000  0.4905210000000 1.0
C      1  0.4342090000000  0.4624660000000  0.4161190000000 1.0
C      1  0.4342350000000  0.5538580000000  0.4256060000000 1.0
C      1  0.4341850000000  0.5914040000000  0.5094950000000 1.0
C      1  0.6205430000000  0.4712190000000  0.7324220000000 1.0
C      1  0.6205740000000  0.6867520000000  0.6411940000000 1.0
C      1  0.6206890000000  0.7156500000000  0.4089300000000 1.0
C      1  0.6205450000000  0.5287800000000  0.2675760000000 1.0
C      1  0.6205780000000  0.3132470000000  0.3588080000000 1.0
C      1  0.6206910000000  0.2843460000000  0.5910700000000 1.0
C      1  0.3794660000000  0.4712270000000  0.2675810000000 1.0
C      1  0.3794240000000  0.6867550000000  0.3588140000000 1.0
C      1  0.3793070000000  0.7156550000000  0.5910660000000 1.0
C      1  0.3794630000000  0.5287770000000  0.7324210000000 1.0
C      1  0.3794210000000  0.3132460000000  0.6411910000000 1.0
C      1  0.3793080000000  0.2843410000000  0.4089360000000 1.0
C      1  0.5518770000000  0.6095310000000  0.6689490000000 1.0
C      1  0.5520010000000  0.7011570000000  0.4896710000000 1.0
C      1  0.5521440000000  0.5916750000000  0.3205680000000 1.0
C      1  0.5518770000000  0.3904690000000  0.3310480000000 1.0
C      1  0.5520060000000  0.2988400000000  0.5103260000000 1.0
C      1  0.5521410000000  0.4083230000000  0.6794310000000 1.0
C      1  0.4481170000000  0.6095350000000  0.3310550000000 1.0
C      1  0.4479940000000  0.7011580000000  0.5103240000000 1.0
C      1  0.4478570000000  0.5916790000000  0.6794320000000 1.0
C      1  0.4481140000000  0.3904700000000  0.6689480000000 1.0
C      1  0.4480010000000  0.2988410000000  0.4896750000000 1.0
C      1  0.4478580000000  0.4083200000000  0.3205690000000 1.0
C      1  0.3559470000000  0.4553260000000  0.6812170000000 1.0
C      1  0.3557870000000  0.6346290000000  0.6291720000000 1.0
C      1  0.3558770000000  0.6792050000000  0.4480060000000 1.0
C      1  0.3559480000000  0.5446720000000  0.3187880000000 1.0
C      1  0.3557860000000  0.3653730000000  0.3708270000000 1.0
C      1  0.3558820000000  0.3208040000000  0.5519850000000 1.0
C      1  0.6440470000000  0.4553310000000  0.3187870000000 1.0
C      1  0.6442140000000  0.6346270000000  0.3708290000000 1.0
C      1  0.6441130000000  0.6791880000000  0.5519790000000 1.0
C      1  0.6440460000000  0.5446710000000  0.6812110000000 1.0
C      1  0.6442160000000  0.3653740000000  0.6291730000000 1.0
C      1  0.6441120000000  0.3208180000000  0.4480210000000 1.0
C      1  0.6937900000000  0.5711730000000  0.4300520000000 1.0
C      1  0.6937460000000  0.4749680000000  0.4033420000000 1.0
C      1  0.6937570000000  0.4038150000000  0.4733160000000 1.0
C      1  0.6937980000000  0.4288250000000  0.5699450000000 1.0
C      1  0.6937430000000  0.5250320000000  0.5966580000000 1.0
C      1  0.6938060000000  0.5961860000000  0.5266990000000 1.0
C      1  0.3062080000000  0.5711700000000  0.5699520000000 1.0
C      1  0.3062530000000  0.4749680000000  0.5966540000000 1.0
C      1  0.3062560000000  0.4038180000000  0.5266850000000 1.0
C      1  0.3062010000000  0.4288290000000  0.4300530000000 1.0
C      1  0.3062590000000  0.5250330000000  0.4033440000000 1.0
C      1  0.3062150000000  0.5961900000000  0.4733050000000 1.0
END
