TITL C-986979-5873-85 1.41501039018791e-06 3375 -377.778863278825 0 0 60 (C2) n - 1
REM
REM in /home/bkarasulu/work/CARBON/AIRSS/Generating-Clusters/REBO/Higher-Symm/Only-C60
REM
REM
REM
REM
REM
REM ./C.cell (a2850807a9bf4ad07a5b6933b78d9264)
REM AIRSS Version 0.9.1 bugfix July 2018 build 013d7b7c2542+ Fri, 06 Jul 2018 19:26:36 +0100
REM compiler GCC version 9.2.1 20190827 (Red Hat 9.2.1-1)
REM options -cpp -mtune=generic -march=x86-64 -g -O0 -fpre-include=/usr/include/finclude/math-vector-fortran.h
REM seed -1322502661 -582232230 716809191 1710378471 -398807666 1693059372 -145525854 -1716172720 167504067 -668292938 1704063363 -1372950342 1803870742 458834763 821416181 5194023 1826920661 -387083846 364847900 1546990891 1323944841 181441259 1808189271 -506983689 1713264606 -1793383857 170768206 -883396583 -2109195981 -1066270399 540450429 -1193124264 799406114
REM
CELL 1.54180   15.00000   15.00000   15.00000   90.00000   90.00000   90.00000
LATT -1
SFAC C  
C      1  0.5305040000000  0.8313780000000  0.4219610000000 1.0
C      1  0.4342430000000  0.8301080000000  0.4476010000000 1.0
C      1  0.4291050000000  0.8236340000000  0.5467860000000 1.0
C      1  0.5218590000000  0.8224520000000  0.5825350000000 1.0
C      1  0.5846380000000  0.8270360000000  0.5052210000000 1.0
C      1  0.5344690000000  0.1775560000000  0.4218550000000 1.0
C      1  0.4372960000000  0.1763490000000  0.4428020000000 1.0
C      1  0.4270060000000  0.1698740000000  0.5415840000000 1.0
C      1  0.5181330000000  0.1686290000000  0.5818290000000 1.0
C      1  0.5845120000000  0.1729860000000  0.5079630000000 1.0
C      1  0.5495160000000  0.7494180000000  0.3675660000000 1.0
C      1  0.3923850000000  0.7478840000000  0.4085050000000 1.0
C      1  0.3856480000000  0.7366400000000  0.5700900000000 1.0
C      1  0.5362470000000  0.7349590000000  0.6288910000000 1.0
C      1  0.6380070000000  0.7423930000000  0.5036470000000 1.0
C      1  0.5558430000000  0.2650540000000  0.3782860000000 1.0
C      1  0.3979520000000  0.2633310000000  0.4130440000000 1.0
C      1  0.3795740000000  0.2520860000000  0.5737220000000 1.0
C      1  0.5284650000000  0.2505930000000  0.6385110000000 1.0
C      1  0.6369700000000  0.2576440000000  0.5177850000000 1.0
C      1  0.4103690000000  0.4459290000000  0.5009950000000 1.0
C      1  0.4617130000000  0.4318550000000  0.5898780000000 1.0
C      1  0.5621110000000  0.4439100000000  0.5685950000000 1.0
C      1  0.5777220000000  0.4486120000000  0.4640240000000 1.0
C      1  0.4814660000000  0.4603080000000  0.4218060000000 1.0
C      1  0.4115910000000  0.5540480000000  0.4851290000000 1.0
C      1  0.4695640000000  0.5396850000000  0.5743780000000 1.0
C      1  0.5711960000000  0.5514080000000  0.5475820000000 1.0
C      1  0.5719740000000  0.5561080000000  0.4418560000000 1.0
C      1  0.4760830000000  0.5681370000000  0.4052740000000 1.0
C      1  0.4361190000000  0.2907260000000  0.6483270000000 1.0
C      1  0.6122900000000  0.2981490000000  0.6069680000000 1.0
C      1  0.6329470000000  0.3048430000000  0.4289800000000 1.0
C      1  0.4684120000000  0.3116440000000  0.3594920000000 1.0
C      1  0.3472310000000  0.3012990000000  0.4912550000000 1.0
C      1  0.4469730000000  0.6883450000000  0.6339130000000 1.0
C      1  0.6202850000000  0.6951910000000  0.5907570000000 1.0
C      1  0.6274540000000  0.7018830000000  0.4117180000000 1.0
C      1  0.4598160000000  0.7092600000000  0.3435620000000 1.0
C      1  0.3476680000000  0.6986610000000  0.4849650000000 1.0
C      1  0.4448540000000  0.4609410000000  0.2652630000000 1.0
C      1  0.2533030000000  0.4535600000000  0.4816630000000 1.0
C      1  0.4029960000000  0.4468140000000  0.7335610000000 1.0
C      1  0.6887030000000  0.4513000000000  0.6622250000000 1.0
C      1  0.7113820000000  0.4563340000000  0.3781130000000 1.0
C      1  0.4403410000000  0.5531650000000  0.2542290000000 1.0
C      1  0.2534290000000  0.5463740000000  0.4798910000000 1.0
C      1  0.4091390000000  0.5390390000000  0.7233570000000 1.0
C      1  0.6899320000000  0.5437200000000  0.6531660000000 1.0
C      1  0.7115460000000  0.5487530000000  0.3689710000000 1.0
C      1  0.6357330000000  0.6017860000000  0.6014660000000 1.0
C      1  0.6442280000000  0.6079660000000  0.4001480000000 1.0
C      1  0.4556050000000  0.6158970000000  0.3237800000000 1.0
C      1  0.3278100000000  0.6050380000000  0.4826630000000 1.0
C      1  0.4391530000000  0.5943680000000  0.6522570000000 1.0
C      1  0.6270440000000  0.3920700000000  0.6209950000000 1.0
C      1  0.6498420000000  0.3982520000000  0.4207920000000 1.0
C      1  0.4635040000000  0.4056190000000  0.3401560000000 1.0
C      1  0.3272310000000  0.3949150000000  0.4904500000000 1.0
C      1  0.4288690000000  0.3840880000000  0.6672170000000 1.0
END
