TITL C-986979-5873-1162 -0.0027036305916944 3375 -329.01108857825 0 0 60 (C3) n - 1
REM
REM in /home/bkarasulu/work/CARBON/AIRSS/Generating-Clusters/REBO/Higher-Symm/Only-C60
REM
REM
REM
REM
REM
REM ./C.cell (a2850807a9bf4ad07a5b6933b78d9264)
REM AIRSS Version 0.9.1 bugfix July 2018 build 013d7b7c2542+ Fri, 06 Jul 2018 19:26:36 +0100
REM compiler GCC version 9.2.1 20190827 (Red Hat 9.2.1-1)
REM options -cpp -mtune=generic -march=x86-64 -g -O0 -fpre-include=/usr/include/finclude/math-vector-fortran.h
REM seed 1394446069 737854671 -1216393388 1329621143 2004788048 -1323079608 781675864 366401171 611723040 1189625052 -940494302 1009659702 907523207 -841970526 -1970845079 36334063 -218114681 1845268331 1877827416 613162965 1802818928 653956089 -805599086 14003532 -655481207 1101821951 777942547 2098802240 -1485205232 -1793064495 1155809807 -1437364856 1987687814
REM
CELL 1.54180   15.00000   15.00000   15.00000   90.00000   90.00000   90.00000
LATT -1
SFAC C  
C      1  0.5373220000000  0.5819610000000  0.5445130000000 1.0
C      1  0.5523190000000  0.4266970000000  0.5445130000000 1.0
C      1  0.4103580000000  0.4913420000000  0.5445130000000 1.0
C      1  0.6963400000000  0.4915550000000  0.5614160000000 1.0
C      1  0.3945160000000  0.3341870000000  0.5614160000000 1.0
C      1  0.4091430000000  0.6742580000000  0.5614160000000 1.0
C      1  0.4797170000000  0.7244680000000  0.4936230000000 1.0
C      1  0.7045370000000  0.4053320000000  0.4936230000000 1.0
C      1  0.3157470000000  0.3702000000000  0.4936230000000 1.0
C      1  0.5479540000000  0.4579330000000  0.2656010000000 1.0
C      1  0.4395910000000  0.4795050000000  0.2656000000000 1.0
C      1  0.5124560000000  0.5625630000000  0.2655980000000 1.0
C      1  0.4187930000000  0.4956850000000  0.7173960000000 1.0
C      1  0.5368680000000  0.5724880000000  0.7173960000000 1.0
C      1  0.5443410000000  0.4318280000000  0.7173960000000 1.0
C      1  0.6396530000000  0.5802380000000  0.5548390000000 1.0
C      1  0.4996600000000  0.3389370000000  0.5548370000000 1.0
C      1  0.3606870000000  0.5808260000000  0.5548360000000 1.0
C      1  0.4234350000000  0.5386470000000  0.3614590000000 1.0
C      1  0.5717570000000  0.5469750000000  0.3614530000000 1.0
C      1  0.5048070000000  0.4143690000000  0.3614550000000 1.0
C      1  0.5133890000000  0.7015460000000  0.5981950000000 1.0
C      1  0.6678490000000  0.3876310000000  0.5981940000000 1.0
C      1  0.3187620000000  0.4108220000000  0.5981950000000 1.0
C      1  0.3935630000000  0.4124280000000  0.3340130000000 1.0
C      1  0.4773770000000  0.6359680000000  0.3340110000000 1.0
C      1  0.6290590000000  0.4516110000000  0.3340130000000 1.0
C      1  0.6635510000000  0.5999910000000  0.3593950000000 1.0
C      1  0.5048190000000  0.3083640000000  0.3593950000000 1.0
C      1  0.3316290000000  0.5916440000000  0.3593950000000 1.0
C      1  0.2698410000000  0.4395330000000  0.4395170000000 1.0
C      1  0.5627140000000  0.7295570000000  0.4395170000000 1.0
C      1  0.6674460000000  0.3309090000000  0.4395170000000 1.0
C      1  0.5361660000000  0.2902030000000  0.6449430000000 1.0
C      1  0.3002280000000  0.5735780000000  0.6449430000000 1.0
C      1  0.6636060000000  0.6362190000000  0.6449430000000 1.0
C      1  0.3068500000000  0.6032990000000  0.4614960000000 1.0
C      1  0.6860350000000  0.6156230000000  0.4614960000000 1.0
C      1  0.5071150000000  0.2810780000000  0.4614950000000 1.0
C      1  0.4146340000000  0.6410740000000  0.4502360000000 1.0
C      1  0.6648560000000  0.5033910000000  0.4502340000000 1.0
C      1  0.4205090000000  0.3555340000000  0.4502350000000 1.0
C      1  0.6209830000000  0.2969070000000  0.5889900000000 1.0
C      1  0.2636250000000  0.4967720000000  0.5889910000000 1.0
C      1  0.6153920000000  0.7063190000000  0.5889900000000 1.0
C      1  0.5109590000000  0.5811750000000  0.4514950000000 1.0
C      1  0.5648190000000  0.4499210000000  0.4514930000000 1.0
C      1  0.4242210000000  0.4689070000000  0.4514910000000 1.0
C      1  0.3836810000000  0.6147120000000  0.6808770000000 1.0
C      1  0.6575030000000  0.5433780000000  0.6808760000000 1.0
C      1  0.4588150000000  0.3419080000000  0.6808770000000 1.0
C      1  0.6082960000000  0.2799000000000  0.4944370000000 1.0
C      1  0.2552400000000  0.5162620000000  0.4944370000000 1.0
C      1  0.6364640000000  0.7038370000000  0.4944370000000 1.0
C      1  0.3071350000000  0.4296360000000  0.3535870000000 1.0
C      1  0.5354950000000  0.7022080000000  0.3535870000000 1.0
C      1  0.6573690000000  0.3681570000000  0.3535870000000 1.0
C      1  0.5977400000000  0.4592860000000  0.6439840000000 1.0
C      1  0.4158720000000  0.4357120000000  0.6439840000000 1.0
C      1  0.4863890000000  0.6050020000000  0.6439840000000 1.0
END
