TITL C-986976-6631-1109 0.000535234046545789 3375 -341.011167593487 0 0 60 (S10) n - 1
REM
REM in /home/bkarasulu/work/CARBON/AIRSS/Generating-Clusters/REBO/Higher-Symm/Only-C60
REM
REM
REM
REM
REM
REM ./C.cell (a2850807a9bf4ad07a5b6933b78d9264)
REM AIRSS Version 0.9.1 bugfix July 2018 build 013d7b7c2542+ Fri, 06 Jul 2018 19:26:36 +0100
REM compiler GCC version 9.2.1 20190827 (Red Hat 9.2.1-1)
REM options -cpp -mtune=generic -march=x86-64 -g -O0 -fpre-include=/usr/include/finclude/math-vector-fortran.h
REM seed -1412737013 1174264080 530042268 -580626006 219914224 -1879397302 1717514773 -1247904893 -1623369997 1926253852 -2090501755 -543119784 1759403730 104554435 1777328570 1826491423 374084011 -692007621 -1113210323 282313675 1396244476 1790204074 961145168 -1611234161 434171675 490629123 -390916191 783081740 -1244408171 817355890 -67330816 -1323592340 659949033
REM
CELL 1.54180   15.00000   15.00000   15.00000   90.00000   90.00000   90.00000
LATT -1
SFAC C  
C      1  0.2988980000000  0.4114980000000  0.5388240000000 1.0
C      1  0.3601250000000  0.5885020000000  0.6496130000000 1.0
C      1  0.4747800000000  0.4114990000000  0.7032570000000 1.0
C      1  0.5990660000000  0.5885030000000  0.6792620000000 1.0
C      1  0.6855150000000  0.4114990000000  0.5867960000000 1.0
C      1  0.7011020000000  0.5885020000000  0.4611760000000 1.0
C      1  0.6398750000000  0.4114980000000  0.3503880000000 1.0
C      1  0.5252200000000  0.5885010000000  0.2967440000000 1.0
C      1  0.4009340000000  0.4114970000000  0.3207380000000 1.0
C      1  0.3144850000000  0.5885010000000  0.4132040000000 1.0
C      1  0.6284280000000  0.6569480000000  0.6043920000000 1.0
C      1  0.6652620000000  0.3430530000000  0.5089680000000 1.0
C      1  0.6389700000000  0.6569470000000  0.4101150000000 1.0
C      1  0.5595980000000  0.3430520000000  0.3455990000000 1.0
C      1  0.4574590000000  0.6569460000000  0.3400550000000 1.0
C      1  0.3715720000000  0.3430520000000  0.3956080000000 1.0
C      1  0.3347380000000  0.6569470000000  0.4910320000000 1.0
C      1  0.3610300000000  0.3430530000000  0.5898850000000 1.0
C      1  0.4404020000000  0.6569480000000  0.6544010000000 1.0
C      1  0.5425410000000  0.3430540000000  0.6599450000000 1.0
C      1  0.6346510000000  0.3920000000000  0.6705170000000 1.0
C      1  0.7091610000000  0.6080020000000  0.5588050000000 1.0
C      1  0.7037810000000  0.3919990000000  0.4246330000000 1.0
C      1  0.6205610000000  0.6080000000000  0.3192460000000 1.0
C      1  0.4912930000000  0.3919980000000  0.2829040000000 1.0
C      1  0.3653490000000  0.6080000000000  0.3294830000000 1.0
C      1  0.2908390000000  0.3919980000000  0.4411950000000 1.0
C      1  0.2962190000000  0.6080010000000  0.5753670000000 1.0
C      1  0.3794390000000  0.3920000000000  0.6807540000000 1.0
C      1  0.5087070000000  0.6080030000000  0.7170960000000 1.0
C      1  0.4276930000000  0.6990400000000  0.4412970000000 1.0
C      1  0.4070000000000  0.3009600000000  0.4950100000000 1.0
C      1  0.4218260000000  0.6990410000000  0.5506260000000 1.0
C      1  0.4665150000000  0.3009610000000  0.5869080000000 1.0
C      1  0.5239920000000  0.6990410000000  0.5899900000000 1.0
C      1  0.5723070000000  0.3009600000000  0.5587030000000 1.0
C      1  0.5930000000000  0.6990400000000  0.5049900000000 1.0
C      1  0.5781740000000  0.3009590000000  0.4493740000000 1.0
C      1  0.5334850000000  0.6990400000000  0.4130920000000 1.0
C      1  0.4760080000000  0.3009590000000  0.4100100000000 1.0
C      1  0.4993190000000  0.4463050000000  0.4034670000000 1.0
C      1  0.4427080000000  0.5536940000000  0.4223020000000 1.0
C      1  0.4079810000000  0.4463050000000  0.4708170000000 1.0
C      1  0.4084010000000  0.5536940000000  0.5304780000000 1.0
C      1  0.4438100000000  0.4463060000000  0.5784980000000 1.0
C      1  0.5006810000000  0.5536950000000  0.5965330000000 1.0
C      1  0.5572920000000  0.4463060000000  0.5776980000000 1.0
C      1  0.5920190000000  0.5536950000000  0.5291830000000 1.0
C      1  0.5915990000000  0.4463060000000  0.4695220000000 1.0
C      1  0.5561900000000  0.5536940000000  0.4215020000000 1.0
C      1  0.4985520000000  0.5050570000000  0.7072860000000 1.0
C      1  0.6206690000000  0.4949460000000  0.6685490000000 1.0
C      1  0.6966930000000  0.5050560000000  0.5654320000000 1.0
C      1  0.6975880000000  0.4949450000000  0.4373220000000 1.0
C      1  0.6230110000000  0.5050550000000  0.3331530000000 1.0
C      1  0.5014480000000  0.4949430000000  0.2927140000000 1.0
C      1  0.3793310000000  0.5050540000000  0.3314510000000 1.0
C      1  0.3033070000000  0.4949440000000  0.4345680000000 1.0
C      1  0.3024120000000  0.5050550000000  0.5626780000000 1.0
C      1  0.3769890000000  0.4949450000000  0.6668470000000 1.0
END
