TITL C-986975-4297-325 0.0345293137022539 3375 -348.768594544255 0 0 60 (C1) n - 1
REM
REM in /home/bkarasulu/work/CARBON/AIRSS/Generating-Clusters/REBO/Higher-Symm/Only-C60
REM
REM
REM
REM
REM
REM ./C.cell (a2850807a9bf4ad07a5b6933b78d9264)
REM AIRSS Version 0.9.1 bugfix July 2018 build 013d7b7c2542+ Fri, 06 Jul 2018 19:26:36 +0100
REM compiler GCC version 9.2.1 20190827 (Red Hat 9.2.1-1)
REM options -cpp -mtune=generic -march=x86-64 -g -O0 -fpre-include=/usr/include/finclude/math-vector-fortran.h
REM seed 1411012270 1180881829 -1967514600 -900615073 1532528807 -1565383341 -995213262 -1145679272 -482015585 -1438842380 -1822683450 -1506307095 -1203973138 720014496 1382753654 1813010200 215719031 37457661 -1137768639 -1163217068 617209505 1864010509 -1359936347 664580432 -1303694013 -552404941 -2080033677 444568300 57699988 1448498975 -1164281790 1502194271 1741080211
REM
CELL 1.54180   15.00000   15.00000   15.00000   90.00000   90.00000   90.00000
LATT -1
SFAC C  
C      1  0.6806450000000  0.6909250000000  0.5867590000000 1.0
C      1  0.5411020000000  0.6955040000000  0.6957290000000 1.0
C      1  0.3832280000000  0.6745250000000  0.6320010000000 1.0
C      1  0.2917100000000  0.6722090000000  0.4950910000000 1.0
C      1  0.3765320000000  0.7007860000000  0.3455160000000 1.0
C      1  0.5427250000000  0.7022580000000  0.2989270000000 1.0
C      1  0.6809850000000  0.6923470000000  0.4104440000000 1.0
C      1  0.2767370000000  0.5559910000000  0.3759130000000 1.0
C      1  0.4457620000000  0.5544230000000  0.2737580000000 1.0
C      1  0.6313680000000  0.5466530000000  0.3186550000000 1.0
C      1  0.7155680000000  0.5398540000000  0.4978370000000 1.0
C      1  0.6294310000000  0.5416730000000  0.6722490000000 1.0
C      1  0.4437080000000  0.5450630000000  0.7269750000000 1.0
C      1  0.2692600000000  0.5526230000000  0.6056280000000 1.0
C      1  0.3712260000000  0.3559510000000  0.4912030000000 1.0
C      1  0.4124540000000  0.3495480000000  0.4001810000000 1.0
C      1  0.5061260000000  0.3388650000000  0.3699180000000 1.0
C      1  0.5883370000000  0.3376700000000  0.4396510000000 1.0
C      1  0.5890840000000  0.3312820000000  0.5494360000000 1.0
C      1  0.5048030000000  0.3369290000000  0.6132090000000 1.0
C      1  0.4113470000000  0.3491780000000  0.5824300000000 1.0
C      1  0.4489480000000  0.7560480000000  0.6691560000000 1.0
C      1  0.4068500000000  0.6477530000000  0.5287210000000 1.0
C      1  0.3826850000000  0.7182670000000  0.4508070000000 1.0
C      1  0.4512110000000  0.7693590000000  0.2957720000000 1.0
C      1  0.6205460000000  0.7634560000000  0.3492200000000 1.0
C      1  0.7053590000000  0.7572970000000  0.4992970000000 1.0
C      1  0.6222070000000  0.7596610000000  0.6533110000000 1.0
C      1  0.4528150000000  0.6391150000000  0.2978200000000 1.0
C      1  0.6256400000000  0.6342280000000  0.3329590000000 1.0
C      1  0.7006850000000  0.6272270000000  0.4980080000000 1.0
C      1  0.6240450000000  0.6295620000000  0.6602100000000 1.0
C      1  0.4528290000000  0.6298320000000  0.7022670000000 1.0
C      1  0.2912100000000  0.6394480000000  0.5916950000000 1.0
C      1  0.2927500000000  0.6434300000000  0.3917180000000 1.0
C      1  0.4803620000000  0.2100880000000  0.5803850000000 1.0
C      1  0.4637110000000  0.1691030000000  0.4811170000000 1.0
C      1  0.5370700000000  0.2167830000000  0.4168020000000 1.0
C      1  0.6299070000000  0.2078790000000  0.4276460000000 1.0
C      1  0.6744480000000  0.2009530000000  0.5074570000000 1.0
C      1  0.6446350000000  0.1972050000000  0.5937720000000 1.0
C      1  0.5599910000000  0.1992760000000  0.6288920000000 1.0
C      1  0.3744950000000  0.4253970000000  0.3478290000000 1.0
C      1  0.5285450000000  0.4154480000000  0.3110630000000 1.0
C      1  0.6517200000000  0.4138470000000  0.4144550000000 1.0
C      1  0.6508490000000  0.4093380000000  0.5755900000000 1.0
C      1  0.5254360000000  0.4109870000000  0.6754720000000 1.0
C      1  0.3722290000000  0.4235710000000  0.6360970000000 1.0
C      1  0.3077470000000  0.4329860000000  0.4912660000000 1.0
C      1  0.3061230000000  0.4706390000000  0.4007800000000 1.0
C      1  0.4456330000000  0.4638510000000  0.2933560000000 1.0
C      1  0.6142380000000  0.4566140000000  0.3362530000000 1.0
C      1  0.6878370000000  0.4510490000000  0.4960180000000 1.0
C      1  0.6116890000000  0.4520910000000  0.6533180000000 1.0
C      1  0.4420080000000  0.4576770000000  0.6954450000000 1.0
C      1  0.3035660000000  0.4684530000000  0.5826680000000 1.0
C      1  0.4443020000000  0.5578590000000  0.5119570000000 1.0
C      1  0.4998680000000  0.3902060000000  0.4918990000000 1.0
C      1  0.4689920000000  0.4804980000000  0.5013570000000 1.0
C      1  0.4805930000000  0.2809340000000  0.4916630000000 1.0
END
