TITL C-986978-6805-353 -0.0118669644267719 3375 -342.424151751401 0 0 60 (C1) n - 1
REM
REM in /home/bkarasulu/work/CARBON/AIRSS/Generating-Clusters/REBO/Higher-Symm/Only-C60
REM
REM
REM
REM
REM
REM ./C.cell (a2850807a9bf4ad07a5b6933b78d9264)
REM AIRSS Version 0.9.1 bugfix July 2018 build 013d7b7c2542+ Fri, 06 Jul 2018 19:26:36 +0100
REM compiler GCC version 9.2.1 20190827 (Red Hat 9.2.1-1)
REM options -cpp -mtune=generic -march=x86-64 -g -O0 -fpre-include=/usr/include/finclude/math-vector-fortran.h
REM seed -2062132532 364285978 -2105540282 -836606362 980449387 -207892292 -243435564 1337926370 -1513114129 -1417090169 -2074307635 -669243020 1618780307 -1171352725 145422524 -1633973799 1744230345 -897582262 2095336904 -1179676817 -1614123666 -1750174964 -2069600440 684597090 -895680147 -1025928414 -862583358 862948461 -320193285 -374038965 -369701297 1121106980 1668775305
REM
CELL 1.54180   15.00000   15.00000   15.00000   90.00000   90.00000   90.00000
LATT -1
SFAC C  
C      1  0.6898450000000  0.6320910000000  0.5483140000000 1.0
C      1  0.3088210000000  0.6365270000000  0.4512740000000 1.0
C      1  0.6898110000000  0.3680250000000  0.5492960000000 1.0
C      1  0.3116320000000  0.3726120000000  0.4511100000000 1.0
C      1  0.6895600000000  0.6311980000000  0.4506820000000 1.0
C      1  0.3087530000000  0.6365850000000  0.5484210000000 1.0
C      1  0.6901390000000  0.3672290000000  0.4518930000000 1.0
C      1  0.3116380000000  0.3725360000000  0.5488990000000 1.0
C      1  0.6332800000000  0.4517790000000  0.3109400000000 1.0
C      1  0.3709780000000  0.4454210000000  0.6964360000000 1.0
C      1  0.6304750000000  0.5524140000000  0.3065270000000 1.0
C      1  0.3655790000000  0.5457630000000  0.6860810000000 1.0
C      1  0.6321240000000  0.4500200000000  0.6912020000000 1.0
C      1  0.3711040000000  0.4451720000000  0.3035240000000 1.0
C      1  0.6316300000000  0.5508410000000  0.6915010000000 1.0
C      1  0.3654930000000  0.5455900000000  0.3140410000000 1.0
C      1  0.4483930000000  0.5855720000000  0.5898830000000 1.0
C      1  0.5532330000000  0.5839700000000  0.4101670000000 1.0
C      1  0.4467210000000  0.4158350000000  0.5910580000000 1.0
C      1  0.5515870000000  0.4140990000000  0.4089850000000 1.0
C      1  0.4484750000000  0.5857370000000  0.4099470000000 1.0
C      1  0.5530050000000  0.5840120000000  0.5894840000000 1.0
C      1  0.4466880000000  0.4159990000000  0.4091310000000 1.0
C      1  0.5517710000000  0.4141570000000  0.5913180000000 1.0
C      1  0.6913710000000  0.5506240000000  0.3917830000000 1.0
C      1  0.3039540000000  0.5544310000000  0.6022870000000 1.0
C      1  0.6941050000000  0.4475650000000  0.3953310000000 1.0
C      1  0.3104530000000  0.4516620000000  0.6103230000000 1.0
C      1  0.6926980000000  0.5519310000000  0.6066420000000 1.0
C      1  0.3038690000000  0.5544320000000  0.3978170000000 1.0
C      1  0.6928760000000  0.4487410000000  0.6061780000000 1.0
C      1  0.3105690000000  0.4515660000000  0.3896510000000 1.0
C      1  0.6296560000000  0.6841470000000  0.3703140000000 1.0
C      1  0.3702600000000  0.6850640000000  0.6288200000000 1.0
C      1  0.6309710000000  0.3147440000000  0.3720960000000 1.0
C      1  0.3688750000000  0.3158660000000  0.6287020000000 1.0
C      1  0.6298360000000  0.6838310000000  0.6294540000000 1.0
C      1  0.3701750000000  0.6853070000000  0.3714070000000 1.0
C      1  0.6308990000000  0.3144770000000  0.6279820000000 1.0
C      1  0.3689330000000  0.3161500000000  0.3711320000000 1.0
C      1  0.5677060000000  0.3154560000000  0.4554830000000 1.0
C      1  0.4318140000000  0.3158420000000  0.5445940000000 1.0
C      1  0.5678230000000  0.6844070000000  0.4553280000000 1.0
C      1  0.4326520000000  0.6847430000000  0.5445980000000 1.0
C      1  0.5677640000000  0.3154150000000  0.5445570000000 1.0
C      1  0.4318190000000  0.3159200000000  0.4553560000000 1.0
C      1  0.5676800000000  0.6843770000000  0.5446140000000 1.0
C      1  0.4326660000000  0.6848100000000  0.4554500000000 1.0
C      1  0.5594480000000  0.3714710000000  0.3038350000000 1.0
C      1  0.4455550000000  0.3680990000000  0.6951690000000 1.0
C      1  0.5539070000000  0.6287750000000  0.3051320000000 1.0
C      1  0.4409710000000  0.6256280000000  0.6957320000000 1.0
C      1  0.5589670000000  0.3704510000000  0.6962730000000 1.0
C      1  0.4460940000000  0.3683640000000  0.3050140000000 1.0
C      1  0.5545470000000  0.6278960000000  0.6947190000000 1.0
C      1  0.4403900000000  0.6257820000000  0.3041250000000 1.0
C      1  0.5813400000000  0.4988260000000  0.4534730000000 1.0
C      1  0.4186440000000  0.5005440000000  0.5465240000000 1.0
C      1  0.4186520000000  0.5006200000000  0.4534780000000 1.0
C      1  0.5813250000000  0.4988560000000  0.5465160000000 1.0
END
