TITL C-986973-6940-844 -2.14051471977447e-05 3375 -358.198222591089 0 0 60 (D2h) n - 1
REM
REM in /home/bkarasulu/work/CARBON/AIRSS/Generating-Clusters/REBO/Higher-Symm/Only-C60
REM
REM
REM
REM
REM
REM ./C.cell (a2850807a9bf4ad07a5b6933b78d9264)
REM AIRSS Version 0.9.1 bugfix July 2018 build 013d7b7c2542+ Fri, 06 Jul 2018 19:26:36 +0100
REM compiler GCC version 9.2.1 20190827 (Red Hat 9.2.1-1)
REM options -cpp -mtune=generic -march=x86-64 -g -O0 -fpre-include=/usr/include/finclude/math-vector-fortran.h
REM seed -152660398 -27337518 -1214593300 402626079 1089977719 1394207032 -805982577 -12752778 918121562 -1717338567 -807100681 1484503085 -273508379 -876827811 787050574 1218856285 -788905020 73928020 652820543 -1463843073 654950913 1788881767 1494240728 -1498150431 1705658122 -1470573320 -788089730 -1313430931 -1753805628 1211676195 -222426443 528730657 -1235045624
REM
CELL 1.54180   15.00000   15.00000   15.00000   90.00000   90.00000   90.00000
LATT -1
SFAC C  
C      1  0.7498290000000  0.5874270000000  0.4534500000000 1.0
C      1  0.2501710000000  0.5874270000000  0.5465500000000 1.0
C      1  0.7498290000000  0.4125730000000  0.4534500000000 1.0
C      1  0.2501710000000  0.4125730000000  0.5465500000000 1.0
C      1  0.2501710000000  0.5874270000000  0.4534500000000 1.0
C      1  0.7498290000000  0.5874270000000  0.5465500000000 1.0
C      1  0.2501710000000  0.4125730000000  0.4534500000000 1.0
C      1  0.7498290000000  0.4125730000000  0.5465500000000 1.0
C      1  0.6066020000000  0.5448780000000  0.2915630000000 1.0
C      1  0.3933980000000  0.5448780000000  0.7084370000000 1.0
C      1  0.6066020000000  0.4551220000000  0.2915630000000 1.0
C      1  0.3933980000000  0.4551220000000  0.7084370000000 1.0
C      1  0.3933980000000  0.5448780000000  0.2915630000000 1.0
C      1  0.6066020000000  0.5448780000000  0.7084370000000 1.0
C      1  0.3933980000000  0.4551220000000  0.2915630000000 1.0
C      1  0.6066020000000  0.4551220000000  0.7084370000000 1.0
C      1  0.5521030000000  0.3125880000000  0.3994560000000 1.0
C      1  0.4478970000000  0.3125880000000  0.6005440000000 1.0
C      1  0.5521030000000  0.6874120000000  0.3994560000000 1.0
C      1  0.4478970000000  0.6874120000000  0.6005440000000 1.0
C      1  0.4478970000000  0.3125880000000  0.3994560000000 1.0
C      1  0.5521030000000  0.3125880000000  0.6005440000000 1.0
C      1  0.4478970000000  0.6874120000000  0.3994560000000 1.0
C      1  0.5521030000000  0.6874120000000  0.6005440000000 1.0
C      1  0.3283310000000  0.4522390000000  0.5857630000000 1.0
C      1  0.6716690000000  0.4522390000000  0.4142370000000 1.0
C      1  0.3283310000000  0.5477610000000  0.5857630000000 1.0
C      1  0.6716690000000  0.5477610000000  0.4142370000000 1.0
C      1  0.6716690000000  0.4522390000000  0.5857630000000 1.0
C      1  0.3283310000000  0.4522390000000  0.4142370000000 1.0
C      1  0.6716690000000  0.5477610000000  0.5857630000000 1.0
C      1  0.3283310000000  0.5477610000000  0.4142370000000 1.0
C      1  0.4132930000000  0.5952500000000  0.5539250000000 1.0
C      1  0.5867070000000  0.5952500000000  0.4460750000000 1.0
C      1  0.4132930000000  0.4047500000000  0.5539250000000 1.0
C      1  0.5867070000000  0.4047500000000  0.4460750000000 1.0
C      1  0.5867070000000  0.5952500000000  0.5539250000000 1.0
C      1  0.4132930000000  0.5952500000000  0.4460750000000 1.0
C      1  0.5867070000000  0.4047500000000  0.5539250000000 1.0
C      1  0.4132930000000  0.4047500000000  0.4460750000000 1.0
C      1  0.4065510000000  0.6295150000000  0.6823750000000 1.0
C      1  0.5934490000000  0.6295150000000  0.3176250000000 1.0
C      1  0.4065510000000  0.3704850000000  0.6823750000000 1.0
C      1  0.5934490000000  0.3704850000000  0.3176250000000 1.0
C      1  0.5934490000000  0.6295150000000  0.6823750000000 1.0
C      1  0.4065510000000  0.6295150000000  0.3176250000000 1.0
C      1  0.5934490000000  0.3704850000000  0.6823750000000 1.0
C      1  0.4065510000000  0.3704850000000  0.3176250000000 1.0
C      1  0.4109900000000  0.7639780000000  0.5419670000000 1.0
C      1  0.5890100000000  0.7639780000000  0.4580330000000 1.0
C      1  0.4109900000000  0.2360220000000  0.5419670000000 1.0
C      1  0.5890100000000  0.2360220000000  0.4580330000000 1.0
C      1  0.5890100000000  0.7639780000000  0.5419670000000 1.0
C      1  0.4109900000000  0.7639780000000  0.4580330000000 1.0
C      1  0.5890100000000  0.2360220000000  0.5419670000000 1.0
C      1  0.4109900000000  0.2360220000000  0.4580330000000 1.0
C      1  0.5000000000000  0.4567760000000  0.5666550000000 1.0
C      1  0.5000000000000  0.5432240000000  0.4333450000000 1.0
C      1  0.5000000000000  0.4567760000000  0.4333450000000 1.0
C      1  0.5000000000000  0.5432240000000  0.5666550000000 1.0
END
