TITL C-986979-5873-235 9.34422357122956e-06 3375 -346.7946369328 0 0 60 (C2) n - 1
REM
REM in /home/bkarasulu/work/CARBON/AIRSS/Generating-Clusters/REBO/Higher-Symm/Only-C60
REM
REM
REM
REM
REM
REM ./C.cell (a2850807a9bf4ad07a5b6933b78d9264)
REM AIRSS Version 0.9.1 bugfix July 2018 build 013d7b7c2542+ Fri, 06 Jul 2018 19:26:36 +0100
REM compiler GCC version 9.2.1 20190827 (Red Hat 9.2.1-1)
REM options -cpp -mtune=generic -march=x86-64 -g -O0 -fpre-include=/usr/include/finclude/math-vector-fortran.h
REM seed 2101080334 369279828 -1782477284 160272664 -1279418779 -116847586 -334333510 627664992 747012060 62633767 691936871 -931128387 -1963906043 566913125 619408945 -688859605 -564858305 704488295 -1629174759 -2140099716 -1916856840 19282390 -158563619 -942256793 -2076707074 777171412 -940370118 1368489386 -1843504672 -1990721052 -1370667130 47377393 -467121811
REM
CELL 1.54180   15.00000   15.00000   15.00000   90.00000   90.00000   90.00000
LATT -1
SFAC C  
C      1  0.3886910000000  0.5304520000000  0.7078250000000 1.0
C      1  0.3978750000000  0.2822930000000  0.5106100000000 1.0
C      1  0.3886910000000  0.4695480000000  0.2921760000000 1.0
C      1  0.3978690000000  0.7177070000000  0.4893920000000 1.0
C      1  0.4085660000000  0.6501410000000  0.3380910000000 1.0
C      1  0.4053360000000  0.6556230000000  0.6652240000000 1.0
C      1  0.4085730000000  0.3498610000000  0.6619100000000 1.0
C      1  0.4053360000000  0.3443770000000  0.3347750000000 1.0
C      1  0.4877100000000  0.3415530000000  0.3246680000000 1.0
C      1  0.4892540000000  0.6655300000000  0.3394690000000 1.0
C      1  0.4877090000000  0.6584470000000  0.6753300000000 1.0
C      1  0.4892610000000  0.3344750000000  0.6605330000000 1.0
C      1  0.7165110000000  0.6388470000000  0.5177910000000 1.0
C      1  0.7165880000000  0.4827640000000  0.6334050000000 1.0
C      1  0.7165120000000  0.3611510000000  0.4822050000000 1.0
C      1  0.7165780000000  0.5172370000000  0.3665950000000 1.0
C      1  0.3360640000000  0.6117510000000  0.5979860000000 1.0
C      1  0.3250190000000  0.4065700000000  0.6255510000000 1.0
C      1  0.3360670000000  0.3882480000000  0.4020150000000 1.0
C      1  0.3250150000000  0.5934290000000  0.3744500000000 1.0
C      1  0.6561990000000  0.6101510000000  0.3515810000000 1.0
C      1  0.6525530000000  0.6502700000000  0.6096280000000 1.0
C      1  0.6562050000000  0.3898530000000  0.6484170000000 1.0
C      1  0.6525510000000  0.3497240000000  0.3903710000000 1.0
C      1  0.2809410000000  0.5166110000000  0.5663690000000 1.0
C      1  0.2836220000000  0.4119840000000  0.5217670000000 1.0
C      1  0.2809410000000  0.4833870000000  0.4336320000000 1.0
C      1  0.2836190000000  0.5880140000000  0.4782340000000 1.0
C      1  0.6272590000000  0.5443430000000  0.2716870000000 1.0
C      1  0.6218220000000  0.7289010000000  0.5431950000000 1.0
C      1  0.6272670000000  0.4556610000000  0.7283120000000 1.0
C      1  0.6218220000000  0.2710970000000  0.4568060000000 1.0
C      1  0.4541930000000  0.4667370000000  0.3549270000000 1.0
C      1  0.4588490000000  0.6537170000000  0.4685860000000 1.0
C      1  0.4541930000000  0.5332620000000  0.6450740000000 1.0
C      1  0.4588530000000  0.3462830000000  0.5314170000000 1.0
C      1  0.4085170000000  0.4372340000000  0.5611980000000 1.0
C      1  0.4087140000000  0.4523910000000  0.4542910000000 1.0
C      1  0.4085120000000  0.5627670000000  0.4388030000000 1.0
C      1  0.4087130000000  0.5476110000000  0.5457110000000 1.0
C      1  0.5963600000000  0.7256470000000  0.4643480000000 1.0
C      1  0.5989250000000  0.5334570000000  0.7247880000000 1.0
C      1  0.5963640000000  0.2743530000000  0.5356550000000 1.0
C      1  0.5989240000000  0.4665440000000  0.2752120000000 1.0
C      1  0.7167840000000  0.4357820000000  0.3729980000000 1.0
C      1  0.7205330000000  0.6298080000000  0.4365460000000 1.0
C      1  0.7167970000000  0.5642190000000  0.6269980000000 1.0
C      1  0.7205360000000  0.3701950000000  0.5634500000000 1.0
C      1  0.3175460000000  0.3157380000000  0.4790880000000 1.0
C      1  0.3081000000000  0.5011450000000  0.3243640000000 1.0
C      1  0.3175400000000  0.6842600000000  0.5209140000000 1.0
C      1  0.3081010000000  0.4988540000000  0.6756370000000 1.0
C      1  0.5374540000000  0.5721030000000  0.4709950000000 1.0
C      1  0.5379470000000  0.5284630000000  0.5702020000000 1.0
C      1  0.5374580000000  0.4278970000000  0.5290030000000 1.0
C      1  0.5379480000000  0.4715350000000  0.4297960000000 1.0
C      1  0.5698850000000  0.5988120000000  0.6487700000000 1.0
C      1  0.5721780000000  0.3525620000000  0.6002570000000 1.0
C      1  0.5698850000000  0.4011870000000  0.3512280000000 1.0
C      1  0.5721730000000  0.6474410000000  0.3997430000000 1.0
END
