TITL C-986976-6631-531 4.25423367602188e-06 3375 -333.142170892332 0 0 60 (C2) n - 1
REM
REM in /home/bkarasulu/work/CARBON/AIRSS/Generating-Clusters/REBO/Higher-Symm/Only-C60
REM
REM
REM
REM
REM
REM ./C.cell (a2850807a9bf4ad07a5b6933b78d9264)
REM AIRSS Version 0.9.1 bugfix July 2018 build 013d7b7c2542+ Fri, 06 Jul 2018 19:26:36 +0100
REM compiler GCC version 9.2.1 20190827 (Red Hat 9.2.1-1)
REM options -cpp -mtune=generic -march=x86-64 -g -O0 -fpre-include=/usr/include/finclude/math-vector-fortran.h
REM seed -178764016 -416703864 1216995552 781857436 -906529666 -533326442 -266334503 -1898022435 781420306 1714197823 -230730579 291102019 1101352259 -1268693999 873276966 1484482975 1489372668 1509880563 882825088 328420801 327739929 376099531 1703626688 1635577532 422756172 -997271849 -674658999 314203493 -1649423919 339006249 1185327068 -1236011687 -460930283
REM
CELL 1.54180   15.00000   15.00000   15.00000   90.00000   90.00000   90.00000
LATT -1
SFAC C  
C      1  0.5034060000000  0.1718840000000  0.5132960000000 1.0
C      1  0.5081840000000  0.5146850000000  0.8222070000000 1.0
C      1  0.5034060000000  0.8281160000000  0.4867040000000 1.0
C      1  0.5081840000000  0.4853150000000  0.1777930000000 1.0
C      1  0.6113800000000  0.5732270000000  0.4048020000000 1.0
C      1  0.6194160000000  0.3988400000000  0.4344230000000 1.0
C      1  0.6113800000000  0.4267730000000  0.5951990000000 1.0
C      1  0.6194160000000  0.6011600000000  0.5655770000000 1.0
C      1  0.3884620000000  0.5257040000000  0.4295310000000 1.0
C      1  0.3835180000000  0.4242850000000  0.4713280000000 1.0
C      1  0.3884620000000  0.4742960000000  0.5704690000000 1.0
C      1  0.3835190000000  0.5757150000000  0.5286720000000 1.0
C      1  0.7047500000000  0.4196910000000  0.5344880000000 1.0
C      1  0.7008030000000  0.5248310000000  0.5618120000000 1.0
C      1  0.7047500000000  0.5803090000000  0.4655120000000 1.0
C      1  0.7008030000000  0.4751690000000  0.4381880000000 1.0
C      1  0.4461170000000  0.6695760000000  0.5222020000000 1.0
C      1  0.4506480000000  0.5207170000000  0.3359770000000 1.0
C      1  0.4461170000000  0.3304240000000  0.4777980000000 1.0
C      1  0.4506480000000  0.4792830000000  0.6640230000000 1.0
C      1  0.5960140000000  0.7003570000000  0.6514080000000 1.0
C      1  0.5923660000000  0.6541030000000  0.3001510000000 1.0
C      1  0.5960140000000  0.2996430000000  0.3485920000000 1.0
C      1  0.5923660000000  0.3458970000000  0.6998490000000 1.0
C      1  0.3846890000000  0.3394950000000  0.5727940000000 1.0
C      1  0.3838590000000  0.5703670000000  0.6618020000000 1.0
C      1  0.3846890000000  0.6605050000000  0.4272050000000 1.0
C      1  0.3838590000000  0.4296330000000  0.3381980000000 1.0
C      1  0.5536230000000  0.3089120000000  0.6150990000000 1.0
C      1  0.5593430000000  0.6134700000000  0.6832740000000 1.0
C      1  0.5536230000000  0.6910880000000  0.3849010000000 1.0
C      1  0.5593430000000  0.3865300000000  0.3167260000000 1.0
C      1  0.5260850000000  0.7285620000000  0.4885300000000 1.0
C      1  0.5300430000000  0.4886430000000  0.2772840000000 1.0
C      1  0.5260850000000  0.2714380000000  0.5114700000000 1.0
C      1  0.5300430000000  0.5113570000000  0.7227160000000 1.0
C      1  0.6114450000000  0.4446790000000  0.7005430000000 1.0
C      1  0.6120490000000  0.7078000000000  0.5521680000000 1.0
C      1  0.6114450000000  0.5553210000000  0.2994570000000 1.0
C      1  0.6120490000000  0.2922000000000  0.4478320000000 1.0
C      1  0.3013210000000  0.5981940000000  0.4263370000000 1.0
C      1  0.2980400000000  0.4268730000000  0.3966660000000 1.0
C      1  0.3013210000000  0.4018060000000  0.5736630000000 1.0
C      1  0.2980400000000  0.5731270000000  0.6033340000000 1.0
C      1  0.2352870000000  0.5676250000000  0.5099950000000 1.0
C      1  0.2314360000000  0.5132640000000  0.4104600000000 1.0
C      1  0.2352870000000  0.4323750000000  0.4900050000000 1.0
C      1  0.2314360000000  0.4867350000000  0.5895390000000 1.0
C      1  0.4726950000000  0.3806500000000  0.6126540000000 1.0
C      1  0.4660570000000  0.6202320000000  0.6225140000000 1.0
C      1  0.4726950000000  0.6193500000000  0.3873460000000 1.0
C      1  0.4660570000000  0.3797680000000  0.3774860000000 1.0
C      1  0.6426110000000  0.4600480000000  0.3418860000000 1.0
C      1  0.6409980000000  0.3288660000000  0.5454830000000 1.0
C      1  0.6426100000000  0.5399520000000  0.6581140000000 1.0
C      1  0.6409980000000  0.6711340000000  0.4545170000000 1.0
C      1  0.5214210000000  0.4594950000000  0.5527230000000 1.0
C      1  0.5239350000000  0.5653000000000  0.5508490000000 1.0
C      1  0.5214210000000  0.5405050000000  0.4472770000000 1.0
C      1  0.5239350000000  0.4347000000000  0.4491510000000 1.0
END
