TITL C-986975-4297-1114 0.331307006913176 3375 -329.731800395796 0 0 60 (C2) n - 1
REM
REM in /home/bkarasulu/work/CARBON/AIRSS/Generating-Clusters/REBO/Higher-Symm/Only-C60
REM
REM
REM
REM
REM
REM ./C.cell (a2850807a9bf4ad07a5b6933b78d9264)
REM AIRSS Version 0.9.1 bugfix July 2018 build 013d7b7c2542+ Fri, 06 Jul 2018 19:26:36 +0100
REM compiler GCC version 9.2.1 20190827 (Red Hat 9.2.1-1)
REM options -cpp -mtune=generic -march=x86-64 -g -O0 -fpre-include=/usr/include/finclude/math-vector-fortran.h
REM seed 2035236501 2116028167 1301451233 1737837983 1189696507 951239376 -1100226352 -1592236362 237318834 192456454 1384299040 -942096669 1124480501 847283866 466830217 268918023 -775398791 596429684 -678864977 1816695557 -934443471 -931964623 -952825043 1337111725 2004041209 -439432177 1659855393 574331893 644168301 532680601 -585532722 -163760547 1137959386
REM
CELL 1.54180   15.00000   15.00000   15.00000   90.00000   90.00000   90.00000
LATT -1
SFAC C  
C      1  0.6961430000000  0.5402030000000  0.7624180000000 1.0
C      1  0.5552510000000  0.3395400000000  0.7757950000000 1.0
C      1  0.3038960000000  0.4585960000000  0.7622230000000 1.0
C      1  0.4455430000000  0.6607130000000  0.7760990000000 1.0
C      1  0.4252670000000  0.6634420000000  0.3703280000000 1.0
C      1  0.7100860000000  0.5533020000000  0.3487450000000 1.0
C      1  0.5751940000000  0.3374190000000  0.3702910000000 1.0
C      1  0.2904090000000  0.4462390000000  0.3483150000000 1.0
C      1  0.3014460000000  0.6052870000000  0.6825790000000 1.0
C      1  0.5784210000000  0.6934680000000  0.6814620000000 1.0
C      1  0.6981270000000  0.3941280000000  0.6824530000000 1.0
C      1  0.4221560000000  0.3068950000000  0.6817480000000 1.0
C      1  0.6317710000000  0.6006160000000  0.5061490000000 1.0
C      1  0.6403680000000  0.3581390000000  0.5231180000000 1.0
C      1  0.3671990000000  0.3990470000000  0.5060420000000 1.0
C      1  0.3593440000000  0.6425380000000  0.5223830000000 1.0
C      1  0.4534200000000  0.5663310000000  0.2287630000000 1.0
C      1  0.5537790000000  0.5381050000000  0.2257390000000 1.0
C      1  0.5470070000000  0.4330890000000  0.2285110000000 1.0
C      1  0.4467400000000  0.4617730000000  0.2265060000000 1.0
C      1  0.5539550000000  0.4104080000000  0.5560820000000 1.0
C      1  0.3786110000000  0.4980770000000  0.5376690000000 1.0
C      1  0.4453360000000  0.5899510000000  0.5562260000000 1.0
C      1  0.6214170000000  0.5019490000000  0.5378640000000 1.0
C      1  0.5039910000000  0.4342270000000  0.6504580000000 1.0
C      1  0.4123430000000  0.4940940000000  0.6411830000000 1.0
C      1  0.4960400000000  0.5661970000000  0.6505440000000 1.0
C      1  0.5877170000000  0.5059620000000  0.6410860000000 1.0
C      1  0.3099490000000  0.5445230000000  0.3873050000000 1.0
C      1  0.5197510000000  0.6500720000000  0.4117430000000 1.0
C      1  0.6901340000000  0.4558110000000  0.3874620000000 1.0
C      1  0.4795770000000  0.3511160000000  0.4119230000000 1.0
C      1  0.2871960000000  0.6452700000000  0.5973300000000 1.0
C      1  0.6025010000000  0.6772180000000  0.5859250000000 1.0
C      1  0.7127720000000  0.3543830000000  0.5973760000000 1.0
C      1  0.3973920000000  0.3238330000000  0.5864010000000 1.0
C      1  0.4924600000000  0.3569120000000  0.7112360000000 1.0
C      1  0.3374030000000  0.5198300000000  0.7023540000000 1.0
C      1  0.5082390000000  0.6434360000000  0.7113520000000 1.0
C      1  0.6625940000000  0.4796830000000  0.7019990000000 1.0
C      1  0.4206160000000  0.6367070000000  0.2800870000000 1.0
C      1  0.6225910000000  0.5846370000000  0.2849510000000 1.0
C      1  0.5790300000000  0.3609000000000  0.2784670000000 1.0
C      1  0.3777460000000  0.4148630000000  0.2847740000000 1.0
C      1  0.2381470000000  0.5884430000000  0.5326920000000 1.0
C      1  0.6083450000000  0.7102750000000  0.4800920000000 1.0
C      1  0.7617420000000  0.4109790000000  0.5324840000000 1.0
C      1  0.3907860000000  0.2895520000000  0.4809120000000 1.0
C      1  0.6470350000000  0.3649410000000  0.4265230000000 1.0
C      1  0.3712250000000  0.3797770000000  0.3941160000000 1.0
C      1  0.3538510000000  0.6357010000000  0.4259140000000 1.0
C      1  0.6291340000000  0.6202500000000  0.3929940000000 1.0
C      1  0.5127400000000  0.6564080000000  0.5187620000000 1.0
C      1  0.7067550000000  0.4680940000000  0.4881220000000 1.0
C      1  0.4860800000000  0.3438360000000  0.5178420000000 1.0
C      1  0.2932710000000  0.5321170000000  0.4880070000000 1.0
C      1  0.5048180000000  0.5564820000000  0.3668600000000 1.0
C      1  0.5944120000000  0.4899690000000  0.3433430000000 1.0
C      1  0.4950800000000  0.4442550000000  0.3659370000000 1.0
C      1  0.4056480000000  0.5099880000000  0.3439340000000 1.0
END
