TITL C-986976-6631-701 -8.05118264499896e-06 3375 -349.756017997673 0 0 60 (C2) n - 1
REM
REM in /home/bkarasulu/work/CARBON/AIRSS/Generating-Clusters/REBO/Higher-Symm/Only-C60
REM
REM
REM
REM
REM
REM ./C.cell (a2850807a9bf4ad07a5b6933b78d9264)
REM AIRSS Version 0.9.1 bugfix July 2018 build 013d7b7c2542+ Fri, 06 Jul 2018 19:26:36 +0100
REM compiler GCC version 9.2.1 20190827 (Red Hat 9.2.1-1)
REM options -cpp -mtune=generic -march=x86-64 -g -O0 -fpre-include=/usr/include/finclude/math-vector-fortran.h
REM seed -1527748014 5263926 1347286507 -673831300 -40719879 -488548118 937756464 624599293 429771688 -1766579111 578664984 -2002463488 2094871130 -590530246 1151206277 -1482964690 1822031226 732701869 -1576806217 180323219 338584389 1151350662 957360076 1891076579 1168220339 -845489627 1089603838 -1471534290 2001761822 521888402 -1228094558 75703812 533806147
REM
CELL 1.54180   15.00000   15.00000   15.00000   90.00000   90.00000   90.00000
LATT -1
SFAC C  
C      1  0.7044660000000  0.4323170000000  0.4493850000000 1.0
C      1  0.5671100000000  0.6945500000000  0.4537260000000 1.0
C      1  0.2955320000000  0.5676820000000  0.4493920000000 1.0
C      1  0.4328880000000  0.3054490000000  0.4537320000000 1.0
C      1  0.4126970000000  0.4841110000000  0.7554650000000 1.0
C      1  0.5128360000000  0.4347410000000  0.7470850000000 1.0
C      1  0.5873130000000  0.5158940000000  0.7554610000000 1.0
C      1  0.4871740000000  0.5652640000000  0.7470840000000 1.0
C      1  0.4493510000000  0.6326300000000  0.6628190000000 1.0
C      1  0.3530240000000  0.4470110000000  0.6654850000000 1.0
C      1  0.5506550000000  0.3673730000000  0.6628190000000 1.0
C      1  0.6469820000000  0.5529920000000  0.6654780000000 1.0
C      1  0.4392130000000  0.5606020000000  0.3484610000000 1.0
C      1  0.4531560000000  0.4526470000000  0.3653860000000 1.0
C      1  0.5607810000000  0.4393950000000  0.3484600000000 1.0
C      1  0.5468390000000  0.5473510000000  0.3653830000000 1.0
C      1  0.6937420000000  0.4369570000000  0.3578250000000 1.0
C      1  0.5563490000000  0.6801540000000  0.3640910000000 1.0
C      1  0.3062530000000  0.5630400000000  0.3578310000000 1.0
C      1  0.4436460000000  0.3198440000000  0.3640960000000 1.0
C      1  0.3742770000000  0.3905250000000  0.3268560000000 1.0
C      1  0.6279820000000  0.3629320000000  0.3231220000000 1.0
C      1  0.6257160000000  0.6094720000000  0.3268490000000 1.0
C      1  0.3720110000000  0.6370650000000  0.3231250000000 1.0
C      1  0.2543840000000  0.3962850000000  0.4751310000000 1.0
C      1  0.6122120000000  0.2642040000000  0.4847440000000 1.0
C      1  0.7456150000000  0.6037150000000  0.4751190000000 1.0
C      1  0.3877870000000  0.7357960000000  0.4847440000000 1.0
C      1  0.2994130000000  0.4349480000000  0.5717360000000 1.0
C      1  0.5668700000000  0.3196810000000  0.5723170000000 1.0
C      1  0.7005900000000  0.5650530000000  0.5717270000000 1.0
C      1  0.4331330000000  0.6803200000000  0.5723160000000 1.0
C      1  0.2775680000000  0.5338390000000  0.5416060000000 1.0
C      1  0.4722990000000  0.2850280000000  0.5428200000000 1.0
C      1  0.7224340000000  0.4661610000000  0.5415980000000 1.0
C      1  0.5277030000000  0.7149730000000  0.5428150000000 1.0
C      1  0.6986130000000  0.5228690000000  0.3222760000000 1.0
C      1  0.4705140000000  0.6926420000000  0.3324650000000 1.0
C      1  0.3013800000000  0.4771280000000  0.3222840000000 1.0
C      1  0.5294790000000  0.3073550000000  0.3324670000000 1.0
C      1  0.3709280000000  0.5576000000000  0.6834760000000 1.0
C      1  0.4394160000000  0.3759500000000  0.6839980000000 1.0
C      1  0.6290790000000  0.4424030000000  0.6834720000000 1.0
C      1  0.5605910000000  0.6240530000000  0.6839930000000 1.0
C      1  0.4045900000000  0.3124200000000  0.6117580000000 1.0
C      1  0.6769660000000  0.4005250000000  0.6036940000000 1.0
C      1  0.5954150000000  0.6875820000000  0.6117510000000 1.0
C      1  0.3230380000000  0.5994770000000  0.6036990000000 1.0
C      1  0.3753190000000  0.3740620000000  0.5250140000000 1.0
C      1  0.6155630000000  0.3949310000000  0.5082590000000 1.0
C      1  0.6246820000000  0.6259390000000  0.5250070000000 1.0
C      1  0.3844380000000  0.6050690000000  0.5082620000000 1.0
C      1  0.5475460000000  0.4533230000000  0.4592490000000 1.0
C      1  0.5598110000000  0.5634190000000  0.4760070000000 1.0
C      1  0.4524520000000  0.5466760000000  0.4592500000000 1.0
C      1  0.4401880000000  0.4365810000000  0.4760100000000 1.0
C      1  0.6105050000000  0.2785100000000  0.3963240000000 1.0
C      1  0.7200890000000  0.6024030000000  0.3894290000000 1.0
C      1  0.3894910000000  0.7214880000000  0.3963240000000 1.0
C      1  0.2799060000000  0.3975950000000  0.3894390000000 1.0
END
