TITL C-986973-6940-847 0.190219932017017 3375 -333.191543384354 0 0 60 (C1) n - 1
REM
REM in /home/bkarasulu/work/CARBON/AIRSS/Generating-Clusters/REBO/Higher-Symm/Only-C60
REM
REM
REM
REM
REM
REM ./C.cell (a2850807a9bf4ad07a5b6933b78d9264)
REM AIRSS Version 0.9.1 bugfix July 2018 build 013d7b7c2542+ Fri, 06 Jul 2018 19:26:36 +0100
REM compiler GCC version 9.2.1 20190827 (Red Hat 9.2.1-1)
REM options -cpp -mtune=generic -march=x86-64 -g -O0 -fpre-include=/usr/include/finclude/math-vector-fortran.h
REM seed -143533130 1364863736 2044930363 1015982107 2086247062 -162307113 -1599537862 935013108 -798790485 -728790179 -497487428 -2135501030 612994166 1707129789 2093825693 -166896850 -1874237706 1687386163 789081034 1986973501 -1343386061 1252467345 -534403059 -1987348142 -1154945402 -951938880 -887872345 562896999 -959028637 1907883707 1794836249 -2102298570 288568845
REM
CELL 1.54180   15.00000   15.00000   15.00000   90.00000   90.00000   90.00000
LATT -1
SFAC C  
C      1  0.3752700000000  0.6737140000000  0.4246250000000 1.0
C      1  0.5064860000000  0.6884710000000  0.3967760000000 1.0
C      1  0.6210350000000  0.6850470000000  0.4917400000000 1.0
C      1  0.5607510000000  0.6881590000000  0.6114900000000 1.0
C      1  0.4206540000000  0.6982120000000  0.5827790000000 1.0
C      1  0.2750940000000  0.6264240000000  0.4334150000000 1.0
C      1  0.5167990000000  0.6380540000000  0.2948950000000 1.0
C      1  0.7018450000000  0.6248640000000  0.4389990000000 1.0
C      1  0.6270980000000  0.6352070000000  0.6872860000000 1.0
C      1  0.3698810000000  0.6367440000000  0.6639130000000 1.0
C      1  0.5667030000000  0.5593810000000  0.2937040000000 1.0
C      1  0.7285300000000  0.5481770000000  0.4850740000000 1.0
C      1  0.5898770000000  0.5539990000000  0.7194200000000 1.0
C      1  0.3281380000000  0.5571230000000  0.6363260000000 1.0
C      1  0.2962030000000  0.5482640000000  0.3789150000000 1.0
C      1  0.2808090000000  0.5744340000000  0.5552170000000 1.0
C      1  0.3632670000000  0.5663690000000  0.3075570000000 1.0
C      1  0.6594330000000  0.5705820000000  0.3256110000000 1.0
C      1  0.7266930000000  0.5667210000000  0.5781400000000 1.0
C      1  0.4970990000000  0.5718120000000  0.7325480000000 1.0
C      1  0.5742390000000  0.3267240000000  0.4316150000000 1.0
C      1  0.5907210000000  0.3307440000000  0.5426950000000 1.0
C      1  0.4916840000000  0.3390060000000  0.5893430000000 1.0
C      1  0.4147310000000  0.3389570000000  0.5060360000000 1.0
C      1  0.4677250000000  0.3357160000000  0.4120740000000 1.0
C      1  0.3287480000000  0.6691910000000  0.5247390000000 1.0
C      1  0.4180330000000  0.6549270000000  0.3283820000000 1.0
C      1  0.6153460000000  0.6597560000000  0.3806570000000 1.0
C      1  0.6662680000000  0.6490080000000  0.5886560000000 1.0
C      1  0.4747750000000  0.6574650000000  0.6765720000000 1.0
C      1  0.5286880000000  0.5537560000000  0.4211200000000 1.0
C      1  0.5949760000000  0.5371720000000  0.5019500000000 1.0
C      1  0.5603790000000  0.5397820000000  0.5891910000000 1.0
C      1  0.4542250000000  0.5553460000000  0.5938400000000 1.0
C      1  0.4180900000000  0.5684060000000  0.4289240000000 1.0
C      1  0.2705270000000  0.4979030000000  0.5056020000000 1.0
C      1  0.4079220000000  0.4902370000000  0.2819250000000 1.0
C      1  0.6951440000000  0.4908570000000  0.3532100000000 1.0
C      1  0.7147750000000  0.4896530000000  0.6271040000000 1.0
C      1  0.4478660000000  0.4946590000000  0.7265980000000 1.0
C      1  0.5883330000000  0.4626080000000  0.6573910000000 1.0
C      1  0.3850040000000  0.4677680000000  0.6134580000000 1.0
C      1  0.3697020000000  0.4747700000000  0.4203140000000 1.0
C      1  0.5390590000000  0.4729890000000  0.3529430000000 1.0
C      1  0.6678790000000  0.4613180000000  0.4799030000000 1.0
C      1  0.6515920000000  0.4097750000000  0.5795810000000 1.0
C      1  0.4825750000000  0.4206950000000  0.6489970000000 1.0
C      1  0.3514890000000  0.4201700000000  0.5160270000000 1.0
C      1  0.4463750000000  0.4208320000000  0.3584500000000 1.0
C      1  0.6232190000000  0.4136510000000  0.3930180000000 1.0
C      1  0.5109890000000  0.7140900000000  0.5103010000000 1.0
C      1  0.5084000000000  0.8197430000000  0.5032490000000 1.0
C      1  0.4814980000000  0.6081190000000  0.5063230000000 1.0
C      1  0.5116970000000  0.9065260000000  0.4946450000000 1.0
C      1  0.5146310000000  0.9944070000000  0.4891820000000 1.0
C      1  0.5088450000000  0.0822261000000  0.4950100000000 1.0
C      1  0.4710960000000  0.4764740000000  0.5132820000000 1.0
C      1  0.4616180000000  0.2437610000000  0.5400840000000 1.0
C      1  0.4878740000000  0.1653800000000  0.5157140000000 1.0
C      1  0.5275580000000  0.4229350000000  0.4921550000000 1.0
END
