TITL C-986973-6940-85 0.579935665128089 3375 -339.218790972148 0 0 60 (C2) n - 1
REM
REM in /home/bkarasulu/work/CARBON/AIRSS/Generating-Clusters/REBO/Higher-Symm/Only-C60
REM
REM
REM
REM
REM
REM ./C.cell (a2850807a9bf4ad07a5b6933b78d9264)
REM AIRSS Version 0.9.1 bugfix July 2018 build 013d7b7c2542+ Fri, 06 Jul 2018 19:26:36 +0100
REM compiler GCC version 9.2.1 20190827 (Red Hat 9.2.1-1)
REM options -cpp -mtune=generic -march=x86-64 -g -O0 -fpre-include=/usr/include/finclude/math-vector-fortran.h
REM seed -932512726 -453380142 -134969486 -299833355 -1480834018 -1319654426 -1757006948 -409302511 1226919272 1053642008 1148338877 1915553208 -1374296855 -354056368 844078964 -1027198546 509406188 347903710 -1319100947 1514480276 -859396154 -834269624 -711926967 1358337072 1091901187 929116810 -115072245 -2048769836 132389535 -856519586 -1776660335 641382588 -450995014
REM
CELL 1.54180   15.00000   15.00000   15.00000   90.00000   90.00000   90.00000
LATT -1
SFAC C  
C      1  0.5397030000000  0.3170510000000  0.7721910000000 1.0
C      1  0.6542980000000  0.4796680000000  0.7783180000000 1.0
C      1  0.5352290000000  0.6406530000000  0.7765610000000 1.0
C      1  0.3434810000000  0.5748460000000  0.7697460000000 1.0
C      1  0.3487910000000  0.3739200000000  0.7674330000000 1.0
C      1  0.4442790000000  0.3661640000000  0.2234320000000 1.0
C      1  0.3297620000000  0.5334450000000  0.2302550000000 1.0
C      1  0.4539990000000  0.6914510000000  0.2325780000000 1.0
C      1  0.6411010000000  0.6230700000000  0.2278190000000 1.0
C      1  0.6359180000000  0.4241950000000  0.2216810000000 1.0
C      1  0.5705360000000  0.6630680000000  0.6096780000000 1.0
C      1  0.3610020000000  0.6024980000000  0.6008790000000 1.0
C      1  0.3606300000000  0.3802510000000  0.5952830000000 1.0
C      1  0.5682350000000  0.3194350000000  0.6013890000000 1.0
C      1  0.6882050000000  0.4902540000000  0.6092290000000 1.0
C      1  0.4596910000000  0.6792520000000  0.4047250000000 1.0
C      1  0.6625550000000  0.6040630000000  0.3986150000000 1.0
C      1  0.6567710000000  0.3953970000000  0.3907630000000 1.0
C      1  0.4591990000000  0.3270500000000  0.3903060000000 1.0
C      1  0.3272870000000  0.5007350000000  0.3991090000000 1.0
C      1  0.4688040000000  0.4435360000000  0.1659550000000 1.0
C      1  0.5727900000000  0.4744450000000  0.1633340000000 1.0
C      1  0.5758050000000  0.5834150000000  0.1635190000000 1.0
C      1  0.4728570000000  0.6199390000000  0.1653550000000 1.0
C      1  0.4067910000000  0.5332620000000  0.1668930000000 1.0
C      1  0.5110090000000  0.3878540000000  0.8364870000000 1.0
C      1  0.4066200000000  0.4200280000000  0.8346510000000 1.0
C      1  0.4053810000000  0.5290060000000  0.8331120000000 1.0
C      1  0.5087030000000  0.5639510000000  0.8340480000000 1.0
C      1  0.5736580000000  0.4770630000000  0.8366700000000 1.0
C      1  0.4119210000000  0.5012400000000  0.0605716000000 1.0
C      1  0.4978080000000  0.4416350000000  0.0585261000000 1.0
C      1  0.5826350000000  0.5045550000000  0.0566446000000 1.0
C      1  0.5479990000000  0.6041150000000  0.0567252000000 1.0
C      1  0.4428760000000  0.6014190000000  0.0584598000000 1.0
C      1  0.5635770000000  0.4470340000000  0.9433610000000 1.0
C      1  0.4763450000000  0.3878520000000  0.9432810000000 1.0
C      1  0.3936300000000  0.4527880000000  0.9415460000000 1.0
C      1  0.4286200000000  0.5516300000000  0.9394330000000 1.0
C      1  0.5331050000000  0.5481570000000  0.9414780000000 1.0
C      1  0.4020240000000  0.5782890000000  0.5211740000000 1.0
C      1  0.4004230000000  0.4105680000000  0.5170660000000 1.0
C      1  0.5592680000000  0.3589630000000  0.5178250000000 1.0
C      1  0.6568440000000  0.4933130000000  0.5218890000000 1.0
C      1  0.5610340000000  0.6285400000000  0.5240520000000 1.0
C      1  0.6317460000000  0.5776960000000  0.4821690000000 1.0
C      1  0.6297890000000  0.4116620000000  0.4781040000000 1.0
C      1  0.4721880000000  0.3604010000000  0.4759410000000 1.0
C      1  0.3746440000000  0.4956550000000  0.4788170000000 1.0
C      1  0.4735110000000  0.6311500000000  0.4829280000000 1.0
C      1  0.5595120000000  0.6711400000000  0.6973980000000 1.0
C      1  0.3348300000000  0.6013870000000  0.6857590000000 1.0
C      1  0.3386270000000  0.3644290000000  0.6798900000000 1.0
C      1  0.5606310000000  0.3003590000000  0.6878270000000 1.0
C      1  0.6900480000000  0.4849820000000  0.6978140000000 1.0
C      1  0.4515000000000  0.7051100000000  0.3201250000000 1.0
C      1  0.6678540000000  0.6239350000000  0.3121830000000 1.0
C      1  0.6614080000000  0.3985550000000  0.3021790000000 1.0
C      1  0.4455450000000  0.3271870000000  0.3025850000000 1.0
C      1  0.3069660000000  0.5172850000000  0.3142330000000 1.0
END
