TITL C-986973-6940-108 -1.17839225692208e-06 3375 -328.29631807748 0 0 60 (C3) n - 1
REM
REM in /home/bkarasulu/work/CARBON/AIRSS/Generating-Clusters/REBO/Higher-Symm/Only-C60
REM
REM
REM
REM
REM
REM ./C.cell (a2850807a9bf4ad07a5b6933b78d9264)
REM AIRSS Version 0.9.1 bugfix July 2018 build 013d7b7c2542+ Fri, 06 Jul 2018 19:26:36 +0100
REM compiler GCC version 9.2.1 20190827 (Red Hat 9.2.1-1)
REM options -cpp -mtune=generic -march=x86-64 -g -O0 -fpre-include=/usr/include/finclude/math-vector-fortran.h
REM seed 433768275 177307955 -1482474021 -1465533527 -1752925355 595151206 353662680 -537212516 -1498818187 -613652610 1733355631 -877363814 987914238 1388336808 -1802152163 194466382 -1787300749 1338436116 1889929316 -533546693 1330876701 -523151721 937489906 1469643040 1299267469 -553885112 -155396413 -1562475622 1525089928 -1613049242 -136363230 1764313413 -2086503421
REM
CELL 1.54180   15.00000   15.00000   15.00000   90.00000   90.00000   90.00000
LATT -1
SFAC C  
C      1  0.4576770000000  0.4565200000000  0.5897980000000 1.0
C      1  0.4433950000000  0.4565190000000  0.4184480000000 1.0
C      1  0.5989290000000  0.4565210000000  0.4917540000000 1.0
C      1  0.7024270000000  0.3760310000000  0.4688990000000 1.0
C      1  0.4257230000000  0.3760300000000  0.6908570000000 1.0
C      1  0.3718540000000  0.3760270000000  0.3402460000000 1.0
C      1  0.6272710000000  0.4780390000000  0.3315200000000 1.0
C      1  0.5822730000000  0.4780400000000  0.6944600000000 1.0
C      1  0.2904570000000  0.4780360000000  0.4740200000000 1.0
C      1  0.3913210000000  0.4703120000000  0.5101210000000 1.0
C      1  0.5455750000000  0.4703130000000  0.4008210000000 1.0
C      1  0.5631040000000  0.4703140000000  0.5890590000000 1.0
C      1  0.7135700000000  0.4184190000000  0.3747440000000 1.0
C      1  0.5016910000000  0.4184190000000  0.7475850000000 1.0
C      1  0.2847410000000  0.4184150000000  0.3776720000000 1.0
C      1  0.7115870000000  0.5315910000000  0.3810300000000 1.0
C      1  0.4972370000000  0.5315910000000  0.7427250000000 1.0
C      1  0.2911750000000  0.5315870000000  0.3762450000000 1.0
C      1  0.6845020000000  0.3327960000000  0.5727300000000 1.0
C      1  0.3447660000000  0.3327920000000  0.6234190000000 1.0
C      1  0.4707370000000  0.3327920000000  0.3038540000000 1.0
C      1  0.4618230000000  0.7130670000000  0.4459860000000 1.0
C      1  0.5658620000000  0.7130680000000  0.4939450000000 1.0
C      1  0.4723090000000  0.7130680000000  0.5600660000000 1.0
C      1  0.4811760000000  0.6898590000000  0.3418470000000 1.0
C      1  0.6463730000000  0.6898620000000  0.5627750000000 1.0
C      1  0.3724450000000  0.6898600000000  0.5953760000000 1.0
C      1  0.5006100000000  0.5022250000000  0.3039030000000 1.0
C      1  0.6695200000000  0.5022280000000  0.5985770000000 1.0
C      1  0.3298700000000  0.5022250000000  0.5975200000000 1.0
C      1  0.4425350000000  0.5449650000000  0.6537870000000 1.0
C      1  0.3955490000000  0.5449630000000  0.3733400000000 1.0
C      1  0.6619150000000  0.5449660000000  0.4728720000000 1.0
C      1  0.3320050000000  0.4336000000000  0.6624590000000 1.0
C      1  0.4433060000000  0.4335990000000  0.2732830000000 1.0
C      1  0.7246910000000  0.4336030000000  0.5642600000000 1.0
C      1  0.3859400000000  0.3211100000000  0.5217190000000 1.0
C      1  0.5382240000000  0.3211110000000  0.3903610000000 1.0
C      1  0.5758410000000  0.3211120000000  0.5879220000000 1.0
C      1  0.3041660000000  0.3472200000000  0.4523240000000 1.0
C      1  0.6392090000000  0.3472230000000  0.3542410000000 1.0
C      1  0.5566300000000  0.3472240000000  0.6934380000000 1.0
C      1  0.4216630000000  0.6091780000000  0.2988880000000 1.0
C      1  0.7133340000000  0.6091820000000  0.5327140000000 1.0
C      1  0.3649990000000  0.6091790000000  0.6683960000000 1.0
C      1  0.4350600000000  0.3470740000000  0.4294650000000 1.0
C      1  0.5935590000000  0.3470760000000  0.4790270000000 1.0
C      1  0.4713860000000  0.3470750000000  0.5915100000000 1.0
C      1  0.5816350000000  0.5916130000000  0.6964990000000 1.0
C      1  0.2890080000000  0.5916090000000  0.4724490000000 1.0
C      1  0.6293540000000  0.5916120000000  0.3310520000000 1.0
C      1  0.4821600000000  0.5819500000000  0.4367410000000 1.0
C      1  0.5637020000000  0.5819510000000  0.5161800000000 1.0
C      1  0.4541350000000  0.5819500000000  0.5470780000000 1.0
C      1  0.5681020000000  0.6478770000000  0.4012360000000 1.0
C      1  0.5514780000000  0.6478780000000  0.6083600000000 1.0
C      1  0.3804160000000  0.6478760000000  0.4904020000000 1.0
C      1  0.2941110000000  0.6065510000000  0.5821200000000 1.0
C      1  0.5318240000000  0.6065520000000  0.2806350000000 1.0
C      1  0.6740610000000  0.6065550000000  0.6372430000000 1.0
END
