TITL C-986978-6805-780 0.00363795245468056 3375 -340.166154514678 0 0 60 (Ci) n - 1
REM
REM in /home/bkarasulu/work/CARBON/AIRSS/Generating-Clusters/REBO/Higher-Symm/Only-C60
REM
REM
REM
REM
REM
REM ./C.cell (a2850807a9bf4ad07a5b6933b78d9264)
REM AIRSS Version 0.9.1 bugfix July 2018 build 013d7b7c2542+ Fri, 06 Jul 2018 19:26:36 +0100
REM compiler GCC version 9.2.1 20190827 (Red Hat 9.2.1-1)
REM options -cpp -mtune=generic -march=x86-64 -g -O0 -fpre-include=/usr/include/finclude/math-vector-fortran.h
REM seed -1280172169 -249418725 465468489 455742054 -307865491 2142811278 1976303181 1657348282 -461384974 810056070 -1419918519 1741609736 -1855328444 -1802663494 -1337420089 740148880 2065999211 -1866593329 1996259160 -150863183 -1019470978 -265138877 700616021 -1414378601 2142564632 -1597800772 -1579973414 386527194 1452321594 -1153120176 -1820782646 449559164 -396330769
REM
CELL 1.54180   15.00000   15.00000   15.00000   90.00000   90.00000   90.00000
LATT -1
SFAC C  
C      1  0.6588170000000  0.3094130000000  0.4603200000000 1.0
C      1  0.5844380000000  0.7364030000000  0.4570790000000 1.0
C      1  0.2517440000000  0.4532030000000  0.4628070000000 1.0
C      1  0.3354220000000  0.3088650000000  0.5435070000000 1.0
C      1  0.4191890000000  0.7393430000000  0.5402200000000 1.0
C      1  0.7444410000000  0.4549280000000  0.5365420000000 1.0
C      1  0.3411420000000  0.6906440000000  0.5397180000000 1.0
C      1  0.4155570000000  0.2635450000000  0.5429210000000 1.0
C      1  0.7482350000000  0.5468200000000  0.5372060000000 1.0
C      1  0.6646080000000  0.6911470000000  0.4564530000000 1.0
C      1  0.5808230000000  0.2606310000000  0.4597990000000 1.0
C      1  0.2555560000000  0.5450990000000  0.4634880000000 1.0
C      1  0.4924760000000  0.2901670000000  0.5912960000000 1.0
C      1  0.6862210000000  0.5984990000000  0.5869470000000 1.0
C      1  0.3281790000000  0.6123060000000  0.5904380000000 1.0
C      1  0.5048960000000  0.2889730000000  0.4105940000000 1.0
C      1  0.3170730000000  0.5950230000000  0.4123280000000 1.0
C      1  0.6792620000000  0.6119050000000  0.4071340000000 1.0
C      1  0.5075180000000  0.7097980000000  0.4087090000000 1.0
C      1  0.3137580000000  0.4015270000000  0.4130400000000 1.0
C      1  0.6718220000000  0.3877290000000  0.4095910000000 1.0
C      1  0.4951090000000  0.7109800000000  0.5894040000000 1.0
C      1  0.6829340000000  0.4050120000000  0.5877140000000 1.0
C      1  0.3207550000000  0.3880950000000  0.5928460000000 1.0
C      1  0.4080310000000  0.5584140000000  0.6334150000000 1.0
C      1  0.4997990000000  0.3883080000000  0.6359030000000 1.0
C      1  0.5992610000000  0.5561110000000  0.6308440000000 1.0
C      1  0.5943160000000  0.5564700000000  0.3658900000000 1.0
C      1  0.4995830000000  0.3852050000000  0.3630510000000 1.0
C      1  0.4024320000000  0.5512240000000  0.3689400000000 1.0
C      1  0.5919760000000  0.4416170000000  0.3665910000000 1.0
C      1  0.5002530000000  0.6117080000000  0.3640880000000 1.0
C      1  0.4007600000000  0.4439130000000  0.3691560000000 1.0
C      1  0.4057870000000  0.4435630000000  0.6340490000000 1.0
C      1  0.5003650000000  0.6148220000000  0.6369450000000 1.0
C      1  0.5975590000000  0.4488040000000  0.6310660000000 1.0
C      1  0.4866850000000  0.3615910000000  0.2518040000000 1.0
C      1  0.6349320000000  0.5621330000000  0.2581240000000 1.0
C      1  0.4128070000000  0.5860240000000  0.2671360000000 1.0
C      1  0.5134740000000  0.3623140000000  0.7467660000000 1.0
C      1  0.3782750000000  0.5277200000000  0.7332170000000 1.0
C      1  0.5898330000000  0.5912800000000  0.7327370000000 1.0
C      1  0.5133470000000  0.6384130000000  0.7482410000000 1.0
C      1  0.3649300000000  0.4378650000000  0.7417840000000 1.0
C      1  0.5871430000000  0.4139350000000  0.7328320000000 1.0
C      1  0.4865780000000  0.6375670000000  0.2531730000000 1.0
C      1  0.6216530000000  0.4722400000000  0.2667390000000 1.0
C      1  0.4102580000000  0.4086990000000  0.2673130000000 1.0
C      1  0.5673680000000  0.7579000000000  0.5498210000000 1.0
C      1  0.2425480000000  0.4261510000000  0.5551230000000 1.0
C      1  0.6859740000000  0.3173410000000  0.5525590000000 1.0
C      1  0.4372310000000  0.7604400000000  0.4476010000000 1.0
C      1  0.7501540000000  0.4276300000000  0.4442340000000 1.0
C      1  0.3078510000000  0.3146830000000  0.4509830000000 1.0
C      1  0.4326570000000  0.2420170000000  0.4501910000000 1.0
C      1  0.7574530000000  0.5738750000000  0.4449040000000 1.0
C      1  0.3140110000000  0.6827040000000  0.4474690000000 1.0
C      1  0.5627670000000  0.2395210000000  0.5524110000000 1.0
C      1  0.2498380000000  0.5724050000000  0.5557970000000 1.0
C      1  0.6921350000000  0.6853410000000  0.5490040000000 1.0
END
