TITL C-986972-3822-122 -7.02121622149459e-06 3375 -345.148471242237 0 0 60 (C1) n - 1
REM
REM in /home/bkarasulu/work/CARBON/AIRSS/Generating-Clusters/REBO/Higher-Symm/Only-C60
REM
REM
REM
REM
REM
REM ./C.cell (a2850807a9bf4ad07a5b6933b78d9264)
REM AIRSS Version 0.9.1 bugfix July 2018 build 013d7b7c2542+ Fri, 06 Jul 2018 19:26:36 +0100
REM compiler GCC version 9.2.1 20190827 (Red Hat 9.2.1-1)
REM options -cpp -mtune=generic -march=x86-64 -g -O0 -fpre-include=/usr/include/finclude/math-vector-fortran.h
REM seed -933988733 -1741426908 -936298232 -1615109722 -118700200 -1757792718 -107282590 -2020440265 133634587 1930876623 -1516345625 1481700749 -1322847954 1725421658 -152680586 1047650896 -1749985152 -1156528402 -820447052 513437668 -1226038343 -513742173 979424667 -1967320160 751211819 109207452 1889882505 -1744270543 -41423678 -73692591 1547232260 852307972 685854846
REM
CELL 1.54180   15.00000   15.00000   15.00000   90.00000   90.00000   90.00000
LATT -1
SFAC C  
C      1  0.3855720000000  0.5214060000000  0.5029780000000 1.0
C      1  0.5471250000000  0.4553790000000  0.4804530000000 1.0
C      1  0.3842770000000  0.3785630000000  0.6178590000000 1.0
C      1  0.5264240000000  0.5854920000000  0.4649270000000 1.0
C      1  0.6313740000000  0.5772770000000  0.4914580000000 1.0
C      1  0.2819110000000  0.5152970000000  0.6024150000000 1.0
C      1  0.3146000000000  0.6061990000000  0.6014390000000 1.0
C      1  0.2406560000000  0.3733520000000  0.2077590000000 1.0
C      1  0.5043380000000  0.5118050000000  0.6465020000000 1.0
C      1  0.6196140000000  0.6071040000000  0.3625140000000 1.0
C      1  0.2583650000000  0.4843040000000  0.5170670000000 1.0
C      1  0.5011070000000  0.7698000000000  0.4797290000000 1.0
C      1  0.4059270000000  0.5130470000000  0.6936660000000 1.0
C      1  0.4057930000000  0.6184000000000  0.5622330000000 1.0
C      1  0.5720000000000  0.4457990000000  0.6785000000000 1.0
C      1  0.6248790000000  0.2843870000000  0.5893570000000 1.0
C      1  0.5190030000000  0.6739820000000  0.4271100000000 1.0
C      1  0.4532170000000  0.3400890000000  0.5484700000000 1.0
C      1  0.3431410000000  0.4586090000000  0.6523290000000 1.0
C      1  0.5221300000000  0.3583030000000  0.4782200000000 1.0
C      1  0.4131740000000  0.7535290000000  0.4382860000000 1.0
C      1  0.4894850000000  0.3973830000000  0.3109990000000 1.0
C      1  0.5360740000000  0.3639960000000  0.7052160000000 1.0
C      1  0.3916690000000  0.4514970000000  0.2909670000000 1.0
C      1  0.6386960000000  0.3524190000000  0.4141570000000 1.0
C      1  0.5462240000000  0.6811380000000  0.3178950000000 1.0
C      1  0.7130340000000  0.5180100000000  0.6008120000000 1.0
C      1  0.4521940000000  0.2379280000000  0.5777710000000 1.0
C      1  0.6130040000000  0.7336330000000  0.3936540000000 1.0
C      1  0.7754470000000  0.4923900000000  0.5096720000000 1.0
C      1  0.2764690000000  0.5301480000000  0.4271880000000 1.0
C      1  0.3397590000000  0.4223600000000  0.4701270000000 1.0
C      1  0.5159920000000  0.4920020000000  0.3107270000000 1.0
C      1  0.3119620000000  0.4494620000000  0.3655010000000 1.0
C      1  0.3906310000000  0.6716380000000  0.3916860000000 1.0
C      1  0.6613390000000  0.4458960000000  0.6480290000000 1.0
C      1  0.3351090000000  0.3215180000000  0.4900620000000 1.0
C      1  0.3429850000000  0.6044620000000  0.4374320000000 1.0
C      1  0.7238170000000  0.4262640000000  0.4294550000000 1.0
C      1  0.6464770000000  0.4771170000000  0.4930340000000 1.0
C      1  0.7201570000000  0.4002540000000  0.5381800000000 1.0
C      1  0.6862680000000  0.6573030000000  0.4350680000000 1.0
C      1  0.4850510000000  0.6529540000000  0.6005320000000 1.0
C      1  0.4469640000000  0.6412770000000  0.3198250000000 1.0
C      1  0.2929450000000  0.4096540000000  0.2644900000000 1.0
C      1  0.6059440000000  0.7353360000000  0.5069950000000 1.0
C      1  0.4403090000000  0.5533600000000  0.2898010000000 1.0
C      1  0.5420600000000  0.3484350000000  0.3685860000000 1.0
C      1  0.5386220000000  0.2714980000000  0.6419750000000 1.0
C      1  0.4873500000000  0.5152930000000  0.5439900000000 1.0
C      1  0.6838690000000  0.6096890000000  0.6086570000000 1.0
C      1  0.4799630000000  0.6644660000000  0.6956650000000 1.0
C      1  0.4747630000000  0.5777370000000  0.7363340000000 1.0
C      1  0.6098060000000  0.2967800000000  0.4976470000000 1.0
C      1  0.4430120000000  0.3229440000000  0.6797170000000 1.0
C      1  0.5721080000000  0.5170770000000  0.3883020000000 1.0
C      1  0.3645710000000  0.2434180000000  0.5272240000000 1.0
C      1  0.7030280000000  0.6861610000000  0.5407660000000 1.0
C      1  0.5816450000000  0.6447270000000  0.5700580000000 1.0
C      1  0.6865740000000  0.3502550000000  0.6185330000000 1.0
END
