TITL C-986973-6940-573 9.262758784567e-07 3375 -338.797224758414 0 0 60 (C1) n - 1
REM
REM in /home/bkarasulu/work/CARBON/AIRSS/Generating-Clusters/REBO/Higher-Symm/Only-C60
REM
REM
REM
REM
REM
REM ./C.cell (a2850807a9bf4ad07a5b6933b78d9264)
REM AIRSS Version 0.9.1 bugfix July 2018 build 013d7b7c2542+ Fri, 06 Jul 2018 19:26:36 +0100
REM compiler GCC version 9.2.1 20190827 (Red Hat 9.2.1-1)
REM options -cpp -mtune=generic -march=x86-64 -g -O0 -fpre-include=/usr/include/finclude/math-vector-fortran.h
REM seed -1539081440 219307917 620482986 555417362 -453158735 -1140218346 -1193818480 1236019448 -484752546 1745059268 1186026112 416423177 -452989192 -1673695475 -631336428 892604857 -654824323 -2069910145 675535736 -1878238576 1353967019 -1473389636 1535531068 1533550367 1234510224 -1338915730 1599133808 -949281567 470217639 -1576273077 792636666 150374789 481513898
REM
CELL 1.54180   15.00000   15.00000   15.00000   90.00000   90.00000   90.00000
LATT -1
SFAC C  
C      1  0.3842360000000  0.5529580000000  0.3957660000000 1.0
C      1  0.5704380000000  0.5708970000000  0.5047820000000 1.0
C      1  0.4869960000000  0.5780580000000  0.5548160000000 1.0
C      1  0.4658230000000  0.3405800000000  0.3698790000000 1.0
C      1  0.6192000000000  0.3537020000000  0.5472390000000 1.0
C      1  0.4024760000000  0.3417660000000  0.5865790000000 1.0
C      1  0.7690930000000  0.4349530000000  0.5814630000000 1.0
C      1  0.3429970000000  0.4292950000000  0.6904260000000 1.0
C      1  0.4519830000000  0.4367690000000  0.2082250000000 1.0
C      1  0.5602450000000  0.4768840000000  0.2740090000000 1.0
C      1  0.6800580000000  0.5018020000000  0.6540240000000 1.0
C      1  0.2816080000000  0.4926880000000  0.5908990000000 1.0
C      1  0.5181550000000  0.7470610000000  0.5958010000000 1.0
C      1  0.4157740000000  0.7441390000000  0.4657410000000 1.0
C      1  0.5772690000000  0.7417340000000  0.4418880000000 1.0
C      1  0.5350220000000  0.5804980000000  0.3127980000000 1.0
C      1  0.6406150000000  0.5849220000000  0.6412130000000 1.0
C      1  0.3249860000000  0.5820740000000  0.5649490000000 1.0
C      1  0.6398640000000  0.3383610000000  0.7107540000000 1.0
C      1  0.2482460000000  0.3305150000000  0.5258560000000 1.0
C      1  0.6164290000000  0.3564330000000  0.2843290000000 1.0
C      1  0.4347280000000  0.6118400000000  0.2312820000000 1.0
C      1  0.7479220000000  0.5928070000000  0.5298390000000 1.0
C      1  0.3747020000000  0.5932230000000  0.7009720000000 1.0
C      1  0.5057170000000  0.3335880000000  0.6134790000000 1.0
C      1  0.3955690000000  0.3299250000000  0.4541350000000 1.0
C      1  0.5775070000000  0.3538650000000  0.4419600000000 1.0
C      1  0.5096320000000  0.2643740000000  0.4354650000000 1.0
C      1  0.5541040000000  0.2654590000000  0.5387240000000 1.0
C      1  0.4417170000000  0.2567600000000  0.5258490000000 1.0
C      1  0.5516620000000  0.5843670000000  0.6707120000000 1.0
C      1  0.3099170000000  0.6049990000000  0.4630670000000 1.0
C      1  0.6145290000000  0.5778880000000  0.3802870000000 1.0
C      1  0.2914620000000  0.3112370000000  0.4556340000000 1.0
C      1  0.6469650000000  0.3495320000000  0.3629150000000 1.0
C      1  0.5579430000000  0.3185530000000  0.7053560000000 1.0
C      1  0.5913210000000  0.4858830000000  0.4313970000000 1.0
C      1  0.5218260000000  0.4976670000000  0.6745950000000 1.0
C      1  0.3284320000000  0.4926280000000  0.4662220000000 1.0
C      1  0.3833900000000  0.6646730000000  0.4010460000000 1.0
C      1  0.6292430000000  0.6505500000000  0.4551150000000 1.0
C      1  0.4829940000000  0.6537120000000  0.6334340000000 1.0
C      1  0.4115760000000  0.5117740000000  0.5684160000000 1.0
C      1  0.4552990000000  0.5101740000000  0.3484200000000 1.0
C      1  0.6293710000000  0.4846320000000  0.5319750000000 1.0
C      1  0.4931630000000  0.7391490000000  0.4011080000000 1.0
C      1  0.5957820000000  0.7424770000000  0.5438990000000 1.0
C      1  0.4219620000000  0.7440990000000  0.5584680000000 1.0
C      1  0.6847690000000  0.3901160000000  0.6326740000000 1.0
C      1  0.2972190000000  0.3810020000000  0.6022310000000 1.0
C      1  0.5110840000000  0.3742440000000  0.2749560000000 1.0
C      1  0.3867050000000  0.5072010000000  0.6712540000000 1.0
C      1  0.4378040000000  0.5199150000000  0.2446660000000 1.0
C      1  0.7306490000000  0.5029460000000  0.5311030000000 1.0
C      1  0.4647780000000  0.6688870000000  0.3215350000000 1.0
C      1  0.6655790000000  0.6552960000000  0.5632520000000 1.0
C      1  0.3706810000000  0.6668300000000  0.6190990000000 1.0
C      1  0.3881590000000  0.4238820000000  0.5149860000000 1.0
C      1  0.5112280000000  0.4359410000000  0.3930710000000 1.0
C      1  0.5614010000000  0.4318130000000  0.6059700000000 1.0
END
