TITL C-986973-6940-1152 0.0252483122395719 3375 -343.071828859432 0 0 60 (C1) n - 1
REM
REM in /home/bkarasulu/work/CARBON/AIRSS/Generating-Clusters/REBO/Higher-Symm/Only-C60
REM
REM
REM
REM
REM
REM ./C.cell (a2850807a9bf4ad07a5b6933b78d9264)
REM AIRSS Version 0.9.1 bugfix July 2018 build 013d7b7c2542+ Fri, 06 Jul 2018 19:26:36 +0100
REM compiler GCC version 9.2.1 20190827 (Red Hat 9.2.1-1)
REM options -cpp -mtune=generic -march=x86-64 -g -O0 -fpre-include=/usr/include/finclude/math-vector-fortran.h
REM seed -47139276 1574162553 189445304 1216869362 -235170876 -587786422 1123809506 -1640442426 2122123869 -8372771 924845164 1238785290 412451569 556197488 -765562037 1527347980 -708126421 -474352081 -2020344570 809526016 6904969 -1552620665 -562515585 1363254846 748955148 -1834097374 -40734444 999207592 483604753 -1815723093 1370295416 917731276 1339536573
REM
CELL 1.54180   15.00000   15.00000   15.00000   90.00000   90.00000   90.00000
LATT -1
SFAC C  
C      1  0.5364990000000  0.4894140000000  0.5873410000000 1.0
C      1  0.3985460000000  0.5475190000000  0.7112550000000 1.0
C      1  0.5531180000000  0.4879200000000  0.4413430000000 1.0
C      1  0.4570340000000  0.3078140000000  0.6196140000000 1.0
C      1  0.6411960000000  0.5211720000000  0.2953100000000 1.0
C      1  0.4036720000000  0.2887060000000  0.3461360000000 1.0
C      1  0.5966420000000  0.3877650000000  0.4311550000000 1.0
C      1  0.4966850000000  0.2664110000000  0.3788500000000 1.0
C      1  0.6736570000000  0.6459610000000  0.4853980000000 1.0
C      1  0.3597410000000  0.6042060000000  0.2811220000000 1.0
C      1  0.2955040000000  0.3556160000000  0.5665290000000 1.0
C      1  0.6729880000000  0.3868300000000  0.5410210000000 1.0
C      1  0.5219650000000  0.6617110000000  0.3201840000000 1.0
C      1  0.2628160000000  0.5544900000000  0.6084130000000 1.0
C      1  0.4964410000000  0.4460070000000  0.3658520000000 1.0
C      1  0.6190500000000  0.6392550000000  0.4078350000000 1.0
C      1  0.4533100000000  0.4636480000000  0.5260520000000 1.0
C      1  0.4689400000000  0.5567020000000  0.7902520000000 1.0
C      1  0.3924990000000  0.3800630000000  0.3154710000000 1.0
C      1  0.4407230000000  0.6106900000000  0.3602440000000 1.0
C      1  0.7531410000000  0.4970940000000  0.4501400000000 1.0
C      1  0.5501710000000  0.7548770000000  0.4886810000000 1.0
C      1  0.4281790000000  0.6951590000000  0.6193610000000 1.0
C      1  0.3903670000000  0.4492490000000  0.3905000000000 1.0
C      1  0.4534800000000  0.3856580000000  0.6814100000000 1.0
C      1  0.5609830000000  0.7257350000000  0.3911960000000 1.0
C      1  0.6237730000000  0.4770780000000  0.5261580000000 1.0
C      1  0.6265330000000  0.3295920000000  0.6021920000000 1.0
C      1  0.3079680000000  0.4312870000000  0.6314420000000 1.0
C      1  0.5483000000000  0.6533920000000  0.5871580000000 1.0
C      1  0.5346970000000  0.4904410000000  0.2700990000000 1.0
C      1  0.3079390000000  0.6134760000000  0.3565150000000 1.0
C      1  0.2839920000000  0.4832720000000  0.5311050000000 1.0
C      1  0.4812260000000  0.6128090000000  0.6700320000000 1.0
C      1  0.3668920000000  0.6015030000000  0.4456910000000 1.0
C      1  0.3881040000000  0.6696460000000  0.5164000000000 1.0
C      1  0.4877130000000  0.6222910000000  0.5159220000000 1.0
C      1  0.6129460000000  0.3727750000000  0.6862440000000 1.0
C      1  0.5279080000000  0.5852150000000  0.4289660000000 1.0
C      1  0.5421690000000  0.2959020000000  0.5680880000000 1.0
C      1  0.5379150000000  0.4301560000000  0.6801660000000 1.0
C      1  0.5210320000000  0.3459410000000  0.3191950000000 1.0
C      1  0.3060830000000  0.5798940000000  0.6746100000000 1.0
C      1  0.5713530000000  0.5977920000000  0.2718320000000 1.0
C      1  0.4658610000000  0.4055590000000  0.2438780000000 1.0
C      1  0.6227780000000  0.7042970000000  0.5450180000000 1.0
C      1  0.6859820000000  0.3946680000000  0.4009910000000 1.0
C      1  0.7553470000000  0.3936820000000  0.4822220000000 1.0
C      1  0.5316430000000  0.3164520000000  0.4630930000000 1.0
C      1  0.4494660000000  0.3684830000000  0.5019350000000 1.0
C      1  0.3807550000000  0.4468110000000  0.6858830000000 1.0
C      1  0.7039180000000  0.4872130000000  0.3537250000000 1.0
C      1  0.2318080000000  0.3896630000000  0.4935340000000 1.0
C      1  0.5796300000000  0.5550690000000  0.6685360000000 1.0
C      1  0.7010220000000  0.5569720000000  0.5214640000000 1.0
C      1  0.3669950000000  0.5059620000000  0.4774300000000 1.0
C      1  0.3790710000000  0.3120130000000  0.5508220000000 1.0
C      1  0.5506500000000  0.5559700000000  0.7705500000000 1.0
C      1  0.4647630000000  0.7524320000000  0.5314630000000 1.0
C      1  0.6764230000000  0.5526200000000  0.6269750000000 1.0
END
