TITL C-986975-4297-969 -0.0343940805030693 3375 -333.291012115025 0 0 60 (S10) n - 1
REM
REM in /home/bkarasulu/work/CARBON/AIRSS/Generating-Clusters/REBO/Higher-Symm/Only-C60
REM
REM
REM
REM
REM
REM ./C.cell (a2850807a9bf4ad07a5b6933b78d9264)
REM AIRSS Version 0.9.1 bugfix July 2018 build 013d7b7c2542+ Fri, 06 Jul 2018 19:26:36 +0100
REM compiler GCC version 9.2.1 20190827 (Red Hat 9.2.1-1)
REM options -cpp -mtune=generic -march=x86-64 -g -O0 -fpre-include=/usr/include/finclude/math-vector-fortran.h
REM seed -370579283 -23413475 -1067426963 -537465761 -64391841 1397434126 -68151418 -1700849284 -625674469 1481442094 397723849 1317965080 -1871464978 -1642992824 962441068 -696907725 -1233327786 138727873 -1117870939 1738200805 -1675819343 920400962 -730481492 -708303158 -1231552709 -24001689 -96610861 1712253709 798763844 2122200023 -1490919679 -1827707013 -1698352160
REM
CELL 1.54180   15.00000   15.00000   15.00000   90.00000   90.00000   90.00000
LATT -1
SFAC C  
C      1  0.5036670000000  0.5929390000000  0.2683510000000 1.0
C      1  0.4963320000000  0.7113440000000  0.3672160000000 1.0
C      1  0.5036680000000  0.7490310000000  0.5168040000000 1.0
C      1  0.4963310000000  0.6915930000000  0.6599720000000 1.0
C      1  0.5036690000000  0.5609710000000  0.7420360000000 1.0
C      1  0.4963330000000  0.4070610000000  0.7316490000000 1.0
C      1  0.5036680000000  0.2886560000000  0.6327840000000 1.0
C      1  0.4963320000000  0.2509690000000  0.4831960000000 1.0
C      1  0.5036690000000  0.3084070000000  0.3400280000000 1.0
C      1  0.4963310000000  0.4390290000000  0.2579640000000 1.0
C      1  0.6607360000000  0.4421440000000  0.6789420000000 1.0
C      1  0.3392640000000  0.3480120000000  0.6107600000000 1.0
C      1  0.6607340000000  0.3119370000000  0.5002710000000 1.0
C      1  0.3392680000000  0.3476950000000  0.3896790000000 1.0
C      1  0.6607320000000  0.4416280000000  0.3212260000000 1.0
C      1  0.3392640000000  0.5578560000000  0.3210580000000 1.0
C      1  0.6607360000000  0.6519880000000  0.3892400000000 1.0
C      1  0.3392660000000  0.6880630000000  0.4997290000000 1.0
C      1  0.6607320000000  0.6523050000000  0.6103210000000 1.0
C      1  0.3392680000000  0.5583720000000  0.6787740000000 1.0
C      1  0.6631630000000  0.3684540000000  0.4074350000000 1.0
C      1  0.3368330000000  0.4479830000000  0.3477940000000 1.0
C      1  0.6631750000000  0.5473790000000  0.3462880000000 1.0
C      1  0.3368340000000  0.6286820000000  0.4034960000000 1.0
C      1  0.6631620000000  0.6608320000000  0.4975670000000 1.0
C      1  0.3368370000000  0.6315460000000  0.5925650000000 1.0
C      1  0.6631670000000  0.5520170000000  0.6522060000000 1.0
C      1  0.3368250000000  0.4526210000000  0.6537120000000 1.0
C      1  0.6631660000000  0.3713180000000  0.5965040000000 1.0
C      1  0.3368380000000  0.3391680000000  0.5024330000000 1.0
C      1  0.5597940000000  0.6852860000000  0.5761590000000 1.0
C      1  0.4402070000000  0.6051340000000  0.6705240000000 1.0
C      1  0.5597900000000  0.4848210000000  0.6997560000000 1.0
C      1  0.4402110000000  0.3703030000000  0.6526870000000 1.0
C      1  0.5597890000000  0.3053320000000  0.5472920000000 1.0
C      1  0.4402060000000  0.3147140000000  0.4238410000000 1.0
C      1  0.5597930000000  0.3948660000000  0.3294760000000 1.0
C      1  0.4402100000000  0.5151790000000  0.3002440000000 1.0
C      1  0.5597890000000  0.6296970000000  0.3473130000000 1.0
C      1  0.4402110000000  0.6946680000000  0.4527080000000 1.0
C      1  0.4181670000000  0.5533800000000  0.5718220000000 1.0
C      1  0.5818310000000  0.5009710000000  0.5894750000000 1.0
C      1  0.4181670000000  0.4481940000000  0.5729570000000 1.0
C      1  0.5818310000000  0.4152020000000  0.5285720000000 1.0
C      1  0.4181670000000  0.4145980000000  0.4732720000000 1.0
C      1  0.5818330000000  0.4466200000000  0.4281780000000 1.0
C      1  0.4181690000000  0.4990290000000  0.4105250000000 1.0
C      1  0.5818330000000  0.5518060000000  0.4270430000000 1.0
C      1  0.4181690000000  0.5847980000000  0.4714280000000 1.0
C      1  0.5818330000000  0.5854020000000  0.5267280000000 1.0
C      1  0.5834930000000  0.2874430000000  0.4182260000000 1.0
C      1  0.4165080000000  0.3761050000000  0.3089060000000 1.0
C      1  0.5834920000000  0.5120910000000  0.2725800000000 1.0
C      1  0.4165040000000  0.6434580000000  0.3231140000000 1.0
C      1  0.5834910000000  0.7200260000000  0.4412190000000 1.0
C      1  0.4165070000000  0.7125570000000  0.5817740000000 1.0
C      1  0.5834920000000  0.6238950000000  0.6910940000000 1.0
C      1  0.4165080000000  0.4879090000000  0.7274200000000 1.0
C      1  0.5834960000000  0.3565420000000  0.6768860000000 1.0
C      1  0.4165090000000  0.2799740000000  0.5587810000000 1.0
END
