TITL C-986979-5873-448 -0.0042727186955135 3375 -339.262286989929 0 0 60 (C2) n - 1
REM
REM in /home/bkarasulu/work/CARBON/AIRSS/Generating-Clusters/REBO/Higher-Symm/Only-C60
REM
REM
REM
REM
REM
REM ./C.cell (a2850807a9bf4ad07a5b6933b78d9264)
REM AIRSS Version 0.9.1 bugfix July 2018 build 013d7b7c2542+ Fri, 06 Jul 2018 19:26:36 +0100
REM compiler GCC version 9.2.1 20190827 (Red Hat 9.2.1-1)
REM options -cpp -mtune=generic -march=x86-64 -g -O0 -fpre-include=/usr/include/finclude/math-vector-fortran.h
REM seed -695498600 1560704261 350910305 -561206546 -1982874415 -371695045 -1534321008 1163656685 -78258557 888558688 -594206153 -903975047 812532687 894008714 -131477438 596454491 1627723245 580815783 1210139298 -1329168915 1090084519 -950713211 -1843019740 814725477 603273337 471990543 -714025276 -1841427239 350757782 -920751664 299801362 395042122 236141266
REM
CELL 1.54180   15.00000   15.00000   15.00000   90.00000   90.00000   90.00000
LATT -1
SFAC C  
C      1  0.3897740000000  0.3009250000000  0.5584220000000 1.0
C      1  0.3921500000000  0.4357910000000  0.3023190000000 1.0
C      1  0.3897740000000  0.6990750000000  0.4415780000000 1.0
C      1  0.3921500000000  0.5642090000000  0.6976810000000 1.0
C      1  0.6197190000000  0.3047680000000  0.5544180000000 1.0
C      1  0.6208870000000  0.4516190000000  0.2986650000000 1.0
C      1  0.6197190000000  0.6952320000000  0.4455820000000 1.0
C      1  0.6208870000000  0.5483810000000  0.7013350000000 1.0
C      1  0.5914180000000  0.5273910000000  0.3654560000000 1.0
C      1  0.5869770000000  0.6346840000000  0.5264770000000 1.0
C      1  0.5914190000000  0.4726090000000  0.6345440000000 1.0
C      1  0.5869770000000  0.3653160000000  0.4735230000000 1.0
C      1  0.4131400000000  0.5189500000000  0.3611370000000 1.0
C      1  0.4114460000000  0.6357910000000  0.5218350000000 1.0
C      1  0.4131400000000  0.4810500000000  0.6388630000000 1.0
C      1  0.4114470000000  0.3642090000000  0.4781650000000 1.0
C      1  0.5562460000000  0.6204730000000  0.7329840000000 1.0
C      1  0.5546980000000  0.2702200000000  0.6246850000000 1.0
C      1  0.5562460000000  0.3795270000000  0.2670160000000 1.0
C      1  0.5546980000000  0.7297800000000  0.3753150000000 1.0
C      1  0.4645090000000  0.6326140000000  0.7097180000000 1.0
C      1  0.4610590000000  0.2891950000000  0.6289460000000 1.0
C      1  0.4645090000000  0.3673860000000  0.2902820000000 1.0
C      1  0.4610590000000  0.7108050000000  0.3710540000000 1.0
C      1  0.4502690000000  0.3121210000000  0.3851650000000 1.0
C      1  0.4390660000000  0.6156380000000  0.3161800000000 1.0
C      1  0.4502690000000  0.6878790000000  0.6148350000000 1.0
C      1  0.4390660000000  0.3843620000000  0.6838200000000 1.0
C      1  0.5613910000000  0.3264350000000  0.3718450000000 1.0
C      1  0.5502970000000  0.6245630000000  0.3233580000000 1.0
C      1  0.5613910000000  0.6735650000000  0.6281550000000 1.0
C      1  0.5502970000000  0.3754370000000  0.6766420000000 1.0
C      1  0.2763260000000  0.4032920000000  0.6342080000000 1.0
C      1  0.2896680000000  0.3616960000000  0.4179070000000 1.0
C      1  0.2763260000000  0.5967080000000  0.3657920000000 1.0
C      1  0.2896680000000  0.6383040000000  0.5820930000000 1.0
C      1  0.7134680000000  0.4195680000000  0.6400660000000 1.0
C      1  0.7262440000000  0.3651530000000  0.4039390000000 1.0
C      1  0.7134680000000  0.5804320000000  0.3599340000000 1.0
C      1  0.7262440000000  0.6348470000000  0.5960610000000 1.0
C      1  0.3250610000000  0.5233790000000  0.4204170000000 1.0
C      1  0.3265730000000  0.5637670000000  0.5183030000000 1.0
C      1  0.3250610000000  0.4766210000000  0.5795830000000 1.0
C      1  0.3265730000000  0.4362330000000  0.4816970000000 1.0
C      1  0.6774620000000  0.5185950000000  0.4362930000000 1.0
C      1  0.6786250000000  0.5788710000000  0.5233880000000 1.0
C      1  0.6774620000000  0.4814050000000  0.5637070000000 1.0
C      1  0.6786250000000  0.4211290000000  0.4766120000000 1.0
C      1  0.6566490000000  0.3487540000000  0.6470400000000 1.0
C      1  0.6649100000000  0.3582610000000  0.3355750000000 1.0
C      1  0.6566490000000  0.6512460000000  0.3529600000000 1.0
C      1  0.6649100000000  0.6417390000000  0.6644250000000 1.0
C      1  0.3407700000000  0.3385220000000  0.6478480000000 1.0
C      1  0.3487040000000  0.3485160000000  0.3499580000000 1.0
C      1  0.3407700000000  0.6614780000000  0.3521520000000 1.0
C      1  0.3487040000000  0.6514840000000  0.6500420000000 1.0
C      1  0.5006500000000  0.5759830000000  0.5106240000000 1.0
C      1  0.5006060000000  0.5109440000000  0.4212020000000 1.0
C      1  0.5006500000000  0.4240170000000  0.4893760000000 1.0
C      1  0.5006060000000  0.4890560000000  0.5787980000000 1.0
END
