TITL C-986978-6805-578 -5.4231034569926e-05 3375 -341.225531014186 0 0 60 (C1) n - 1
REM
REM in /home/bkarasulu/work/CARBON/AIRSS/Generating-Clusters/REBO/Higher-Symm/Only-C60
REM
REM
REM
REM
REM
REM ./C.cell (a2850807a9bf4ad07a5b6933b78d9264)
REM AIRSS Version 0.9.1 bugfix July 2018 build 013d7b7c2542+ Fri, 06 Jul 2018 19:26:36 +0100
REM compiler GCC version 9.2.1 20190827 (Red Hat 9.2.1-1)
REM options -cpp -mtune=generic -march=x86-64 -g -O0 -fpre-include=/usr/include/finclude/math-vector-fortran.h
REM seed 1215005598 -1721926340 -307033775 -873503644 -1296861147 924374857 52661908 729378563 1047376047 -1443405296 1448034443 -657979084 -1944036042 -180902806 -359881460 -785593679 1891489135 115379194 -1392918902 -574456812 -81396368 810992495 233181742 534214314 -635309113 -1538112643 182582757 1923103728 308628248 -2023852746 -1506069073 808186347 -1384182110
REM
CELL 1.54180   15.00000   15.00000   15.00000   90.00000   90.00000   90.00000
LATT -1
SFAC C  
C      1  0.4128590000000  0.2957310000000  0.5299980000000 1.0
C      1  0.5888710000000  0.2807020000000  0.5543530000000 1.0
C      1  0.6908530000000  0.4054280000000  0.5190570000000 1.0
C      1  0.3268240000000  0.4087580000000  0.5166230000000 1.0
C      1  0.3538250000000  0.4039550000000  0.6095770000000 1.0
C      1  0.6624810000000  0.4118490000000  0.6113640000000 1.0
C      1  0.4525330000000  0.5881040000000  0.3063300000000 1.0
C      1  0.5474360000000  0.5831980000000  0.3039640000000 1.0
C      1  0.5524130000000  0.7403620000000  0.3362810000000 1.0
C      1  0.4606470000000  0.7426270000000  0.3471680000000 1.0
C      1  0.4015700000000  0.6081250000000  0.6639360000000 1.0
C      1  0.5814560000000  0.6004860000000  0.6558380000000 1.0
C      1  0.5653910000000  0.5786370000000  0.4658540000000 1.0
C      1  0.4519400000000  0.5804850000000  0.4631820000000 1.0
C      1  0.2979140000000  0.4689070000000  0.6608260000000 1.0
C      1  0.7068750000000  0.4889660000000  0.6549990000000 1.0
C      1  0.6109170000000  0.7067520000000  0.5811860000000 1.0
C      1  0.3736370000000  0.7228440000000  0.6014100000000 1.0
C      1  0.4543370000000  0.4065480000000  0.6625540000000 1.0
C      1  0.5696880000000  0.4043580000000  0.6617680000000 1.0
C      1  0.4357810000000  0.6387040000000  0.5591740000000 1.0
C      1  0.5372020000000  0.6271580000000  0.5543650000000 1.0
C      1  0.3047230000000  0.5783110000000  0.5197400000000 1.0
C      1  0.6919860000000  0.5725350000000  0.5094620000000 1.0
C      1  0.7519150000000  0.4725080000000  0.3918560000000 1.0
C      1  0.2478940000000  0.4786220000000  0.4001820000000 1.0
C      1  0.5387000000000  0.4966600000000  0.4069780000000 1.0
C      1  0.4342810000000  0.4946990000000  0.3994870000000 1.0
C      1  0.5965910000000  0.6564950000000  0.3397090000000 1.0
C      1  0.4133330000000  0.6607160000000  0.3539950000000 1.0
C      1  0.6740500000000  0.4176250000000  0.3466530000000 1.0
C      1  0.3221050000000  0.4301660000000  0.3449310000000 1.0
C      1  0.6467870000000  0.6335710000000  0.4249590000000 1.0
C      1  0.3611500000000  0.6398600000000  0.4425630000000 1.0
C      1  0.4578070000000  0.2313670000000  0.4656130000000 1.0
C      1  0.5552050000000  0.2147930000000  0.4863350000000 1.0
C      1  0.4325040000000  0.4011150000000  0.3335110000000 1.0
C      1  0.5627050000000  0.3954070000000  0.3611210000000 1.0
C      1  0.2712960000000  0.4863240000000  0.4891900000000 1.0
C      1  0.7358280000000  0.4852790000000  0.4819480000000 1.0
C      1  0.4507250000000  0.7071470000000  0.6723150000000 1.0
C      1  0.5432050000000  0.7029190000000  0.6636250000000 1.0
C      1  0.5510290000000  0.4798130000000  0.5537610000000 1.0
C      1  0.4437190000000  0.4869310000000  0.5570710000000 1.0
C      1  0.4491870000000  0.3192980000000  0.3993340000000 1.0
C      1  0.5596140000000  0.3042630000000  0.4209540000000 1.0
C      1  0.6821930000000  0.6847260000000  0.5187340000000 1.0
C      1  0.3135470000000  0.6892430000000  0.5292560000000 1.0
C      1  0.5950870000000  0.4897620000000  0.3083530000000 1.0
C      1  0.3945680000000  0.5010250000000  0.2935230000000 1.0
C      1  0.5396680000000  0.5063520000000  0.6844160000000 1.0
C      1  0.4430220000000  0.5136380000000  0.6959840000000 1.0
C      1  0.3598110000000  0.5358560000000  0.5949160000000 1.0
C      1  0.6315880000000  0.5385650000000  0.5860830000000 1.0
C      1  0.4379660000000  0.3021720000000  0.6271000000000 1.0
C      1  0.5376760000000  0.3054390000000  0.6399660000000 1.0
C      1  0.4580700000000  0.3890210000000  0.5280580000000 1.0
C      1  0.5612020000000  0.3783890000000  0.5313840000000 1.0
C      1  0.6576650000000  0.3571150000000  0.4421000000000 1.0
C      1  0.3561430000000  0.3695890000000  0.4350290000000 1.0
END
