TITL C-986974-580-949 0.0442269103693623 3375 -353.561345942537 0 0 60 (C1) n - 1
REM
REM in /home/bkarasulu/work/CARBON/AIRSS/Generating-Clusters/REBO/Higher-Symm/Only-C60
REM
REM
REM
REM
REM
REM ./C.cell (a2850807a9bf4ad07a5b6933b78d9264)
REM AIRSS Version 0.9.1 bugfix July 2018 build 013d7b7c2542+ Fri, 06 Jul 2018 19:26:36 +0100
REM compiler GCC version 9.2.1 20190827 (Red Hat 9.2.1-1)
REM options -cpp -mtune=generic -march=x86-64 -g -O0 -fpre-include=/usr/include/finclude/math-vector-fortran.h
REM seed -2091923349 1357206321 1798673740 -850765205 -216747067 942553843 544872794 709686454 -1796246365 -1926945635 -1129132700 -363832744 -131921878 1482464032 -70595153 -1012571076 94526008 -1705228849 -1402622413 110459787 -1780909814 -1586848296 -958769061 1312949027 866454114 -651289931 -117455395 -1787691801 -896253743 718675094 -1742439158 -151671058 432565115
REM
CELL 1.54180   15.00000   15.00000   15.00000   90.00000   90.00000   90.00000
LATT -1
SFAC C  
C      1  0.5655640000000  0.5705430000000  0.6648210000000 1.0
C      1  0.5755680000000  0.6104620000000  0.3422490000000 1.0
C      1  0.5706220000000  0.3180350000000  0.4882760000000 1.0
C      1  0.5039530000000  0.4059300000000  0.5267960000000 1.0
C      1  0.4973990000000  0.5478820000000  0.5532410000000 1.0
C      1  0.5125610000000  0.5242240000000  0.4201160000000 1.0
C      1  0.4132440000000  0.5913600000000  0.6991000000000 1.0
C      1  0.4195760000000  0.6338440000000  0.3173310000000 1.0
C      1  0.4170000000000  0.2930080000000  0.4832350000000 1.0
C      1  0.6412020000000  0.3260090000000  0.6453170000000 1.0
C      1  0.6279010000000  0.7050940000000  0.5776540000000 1.0
C      1  0.6367890000000  0.4689940000000  0.2734900000000 1.0
C      1  0.3720330000000  0.6886880000000  0.5618830000000 1.0
C      1  0.3728630000000  0.4694130000000  0.2999300000000 1.0
C      1  0.3716910000000  0.3440210000000  0.6369170000000 1.0
C      1  0.6456890000000  0.3228510000000  0.8245340000000 1.0
C      1  0.6140140000000  0.8631170000000  0.4939630000000 1.0
C      1  0.6304740000000  0.3203550000000  0.1736130000000 1.0
C      1  0.3896470000000  0.4164410000000  0.6981450000000 1.0
C      1  0.3969120000000  0.7060570000000  0.4687890000000 1.0
C      1  0.3927700000000  0.3810460000000  0.3340450000000 1.0
C      1  0.6978790000000  0.6485740000000  0.5593640000000 1.0
C      1  0.6980940000000  0.4766320000000  0.3413330000000 1.0
C      1  0.6976430000000  0.3814700000000  0.5986770000000 1.0
C      1  0.5421800000000  0.4347710000000  0.3603980000000 1.0
C      1  0.5351540000000  0.4060780000000  0.6358300000000 1.0
C      1  0.5388000000000  0.6375770000000  0.5051050000000 1.0
C      1  0.3379640000000  0.5601540000000  0.4193520000000 1.0
C      1  0.3031010000000  0.3996350000000  0.5099960000000 1.0
C      1  0.3047050000000  0.5491130000000  0.5843950000000 1.0
C      1  0.2991440000000  0.5085860000000  0.3485120000000 1.0
C      1  0.2896490000000  0.3583000000000  0.5898100000000 1.0
C      1  0.2888500000000  0.6407670000000  0.5690310000000 1.0
C      1  0.6056260000000  0.5853670000000  0.4417750000000 1.0
C      1  0.5899930000000  0.4214480000000  0.4541050000000 1.0
C      1  0.5808730000000  0.4908270000000  0.5948030000000 1.0
C      1  0.5497880000000  0.3026490000000  0.5957190000000 1.0
C      1  0.5398980000000  0.6583490000000  0.6137220000000 1.0
C      1  0.5457070000000  0.5227980000000  0.2913450000000 1.0
C      1  0.3445920000000  0.5074870000000  0.6771730000000 1.0
C      1  0.3534460000000  0.6539720000000  0.3953810000000 1.0
C      1  0.3486470000000  0.3531320000000  0.4240300000000 1.0
C      1  0.4103700000000  0.4299450000000  0.4937610000000 1.0
C      1  0.4106610000000  0.5310550000000  0.5805620000000 1.0
C      1  0.4205590000000  0.5176790000000  0.4486820000000 1.0
C      1  0.4939290000000  0.5378050000000  0.7216260000000 1.0
C      1  0.5034540000000  0.6741690000000  0.3517720000000 1.0
C      1  0.4939840000000  0.2928560000000  0.4221900000000 1.0
C      1  0.6801620000000  0.4711770000000  0.4415890000000 1.0
C      1  0.6702010000000  0.4699190000000  0.5539890000000 1.0
C      1  0.6902700000000  0.5654220000000  0.4999200000000 1.0
C      1  0.4835830000000  0.3548780000000  0.3483590000000 1.0
C      1  0.4803270000000  0.4406170000000  0.7113060000000 1.0
C      1  0.4898810000000  0.7010390000000  0.4453070000000 1.0
C      1  0.6210160000000  0.7894360000000  0.5404190000000 1.0
C      1  0.6348240000000  0.3967750000000  0.2158050000000 1.0
C      1  0.6448630000000  0.3174950000000  0.7373130000000 1.0
C      1  0.4386080000000  0.3017650000000  0.5783310000000 1.0
C      1  0.4347460000000  0.6623190000000  0.6334310000000 1.0
C      1  0.4393570000000  0.5405850000000  0.2823380000000 1.0
END
