TITL C-986974-580-750 0.00545530790930256 3375 -348.367514124759 0 0 60 (C2) n - 1
REM
REM in /home/bkarasulu/work/CARBON/AIRSS/Generating-Clusters/REBO/Higher-Symm/Only-C60
REM
REM
REM
REM
REM
REM ./C.cell (a2850807a9bf4ad07a5b6933b78d9264)
REM AIRSS Version 0.9.1 bugfix July 2018 build 013d7b7c2542+ Fri, 06 Jul 2018 19:26:36 +0100
REM compiler GCC version 9.2.1 20190827 (Red Hat 9.2.1-1)
REM options -cpp -mtune=generic -march=x86-64 -g -O0 -fpre-include=/usr/include/finclude/math-vector-fortran.h
REM seed 1039473173 -121192009 1423855235 -40102526 -1617483083 -1727074044 31753585 -441791691 2132963779 1843571916 503620605 218859987 -1519041765 -479952782 -78274816 -437028284 -1179891658 -381280862 1996698949 12900053 -549269860 1818888679 -338892768 -109930850 1859284157 1667770771 499347549 -1654950573 893804841 -473822806 850365091 -2020081248 373641908
REM
CELL 1.54180   15.00000   15.00000   15.00000   90.00000   90.00000   90.00000
LATT -1
SFAC C  
C      1  0.4459330000000  0.5361070000000  0.4016720000000 1.0
C      1  0.4459350000000  0.4675210000000  0.6092300000000 1.0
C      1  0.5588760000000  0.3844670000000  0.3926440000000 1.0
C      1  0.5588770000000  0.6191630000000  0.6182540000000 1.0
C      1  0.6362710000000  0.5492380000000  0.7005510000000 1.0
C      1  0.6362700000000  0.4543890000000  0.3103450000000 1.0
C      1  0.6655690000000  0.6081640000000  0.6075110000000 1.0
C      1  0.6655690000000  0.3954630000000  0.4033840000000 1.0
C      1  0.5004010000000  0.3072240000000  0.4516290000000 1.0
C      1  0.5004010000000  0.6964040000000  0.5592680000000 1.0
C      1  0.6722620000000  0.3893770000000  0.6114870000000 1.0
C      1  0.6722600000000  0.6142510000000  0.3994090000000 1.0
C      1  0.2774420000000  0.6650650000000  0.5599370000000 1.0
C      1  0.2774430000000  0.3385660000000  0.4509610000000 1.0
C      1  0.4855230000000  0.6838460000000  0.6681410000000 1.0
C      1  0.4855230000000  0.3197830000000  0.3427560000000 1.0
C      1  0.3897610000000  0.6771770000000  0.5758450000000 1.0
C      1  0.3897620000000  0.3264530000000  0.4350520000000 1.0
C      1  0.6913850000000  0.4981610000000  0.6164990000000 1.0
C      1  0.6913840000000  0.5054660000000  0.3943990000000 1.0
C      1  0.4693000000000  0.4326760000000  0.2743870000000 1.0
C      1  0.4693010000000  0.5709530000000  0.7365100000000 1.0
C      1  0.5571060000000  0.4457780000000  0.2700600000000 1.0
C      1  0.5571060000000  0.5578510000000  0.7408360000000 1.0
C      1  0.5456330000000  0.2814620000000  0.5350090000000 1.0
C      1  0.5456320000000  0.7221650000000  0.4758870000000 1.0
C      1  0.3483310000000  0.3563090000000  0.5369960000000 1.0
C      1  0.3483300000000  0.6473210000000  0.4739020000000 1.0
C      1  0.2508310000000  0.4290550000000  0.3974500000000 1.0
C      1  0.2508300000000  0.5745790000000  0.6134500000000 1.0
C      1  0.5096850000000  0.3702870000000  0.6743640000000 1.0
C      1  0.5096830000000  0.6333390000000  0.3365340000000 1.0
C      1  0.3924720000000  0.3691450000000  0.3297860000000 1.0
C      1  0.3924730000000  0.6344840000000  0.6811120000000 1.0
C      1  0.2534010000000  0.5849770000000  0.4814360000000 1.0
C      1  0.2534020000000  0.4186540000000  0.5294600000000 1.0
C      1  0.7612630000000  0.5914780000000  0.4683340000000 1.0
C      1  0.7612630000000  0.4121510000000  0.5425600000000 1.0
C      1  0.4918060000000  0.2896690000000  0.6106650000000 1.0
C      1  0.4918050000000  0.7139580000000  0.4002320000000 1.0
C      1  0.5453450000000  0.4877590000000  0.4043060000000 1.0
C      1  0.5453470000000  0.5158690000000  0.6065950000000 1.0
C      1  0.6338460000000  0.6952130000000  0.4671900000000 1.0
C      1  0.6338460000000  0.3084140000000  0.5437060000000 1.0
C      1  0.3194030000000  0.4905320000000  0.4147220000000 1.0
C      1  0.3194020000000  0.5131000000000  0.5961760000000 1.0
C      1  0.3900490000000  0.4793780000000  0.3375040000000 1.0
C      1  0.3900490000000  0.5242500000000  0.6733940000000 1.0
C      1  0.4145400000000  0.3683500000000  0.6063940000000 1.0
C      1  0.4145380000000  0.6352780000000  0.4045050000000 1.0
C      1  0.5814670000000  0.5728260000000  0.3544580000000 1.0
C      1  0.5814700000000  0.4308000000000  0.6564400000000 1.0
C      1  0.7005070000000  0.6488970000000  0.5245030000000 1.0
C      1  0.7005070000000  0.3547310000000  0.4863920000000 1.0
C      1  0.7864220000000  0.5018140000000  0.5054460000000 1.0
C      1  0.5722050000000  0.5018160000000  0.5054500000000 1.0
C      1  0.3552710000000  0.5018170000000  0.5054500000000 1.0
C      1  0.2223810000000  0.5018140000000  0.5054490000000 1.0
C      1  0.4608890000000  0.5018150000000  0.5054510000000 1.0
C      1  0.6704760000000  0.5018150000000  0.5054490000000 1.0
END
