TITL C-986978-6805-678 0.0170554257259851 3375 -340.668891674414 0 0 60 (C1) n - 1
REM
REM in /home/bkarasulu/work/CARBON/AIRSS/Generating-Clusters/REBO/Higher-Symm/Only-C60
REM
REM
REM
REM
REM
REM ./C.cell (a2850807a9bf4ad07a5b6933b78d9264)
REM AIRSS Version 0.9.1 bugfix July 2018 build 013d7b7c2542+ Fri, 06 Jul 2018 19:26:36 +0100
REM compiler GCC version 9.2.1 20190827 (Red Hat 9.2.1-1)
REM options -cpp -mtune=generic -march=x86-64 -g -O0 -fpre-include=/usr/include/finclude/math-vector-fortran.h
REM seed -1037835273 117516020 568764920 -595933006 1042433705 1517762065 -434473085 -362630873 -257483131 -1896558249 217640792 -1345762625 -982195645 1958738112 -1857656179 8788938 1120543442 -1266202101 -381162072 71710277 -1016033653 1343309179 -317460584 -187704505 756358639 -732196344 -1248095984 -145580262 168359886 -364407389 1634439150 -749521891 -152437932
REM
CELL 1.54180   15.00000   15.00000   15.00000   90.00000   90.00000   90.00000
LATT -1
SFAC C  
C      1  0.3964530000000  0.3890840000000  0.3941350000000 1.0
C      1  0.3977620000000  0.6047160000000  0.4025480000000 1.0
C      1  0.4470390000000  0.3097340000000  0.4553330000000 1.0
C      1  0.4460320000000  0.6813250000000  0.4640710000000 1.0
C      1  0.2967440000000  0.5906480000000  0.4110990000000 1.0
C      1  0.2941960000000  0.3934400000000  0.4007500000000 1.0
C      1  0.4297310000000  0.6015090000000  0.3056570000000 1.0
C      1  0.4331050000000  0.4041990000000  0.2995920000000 1.0
C      1  0.3326180000000  0.5568870000000  0.5634290000000 1.0
C      1  0.3288480000000  0.4435700000000  0.5533290000000 1.0
C      1  0.5456510000000  0.3117200000000  0.3978590000000 1.0
C      1  0.5446640000000  0.6871300000000  0.4068860000000 1.0
C      1  0.6890010000000  0.5761800000000  0.3580640000000 1.0
C      1  0.7020460000000  0.4113180000000  0.3482580000000 1.0
C      1  0.6475160000000  0.6910990000000  0.4562940000000 1.0
C      1  0.6426820000000  0.3059580000000  0.4563890000000 1.0
C      1  0.2608430000000  0.4411130000000  0.4701730000000 1.0
C      1  0.2708130000000  0.5391590000000  0.4815180000000 1.0
C      1  0.4739920000000  0.5624040000000  0.5943660000000 1.0
C      1  0.4590070000000  0.4549220000000  0.5791150000000 1.0
C      1  0.5498810000000  0.6096090000000  0.7443490000000 1.0
C      1  0.5469960000000  0.4034620000000  0.7199840000000 1.0
C      1  0.3769440000000  0.4185690000000  0.6484430000000 1.0
C      1  0.3811170000000  0.5845410000000  0.6555840000000 1.0
C      1  0.4573270000000  0.3714000000000  0.7415300000000 1.0
C      1  0.4569550000000  0.6358580000000  0.7500360000000 1.0
C      1  0.7027000000000  0.3809600000000  0.4433190000000 1.0
C      1  0.7100540000000  0.6180240000000  0.4411920000000 1.0
C      1  0.4569710000000  0.5497350000000  0.4824080000000 1.0
C      1  0.4542920000000  0.4416440000000  0.4713550000000 1.0
C      1  0.5990220000000  0.4359780000000  0.3801200000000 1.0
C      1  0.5925230000000  0.5414110000000  0.3731620000000 1.0
C      1  0.5510330000000  0.5911910000000  0.4613330000000 1.0
C      1  0.5477020000000  0.3986760000000  0.4658990000000 1.0
C      1  0.3909370000000  0.6531830000000  0.5483520000000 1.0
C      1  0.3901290000000  0.3485730000000  0.5408710000000 1.0
C      1  0.5000200000000  0.2292010000000  0.5065520000000 1.0
C      1  0.4999620000000  0.7700020000000  0.5008630000000 1.0
C      1  0.3691910000000  0.4615820000000  0.2431910000000 1.0
C      1  0.3667140000000  0.5454980000000  0.2465640000000 1.0
C      1  0.5296750000000  0.5587650000000  0.2876530000000 1.0
C      1  0.5325380000000  0.4543230000000  0.2928390000000 1.0
C      1  0.7182930000000  0.5502590000000  0.5145690000000 1.0
C      1  0.7122200000000  0.4516240000000  0.5128550000000 1.0
C      1  0.6043090000000  0.2473060000000  0.5241850000000 1.0
C      1  0.6035580000000  0.7519070000000  0.5202890000000 1.0
C      1  0.4395640000000  0.3238050000000  0.6400150000000 1.0
C      1  0.4413220000000  0.6805360000000  0.6464860000000 1.0
C      1  0.5461590000000  0.4644880000000  0.6474830000000 1.0
C      1  0.5624360000000  0.5595420000000  0.6657560000000 1.0
C      1  0.5211090000000  0.6675970000000  0.3092070000000 1.0
C      1  0.5275150000000  0.3426000000000  0.3037400000000 1.0
C      1  0.5847280000000  0.6247670000000  0.5534060000000 1.0
C      1  0.5819980000000  0.3736770000000  0.5576910000000 1.0
C      1  0.3907280000000  0.4531580000000  0.7503670000000 1.0
C      1  0.3924570000000  0.5475440000000  0.7537080000000 1.0
C      1  0.6575300000000  0.4160210000000  0.5843750000000 1.0
C      1  0.6627940000000  0.5891800000000  0.5832610000000 1.0
C      1  0.5255210000000  0.7064390000000  0.5914920000000 1.0
C      1  0.5263310000000  0.2912490000000  0.5966540000000 1.0
END
