TITL C-986975-4297-375 -2.85411834443497e-06 3375 -362.461393229003 0 0 60 (C6h) n - 1
REM
REM in /home/bkarasulu/work/CARBON/AIRSS/Generating-Clusters/REBO/Higher-Symm/Only-C60
REM
REM
REM
REM
REM
REM ./C.cell (a2850807a9bf4ad07a5b6933b78d9264)
REM AIRSS Version 0.9.1 bugfix July 2018 build 013d7b7c2542+ Fri, 06 Jul 2018 19:26:36 +0100
REM compiler GCC version 9.2.1 20190827 (Red Hat 9.2.1-1)
REM options -cpp -mtune=generic -march=x86-64 -g -O0 -fpre-include=/usr/include/finclude/math-vector-fortran.h
REM seed 1720425144 -1075436971 -150594124 1773533372 2111839888 -1752394859 716444069 1423952784 -294594499 1636493355 1590061939 -1255110275 -594720239 1934566265 -252346924 -1321856035 -994440112 759684229 447190571 -182205565 -713860198 -319475136 -1808909054 -1307199381 -512354252 2097434969 1429986705 -802661737 1697961258 453537324 -1105764911 -1699661128 -1534875247
REM
CELL 1.54180   15.00000   15.00000   15.00000   90.00000   90.00000   90.00000
LATT -1
SFAC C  
C      1  0.6869900000000  0.5257270000000  0.6150750000000 1.0
C      1  0.5712150000000  0.6748020000000  0.6150750000000 1.0
C      1  0.3842250000000  0.6490750000000  0.6150750000000 1.0
C      1  0.3130090000000  0.4742730000000  0.6150760000000 1.0
C      1  0.4287850000000  0.3251980000000  0.6150750000000 1.0
C      1  0.6157750000000  0.3509250000000  0.6150750000000 1.0
C      1  0.6869910000000  0.5257270000000  0.3849240000000 1.0
C      1  0.5712150000000  0.6748020000000  0.3849250000000 1.0
C      1  0.3842250000000  0.6490750000000  0.3849250000000 1.0
C      1  0.3130100000000  0.4742730000000  0.3849250000000 1.0
C      1  0.4287850000000  0.3251980000000  0.3849250000000 1.0
C      1  0.6157750000000  0.3509250000000  0.3849250000000 1.0
C      1  0.3968710000000  0.4892740000000  0.4472320000000 1.0
C      1  0.4577250000000  0.4053250000000  0.4472320000000 1.0
C      1  0.5608540000000  0.4160510000000  0.4472320000000 1.0
C      1  0.6031290000000  0.5107260000000  0.4472320000000 1.0
C      1  0.5422750000000  0.5946750000000  0.4472320000000 1.0
C      1  0.4391470000000  0.5839490000000  0.4472320000000 1.0
C      1  0.3968710000000  0.4892740000000  0.5527680000000 1.0
C      1  0.4577250000000  0.4053250000000  0.5527680000000 1.0
C      1  0.5608530000000  0.4160510000000  0.5527680000000 1.0
C      1  0.6031290000000  0.5107260000000  0.5527680000000 1.0
C      1  0.5422750000000  0.5946750000000  0.5527680000000 1.0
C      1  0.4391460000000  0.5839490000000  0.5527680000000 1.0
C      1  0.7143460000000  0.3688890000000  0.5912970000000 1.0
C      1  0.7207190000000  0.6200740000000  0.5912970000000 1.0
C      1  0.5063730000000  0.7511850000000  0.5912970000000 1.0
C      1  0.2856540000000  0.6311110000000  0.5912970000000 1.0
C      1  0.2792810000000  0.3799260000000  0.5912970000000 1.0
C      1  0.4936270000000  0.2488150000000  0.5912970000000 1.0
C      1  0.7143460000000  0.3688890000000  0.4087030000000 1.0
C      1  0.7207190000000  0.6200740000000  0.4087030000000 1.0
C      1  0.5063730000000  0.7511850000000  0.4087030000000 1.0
C      1  0.2856540000000  0.6311110000000  0.4087030000000 1.0
C      1  0.2792810000000  0.3799260000000  0.4087030000000 1.0
C      1  0.4936270000000  0.2488150000000  0.4087030000000 1.0
C      1  0.5977850000000  0.5132170000000  0.6851290000000 1.0
C      1  0.5374460000000  0.5912930000000  0.6851290000000 1.0
C      1  0.4396610000000  0.5780760000000  0.6851290000000 1.0
C      1  0.4022150000000  0.4867830000000  0.6851290000000 1.0
C      1  0.4625540000000  0.4087070000000  0.6851290000000 1.0
C      1  0.5603390000000  0.4219240000000  0.6851290000000 1.0
C      1  0.5977850000000  0.5132170000000  0.3148710000000 1.0
C      1  0.5374460000000  0.5912930000000  0.3148710000000 1.0
C      1  0.4396610000000  0.5780760000000  0.3148710000000 1.0
C      1  0.4022150000000  0.4867830000000  0.3148710000000 1.0
C      1  0.4625540000000  0.4087070000000  0.3148710000000 1.0
C      1  0.5603390000000  0.4219240000000  0.3148710000000 1.0
C      1  0.4299720000000  0.7204970000000  0.4520160000000 1.0
C      1  0.2740300000000  0.5496030000000  0.4520160000000 1.0
C      1  0.3440570000000  0.3291060000000  0.4520160000000 1.0
C      1  0.5700280000000  0.2795030000000  0.4520160000000 1.0
C      1  0.7259700000000  0.4503970000000  0.4520160000000 1.0
C      1  0.6559430000000  0.6708940000000  0.4520160000000 1.0
C      1  0.4299720000000  0.7204970000000  0.5479840000000 1.0
C      1  0.2740300000000  0.5496030000000  0.5479840000000 1.0
C      1  0.3440570000000  0.3291060000000  0.5479840000000 1.0
C      1  0.5700280000000  0.2795030000000  0.5479840000000 1.0
C      1  0.7259700000000  0.4503970000000  0.5479840000000 1.0
C      1  0.6559430000000  0.6708940000000  0.5479840000000 1.0
END
