TITL C-986976-6631-906 6.93735423617342e-07 3375 -324.927811177346 0 0 60 (Oh) n - 1
REM
REM in /home/bkarasulu/work/CARBON/AIRSS/Generating-Clusters/REBO/Higher-Symm/Only-C60
REM
REM
REM
REM
REM
REM ./C.cell (a2850807a9bf4ad07a5b6933b78d9264)
REM AIRSS Version 0.9.1 bugfix July 2018 build 013d7b7c2542+ Fri, 06 Jul 2018 19:26:36 +0100
REM compiler GCC version 9.2.1 20190827 (Red Hat 9.2.1-1)
REM options -cpp -mtune=generic -march=x86-64 -g -O0 -fpre-include=/usr/include/finclude/math-vector-fortran.h
REM seed 1748277030 -781733592 -1414974137 -1206746874 -1201997573 -1515871908 -935615518 -1679438452 -1146271332 -1446336856 -1813084058 -1507548128 551601531 918472253 700516641 928638100 -1332865842 1820147794 -713126150 478270793 -982213662 181227168 673108844 -1757123860 -838237165 2138413815 1872566734 -2015974510 -1738236977 855729258 -1673190221 -1051170059 -346293393
REM
CELL 1.54180   15.00000   15.00000   15.00000   90.00000   90.00000   90.00000
LATT -1
SFAC C  
C      1  0.5000000000000  0.3683900000000  0.7396900000000 1.0
C      1  0.3683900000000  0.7396900000000  0.5000000000000 1.0
C      1  0.7396900000000  0.5000000000000  0.3683900000000 1.0
C      1  0.5000000000000  0.3683900000000  0.2603100000000 1.0
C      1  0.5000000000000  0.6316100000000  0.7396900000000 1.0
C      1  0.5000000000000  0.6316100000000  0.2603100000000 1.0
C      1  0.6316100000000  0.7396900000000  0.5000000000000 1.0
C      1  0.6316100000000  0.2603100000000  0.5000000000000 1.0
C      1  0.3683900000000  0.2603100000000  0.5000000000000 1.0
C      1  0.2603100000000  0.5000000000000  0.6316100000000 1.0
C      1  0.2603100000000  0.5000000000000  0.3683900000000 1.0
C      1  0.7396900000000  0.5000000000000  0.6316100000000 1.0
C      1  0.7396900000000  0.3683900000000  0.5000000000000 1.0
C      1  0.5000000000000  0.7396900000000  0.3683900000000 1.0
C      1  0.3683900000000  0.5000000000000  0.7396900000000 1.0
C      1  0.2603100000000  0.3683900000000  0.5000000000000 1.0
C      1  0.7396900000000  0.6316100000000  0.5000000000000 1.0
C      1  0.2603100000000  0.6316100000000  0.5000000000000 1.0
C      1  0.5000000000000  0.7396900000000  0.6316100000000 1.0
C      1  0.5000000000000  0.2603100000000  0.6316100000000 1.0
C      1  0.5000000000000  0.2603100000000  0.3683900000000 1.0
C      1  0.6316100000000  0.5000000000000  0.2603100000000 1.0
C      1  0.3683900000000  0.5000000000000  0.2603100000000 1.0
C      1  0.6316100000000  0.5000000000000  0.7396900000000 1.0
C      1  0.4244960000000  0.3507210000000  0.5000000000000 1.0
C      1  0.3507210000000  0.5000000000000  0.4244960000000 1.0
C      1  0.5000000000000  0.4244960000000  0.3507210000000 1.0
C      1  0.5755040000000  0.3507210000000  0.5000000000000 1.0
C      1  0.5755040000000  0.6492790000000  0.5000000000000 1.0
C      1  0.4244960000000  0.6492790000000  0.5000000000000 1.0
C      1  0.6492790000000  0.5000000000000  0.5755040000000 1.0
C      1  0.6492790000000  0.5000000000000  0.4244960000000 1.0
C      1  0.3507210000000  0.5000000000000  0.5755040000000 1.0
C      1  0.5000000000000  0.4244960000000  0.6492790000000 1.0
C      1  0.5000000000000  0.5755040000000  0.3507210000000 1.0
C      1  0.5000000000000  0.5755040000000  0.6492790000000 1.0
C      1  0.5000000000000  0.3507210000000  0.4244960000000 1.0
C      1  0.4244960000000  0.5000000000000  0.3507210000000 1.0
C      1  0.3507210000000  0.4244960000000  0.5000000000000 1.0
C      1  0.5000000000000  0.3507210000000  0.5755040000000 1.0
C      1  0.5000000000000  0.6492790000000  0.5755040000000 1.0
C      1  0.5000000000000  0.6492790000000  0.4244960000000 1.0
C      1  0.5755040000000  0.5000000000000  0.6492790000000 1.0
C      1  0.4244960000000  0.5000000000000  0.6492790000000 1.0
C      1  0.5755040000000  0.5000000000000  0.3507210000000 1.0
C      1  0.6492790000000  0.4244960000000  0.5000000000000 1.0
C      1  0.3507210000000  0.5755040000000  0.5000000000000 1.0
C      1  0.6492790000000  0.5755040000000  0.5000000000000 1.0
C      1  0.5000000000000  0.7226490000000  0.7226490000000 1.0
C      1  0.2773510000000  0.5000000000000  0.7226490000000 1.0
C      1  0.7226490000000  0.5000000000000  0.2773510000000 1.0
C      1  0.2773510000000  0.7226490000000  0.5000000000000 1.0
C      1  0.7226490000000  0.2773510000000  0.5000000000000 1.0
C      1  0.5000000000000  0.7226490000000  0.2773510000000 1.0
C      1  0.5000000000000  0.2773510000000  0.7226490000000 1.0
C      1  0.7226490000000  0.5000000000000  0.7226490000000 1.0
C      1  0.7226490000000  0.7226490000000  0.5000000000000 1.0
C      1  0.2773510000000  0.5000000000000  0.2773510000000 1.0
C      1  0.5000000000000  0.2773510000000  0.2773510000000 1.0
C      1  0.2773510000000  0.2773510000000  0.5000000000000 1.0
END
