TITL C-986974-580-204 -0.000965678618933049 3375 -358.479661627905 0 0 60 (C1) n - 1
REM
REM in /home/bkarasulu/work/CARBON/AIRSS/Generating-Clusters/REBO/Higher-Symm/Only-C60
REM
REM
REM
REM
REM
REM ./C.cell (a2850807a9bf4ad07a5b6933b78d9264)
REM AIRSS Version 0.9.1 bugfix July 2018 build 013d7b7c2542+ Fri, 06 Jul 2018 19:26:36 +0100
REM compiler GCC version 9.2.1 20190827 (Red Hat 9.2.1-1)
REM options -cpp -mtune=generic -march=x86-64 -g -O0 -fpre-include=/usr/include/finclude/math-vector-fortran.h
REM seed -223040615 -210168545 -609267888 -525600589 1149536275 -2105201172 1646469064 668659543 -435137991 -1190174063 636594881 285569534 -1700802074 1984442521 1580510525 79342686 -1684452364 1186942659 -1066424761 1397989447 -102346618 -913977093 1912436356 -594632246 460641260 -254167571 -2116085085 -1784701698 1866237919 629705370 -1294919011 2094303100 56067842
REM
CELL 1.54180   15.00000   15.00000   15.00000   90.00000   90.00000   90.00000
LATT -1
SFAC C  
C      1  0.6359480000000  0.6845710000000  0.6518210000000 1.0
C      1  0.6807750000000  0.3761950000000  0.6538650000000 1.0
C      1  0.3873460000000  0.3194390000000  0.6641310000000 1.0
C      1  0.3170010000000  0.6237040000000  0.6382350000000 1.0
C      1  0.3878600000000  0.6819680000000  0.6409510000000 1.0
C      1  0.3186590000000  0.3803190000000  0.6676550000000 1.0
C      1  0.6280280000000  0.3011880000000  0.6553840000000 1.0
C      1  0.7026430000000  0.6215020000000  0.6512670000000 1.0
C      1  0.3704840000000  0.4465510000000  0.5178110000000 1.0
C      1  0.4438970000000  0.6238420000000  0.4934040000000 1.0
C      1  0.6308510000000  0.5428090000000  0.5100890000000 1.0
C      1  0.5467090000000  0.3547910000000  0.5096350000000 1.0
C      1  0.6063660000000  0.4332350000000  0.5122190000000 1.0
C      1  0.5545360000000  0.6083810000000  0.5136400000000 1.0
C      1  0.3728950000000  0.5547890000000  0.4908240000000 1.0
C      1  0.4392340000000  0.3798360000000  0.5159180000000 1.0
C      1  0.5431240000000  0.3745320000000  0.3298740000000 1.0
C      1  0.3831100000000  0.4638680000000  0.3352720000000 1.0
C      1  0.4562290000000  0.6261050000000  0.3213600000000 1.0
C      1  0.6219450000000  0.5422180000000  0.3289490000000 1.0
C      1  0.4458060000000  0.3976040000000  0.3324940000000 1.0
C      1  0.6051980000000  0.4423920000000  0.3277070000000 1.0
C      1  0.5542280000000  0.6040300000000  0.3257050000000 1.0
C      1  0.3887530000000  0.5624420000000  0.3123440000000 1.0
C      1  0.3173340000000  0.5634560000000  0.3931910000000 1.0
C      1  0.5435260000000  0.6629890000000  0.4146080000000 1.0
C      1  0.6617810000000  0.4519850000000  0.4176230000000 1.0
C      1  0.4533340000000  0.3311700000000  0.4175920000000 1.0
C      1  0.6869580000000  0.5578720000000  0.4141830000000 1.0
C      1  0.4375070000000  0.6909060000000  0.4057230000000 1.0
C      1  0.3173440000000  0.4564400000000  0.4203560000000 1.0
C      1  0.5601740000000  0.3047770000000  0.4102440000000 1.0
C      1  0.6252800000000  0.7097760000000  0.4647970000000 1.0
C      1  0.7131660000000  0.3710580000000  0.4631200000000 1.0
C      1  0.3562040000000  0.2933420000000  0.4584080000000 1.0
C      1  0.2797790000000  0.6421010000000  0.4538990000000 1.0
C      1  0.3451030000000  0.7079910000000  0.4629740000000 1.0
C      1  0.2892250000000  0.3572030000000  0.4619610000000 1.0
C      1  0.6576170000000  0.2960130000000  0.4650130000000 1.0
C      1  0.6974510000000  0.6512810000000  0.4705810000000 1.0
C      1  0.4626340000000  0.6726710000000  0.5853270000000 1.0
C      1  0.6920790000000  0.5443010000000  0.6014370000000 1.0
C      1  0.5520940000000  0.2954490000000  0.6023020000000 1.0
C      1  0.3121330000000  0.4517600000000  0.6089420000000 1.0
C      1  0.5585070000000  0.6748410000000  0.6024340000000 1.0
C      1  0.3152500000000  0.5477040000000  0.5833580000000 1.0
C      1  0.4566490000000  0.3195150000000  0.6011110000000 1.0
C      1  0.6690460000000  0.4493860000000  0.5969230000000 1.0
C      1  0.7728040000000  0.5956510000000  0.5086850000000 1.0
C      1  0.6022430000000  0.2205770000000  0.5041960000000 1.0
C      1  0.2227150000000  0.4195880000000  0.5063960000000 1.0
C      1  0.4081050000000  0.7721570000000  0.5072260000000 1.0
C      1  0.2152450000000  0.5980180000000  0.5096590000000 1.0
C      1  0.4233070000000  0.2266470000000  0.4944080000000 1.0
C      1  0.7837490000000  0.4171890000000  0.5096750000000 1.0
C      1  0.5850140000000  0.7813180000000  0.5136270000000 1.0
C      1  0.7961050000000  0.5078420000000  0.5197340000000 1.0
C      1  0.5114520000000  0.2079790000000  0.5075070000000 1.0
C      1  0.2028040000000  0.5075290000000  0.5206220000000 1.0
C      1  0.4946620000000  0.7952070000000  0.5230090000000 1.0
END
