TITL C-986979-5873-313 7.34357819601178e-06 3375 -351.319678456859 0 0 60 (C3) n - 1
REM
REM in /home/bkarasulu/work/CARBON/AIRSS/Generating-Clusters/REBO/Higher-Symm/Only-C60
REM
REM
REM
REM
REM
REM ./C.cell (a2850807a9bf4ad07a5b6933b78d9264)
REM AIRSS Version 0.9.1 bugfix July 2018 build 013d7b7c2542+ Fri, 06 Jul 2018 19:26:36 +0100
REM compiler GCC version 9.2.1 20190827 (Red Hat 9.2.1-1)
REM options -cpp -mtune=generic -march=x86-64 -g -O0 -fpre-include=/usr/include/finclude/math-vector-fortran.h
REM seed 1948944816 329016 1388473025 1041006227 -1685126031 1119754569 1698704184 -1918837331 2069890763 -1631857551 -1276504147 -2030182340 665889176 1036671870 117950770 1553796531 1640053595 1059126111 -28590417 -1289234380 -1462977825 1866509729 1551985205 -1770319890 -1522740328 1626012798 1524020855 -1506585381 1904329322 -1221131112 -1067384643 -1029126577 -726892805
REM
CELL 1.54180   15.00000   15.00000   15.00000   90.00000   90.00000   90.00000
LATT -1
SFAC C  
C      1  0.5797200000000  0.4299950000000  0.3608640000000 1.0
C      1  0.5806350000000  0.4299910000000  0.6386060000000 1.0
C      1  0.3396450000000  0.4299930000000  0.5005280000000 1.0
C      1  0.3962480000000  0.2367130000000  0.5328470000000 1.0
C      1  0.5234260000000  0.2367140000000  0.3937210000000 1.0
C      1  0.5803240000000  0.2367120000000  0.5734230000000 1.0
C      1  0.6411370000000  0.6779510000000  0.5023070000000 1.0
C      1  0.4274360000000  0.6779500000000  0.6210780000000 1.0
C      1  0.4314280000000  0.6779530000000  0.3766210000000 1.0
C      1  0.2602350000000  0.6122140000000  0.5552760000000 1.0
C      1  0.5720130000000  0.6122170000000  0.2647210000000 1.0
C      1  0.6677520000000  0.6122120000000  0.6800070000000 1.0
C      1  0.5059500000000  0.2408400000000  0.6072230000000 1.0
C      1  0.4041640000000  0.2408420000000  0.4515370000000 1.0
C      1  0.5898850000000  0.2408410000000  0.4412310000000 1.0
C      1  0.7375420000000  0.6182300000000  0.6216700000000 1.0
C      1  0.2758620000000  0.6182310000000  0.6448840000000 1.0
C      1  0.4865970000000  0.6182350000000  0.2334500000000 1.0
C      1  0.7066380000000  0.4565400000000  0.5012090000000 1.0
C      1  0.3956330000000  0.4565380000000  0.6783490000000 1.0
C      1  0.3977280000000  0.4565420000000  0.3204410000000 1.0
C      1  0.5547300000000  0.6169460000000  0.5338780000000 1.0
C      1  0.4432980000000  0.6169460000000  0.5304600000000 1.0
C      1  0.5019730000000  0.6169470000000  0.4356660000000 1.0
C      1  0.6198960000000  0.6070850000000  0.3407690000000 1.0
C      1  0.5779510000000  0.6070810000000  0.6834500000000 1.0
C      1  0.3021540000000  0.6070840000000  0.4757850000000 1.0
C      1  0.4950290000000  0.6000290000000  0.6517400000000 1.0
C      1  0.3710760000000  0.6000320000000  0.4198270000000 1.0
C      1  0.6338950000000  0.6000310000000  0.4284370000000 1.0
C      1  0.5247560000000  0.3602470000000  0.3450520000000 1.0
C      1  0.6218090000000  0.3602440000000  0.5989110000000 1.0
C      1  0.3534340000000  0.3602450000000  0.5560320000000 1.0
C      1  0.5621150000000  0.7460190000000  0.5019540000000 1.0
C      1  0.4672530000000  0.7460190000000  0.5528200000000 1.0
C      1  0.4706330000000  0.7460200000000  0.4452340000000 1.0
C      1  0.4362700000000  0.3669220000000  0.6956490000000 1.0
C      1  0.3624260000000  0.3669260000000  0.3469820000000 1.0
C      1  0.7013030000000  0.3669240000000  0.4573650000000 1.0
C      1  0.7258360000000  0.5084760000000  0.3801460000000 1.0
C      1  0.4908790000000  0.5084720000000  0.7555070000000 1.0
C      1  0.2832850000000  0.5084770000000  0.3643480000000 1.0
C      1  0.4547090000000  0.5094880000000  0.6075490000000 1.0
C      1  0.4295060000000  0.5094910000000  0.4070030000000 1.0
C      1  0.6157850000000  0.5094890000000  0.4854490000000 1.0
C      1  0.7488220000000  0.5495740000000  0.4723810000000 1.0
C      1  0.3995080000000  0.5495720000000  0.7292960000000 1.0
C      1  0.3516700000000  0.5495770000000  0.2983240000000 1.0
C      1  0.3617760000000  0.6247270000000  0.6842370000000 1.0
C      1  0.4095600000000  0.6247310000000  0.2881780000000 1.0
C      1  0.7286650000000  0.6247280000000  0.5275890000000 1.0
C      1  0.3054330000000  0.4250950000000  0.4106930000000 1.0
C      1  0.6746250000000  0.4250950000000  0.3761520000000 1.0
C      1  0.5199420000000  0.4250910000000  0.7131520000000 1.0
C      1  0.4172520000000  0.2993580000000  0.6236230000000 1.0
C      1  0.4343110000000  0.2993610000000  0.3665230000000 1.0
C      1  0.6484360000000  0.2993590000000  0.5098470000000 1.0
C      1  0.3996980000000  0.5135460000000  0.5165050000000 1.0
C      1  0.5358570000000  0.5135470000000  0.4048830000000 1.0
C      1  0.5644450000000  0.5135450000000  0.5786120000000 1.0
END
