TITL C-986976-6631-713 0.00135290481843063 3375 -333.87978311375 0 0 60 (C1) n - 1
REM
REM in /home/bkarasulu/work/CARBON/AIRSS/Generating-Clusters/REBO/Higher-Symm/Only-C60
REM
REM
REM
REM
REM
REM ./C.cell (a2850807a9bf4ad07a5b6933b78d9264)
REM AIRSS Version 0.9.1 bugfix July 2018 build 013d7b7c2542+ Fri, 06 Jul 2018 19:26:36 +0100
REM compiler GCC version 9.2.1 20190827 (Red Hat 9.2.1-1)
REM options -cpp -mtune=generic -march=x86-64 -g -O0 -fpre-include=/usr/include/finclude/math-vector-fortran.h
REM seed -797105358 1698182883 970513080 1745558611 1111889670 1164847150 -1780325616 521411627 1650907939 1941682444 1312511830 1181304668 -267904321 -2144352801 -1712078742 1464350756 1707761551 462121724 1095766457 -835412083 -284225560 1434281584 -2000311635 -1640483808 2092331984 605244338 -1506845030 1261350209 986144306 -833607389 -1642384907 -47687472 -640779439
REM
CELL 1.54180   15.00000   15.00000   15.00000   90.00000   90.00000   90.00000
LATT -1
SFAC C  
C      1  0.3621540000000  0.4283550000000  0.6462420000000 1.0
C      1  0.6435900000000  0.3987920000000  0.6521390000000 1.0
C      1  0.5461000000000  0.6467480000000  0.6468430000000 1.0
C      1  0.6302930000000  0.4506960000000  0.3638810000000 1.0
C      1  0.3632140000000  0.4207130000000  0.3622690000000 1.0
C      1  0.4564860000000  0.6536490000000  0.3515590000000 1.0
C      1  0.6343650000000  0.5633850000000  0.3456340000000 1.0
C      1  0.3535460000000  0.6032800000000  0.3502920000000 1.0
C      1  0.4580010000000  0.3579640000000  0.3465390000000 1.0
C      1  0.3747240000000  0.5418360000000  0.6406330000000 1.0
C      1  0.6392620000000  0.5813650000000  0.6323010000000 1.0
C      1  0.5396040000000  0.3507530000000  0.6513800000000 1.0
C      1  0.3950970000000  0.7718670000000  0.5862660000000 1.0
C      1  0.3027240000000  0.2387480000000  0.6338470000000 1.0
C      1  0.8347490000000  0.4614120000000  0.6642980000000 1.0
C      1  0.6066040000000  0.7906870000000  0.3940110000000 1.0
C      1  0.6918620000000  0.2652120000000  0.4116960000000 1.0
C      1  0.1634690000000  0.4332740000000  0.3395200000000 1.0
C      1  0.6002630000000  0.2206330000000  0.4002980000000 1.0
C      1  0.6992780000000  0.7470500000000  0.3946660000000 1.0
C      1  0.1641950000000  0.5354970000000  0.3363340000000 1.0
C      1  0.3980300000000  0.2023850000000  0.6256310000000 1.0
C      1  0.3042840000000  0.7244130000000  0.5849040000000 1.0
C      1  0.8387360000000  0.5632690000000  0.6558290000000 1.0
C      1  0.4343940000000  0.5546880000000  0.5457930000000 1.0
C      1  0.4988410000000  0.3812490000000  0.5513690000000 1.0
C      1  0.6157480000000  0.5268560000000  0.5422160000000 1.0
C      1  0.5821240000000  0.5496850000000  0.4386730000000 1.0
C      1  0.4690320000000  0.4024110000000  0.4437790000000 1.0
C      1  0.3967970000000  0.5760780000000  0.4417240000000 1.0
C      1  0.5672130000000  0.4403950000000  0.4544020000000 1.0
C      1  0.4998230000000  0.6149950000000  0.4475180000000 1.0
C      1  0.3857700000000  0.4714110000000  0.4547590000000 1.0
C      1  0.4158350000000  0.4464010000000  0.5575360000000 1.0
C      1  0.5323730000000  0.5946190000000  0.5537540000000 1.0
C      1  0.6024130000000  0.4223760000000  0.5586240000000 1.0
C      1  0.4934850000000  0.6075220000000  0.2559140000000 1.0
C      1  0.4147670000000  0.4643830000000  0.2795790000000 1.0
C      1  0.5784960000000  0.4668220000000  0.2731110000000 1.0
C      1  0.5087500000000  0.5974290000000  0.7382660000000 1.0
C      1  0.5867330000000  0.4504640000000  0.7255900000000 1.0
C      1  0.4198770000000  0.4555050000000  0.7310550000000 1.0
C      1  0.4994030000000  0.4073430000000  0.7383500000000 1.0
C      1  0.5886010000000  0.5431750000000  0.7183300000000 1.0
C      1  0.4264600000000  0.5543540000000  0.7378370000000 1.0
C      1  0.4996340000000  0.4178210000000  0.2639580000000 1.0
C      1  0.4101830000000  0.5571100000000  0.2730660000000 1.0
C      1  0.5754610000000  0.5638810000000  0.2535250000000 1.0
C      1  0.7350130000000  0.4380070000000  0.6565640000000 1.0
C      1  0.4615750000000  0.6993150000000  0.6164570000000 1.0
C      1  0.3597210000000  0.3276300000000  0.6430370000000 1.0
C      1  0.2670310000000  0.4534880000000  0.3490530000000 1.0
C      1  0.5422240000000  0.7140460000000  0.3702310000000 1.0
C      1  0.6317170000000  0.3479080000000  0.3836190000000 1.0
C      1  0.2631530000000  0.5616560000000  0.3449970000000 1.0
C      1  0.5377440000000  0.2976280000000  0.3728480000000 1.0
C      1  0.6375600000000  0.6645390000000  0.3696510000000 1.0
C      1  0.7346060000000  0.5458760000000  0.6469860000000 1.0
C      1  0.4584500000000  0.2850590000000  0.6347890000000 1.0
C      1  0.3683630000000  0.6458900000000  0.6160310000000 1.0
END
