TITL C-986973-6940-949 0.0184224169611913 3375 -338.564334085918 0 0 60 (C1) n - 1
REM
REM in /home/bkarasulu/work/CARBON/AIRSS/Generating-Clusters/REBO/Higher-Symm/Only-C60
REM
REM
REM
REM
REM
REM ./C.cell (a2850807a9bf4ad07a5b6933b78d9264)
REM AIRSS Version 0.9.1 bugfix July 2018 build 013d7b7c2542+ Fri, 06 Jul 2018 19:26:36 +0100
REM compiler GCC version 9.2.1 20190827 (Red Hat 9.2.1-1)
REM options -cpp -mtune=generic -march=x86-64 -g -O0 -fpre-include=/usr/include/finclude/math-vector-fortran.h
REM seed -684253422 -373203398 1253713966 1248544582 -168689052 1906932811 1721500880 -1441807570 875200366 1450136593 934996437 -316850221 1956282433 -1472958510 -1540728046 -564991015 -1616547648 1619073247 369112730 -689813028 1034402216 -1551153499 1271971121 128814981 773356950 1368377748 115675671 36319748 -367936441 -1026005573 -2032262201 -1945685357 1901957257
REM
CELL 1.54180   15.00000   15.00000   15.00000   90.00000   90.00000   90.00000
LATT -1
SFAC C  
C      1  0.4172830000000  0.6499800000000  0.5025530000000 1.0
C      1  0.4124130000000  0.3726770000000  0.5128870000000 1.0
C      1  0.6690220000000  0.4895430000000  0.5139300000000 1.0
C      1  0.6472710000000  0.6542940000000  0.6980200000000 1.0
C      1  0.2849000000000  0.5573930000000  0.7049000000000 1.0
C      1  0.5678980000000  0.3096300000000  0.6793160000000 1.0
C      1  0.3477000000000  0.6145200000000  0.2896800000000 1.0
C      1  0.4778430000000  0.3159880000000  0.2978420000000 1.0
C      1  0.6788280000000  0.5750370000000  0.2979220000000 1.0
C      1  0.5351880000000  0.7609480000000  0.4026400000000 1.0
C      1  0.2568790000000  0.4011510000000  0.4052020000000 1.0
C      1  0.7138270000000  0.3375580000000  0.3994340000000 1.0
C      1  0.6385100000000  0.4565460000000  0.4165640000000 1.0
C      1  0.4684450000000  0.6351950000000  0.4108640000000 1.0
C      1  0.3956490000000  0.4146210000000  0.4165980000000 1.0
C      1  0.3876150000000  0.3990870000000  0.6956400000000 1.0
C      1  0.6127260000000  0.4704460000000  0.6398250000000 1.0
C      1  0.4684730000000  0.6137470000000  0.6586700000000 1.0
C      1  0.7647380000000  0.4326630000000  0.3826590000000 1.0
C      1  0.4279580000000  0.7579510000000  0.3810970000000 1.0
C      1  0.3166370000000  0.3108850000000  0.3922420000000 1.0
C      1  0.2996210000000  0.6212070000000  0.6224260000000 1.0
C      1  0.4881720000000  0.2739320000000  0.6147130000000 1.0
C      1  0.7081440000000  0.6120670000000  0.6266370000000 1.0
C      1  0.4804320000000  0.6857670000000  0.5812700000000 1.0
C      1  0.3433750000000  0.3890150000000  0.5972850000000 1.0
C      1  0.6806750000000  0.4057940000000  0.5872920000000 1.0
C      1  0.3659700000000  0.4865160000000  0.7404580000000 1.0
C      1  0.5641450000000  0.4177660000000  0.6998510000000 1.0
C      1  0.5486290000000  0.6115520000000  0.7219300000000 1.0
C      1  0.3296900000000  0.6195090000000  0.5305560000000 1.0
C      1  0.4851400000000  0.3094960000000  0.5298090000000 1.0
C      1  0.6788570000000  0.5831180000000  0.5393070000000 1.0
C      1  0.6506070000000  0.3105840000000  0.6133540000000 1.0
C      1  0.5800100000000  0.6681550000000  0.6062360000000 1.0
C      1  0.3135500000000  0.4871870000000  0.6194350000000 1.0
C      1  0.6386690000000  0.7341590000000  0.5395110000000 1.0
C      1  0.2443180000000  0.5014610000000  0.5441760000000 1.0
C      1  0.6328370000000  0.2617120000000  0.5371950000000 1.0
C      1  0.6655250000000  0.2940140000000  0.3102080000000 1.0
C      1  0.6008450000000  0.7446680000000  0.3172130000000 1.0
C      1  0.2385540000000  0.4592100000000  0.3111920000000 1.0
C      1  0.6013580000000  0.3549720000000  0.4086330000000 1.0
C      1  0.5762210000000  0.6543940000000  0.4111220000000 1.0
C      1  0.3223720000000  0.4944330000000  0.4071050000000 1.0
C      1  0.5872180000000  0.5571820000000  0.6324630000000 1.0
C      1  0.4052350000000  0.5474340000000  0.6556480000000 1.0
C      1  0.4726230000000  0.3666810000000  0.7083320000000 1.0
C      1  0.5688380000000  0.3167060000000  0.3117580000000 1.0
C      1  0.6300770000000  0.6506510000000  0.3157010000000 1.0
C      1  0.3029510000000  0.5359900000000  0.3086480000000 1.0
C      1  0.4020110000000  0.3384730000000  0.3458100000000 1.0
C      1  0.6991220000000  0.4970890000000  0.3428700000000 1.0
C      1  0.4065210000000  0.6700890000000  0.3353510000000 1.0
C      1  0.3029350000000  0.3529490000000  0.4971150000000 1.0
C      1  0.7371460000000  0.4034370000000  0.4887500000000 1.0
C      1  0.4644150000000  0.7501400000000  0.4888240000000 1.0
C      1  0.2892360000000  0.5516750000000  0.4811130000000 1.0
C      1  0.5646310000000  0.3008590000000  0.4834410000000 1.0
C      1  0.6395220000000  0.6500970000000  0.4887760000000 1.0
END
