TITL C-986979-5873-185 -7.63257679666539e-06 3375 -355.03454819666 0 0 60 (S4) n - 1
REM
REM in /home/bkarasulu/work/CARBON/AIRSS/Generating-Clusters/REBO/Higher-Symm/Only-C60
REM
REM
REM
REM
REM
REM ./C.cell (a2850807a9bf4ad07a5b6933b78d9264)
REM AIRSS Version 0.9.1 bugfix July 2018 build 013d7b7c2542+ Fri, 06 Jul 2018 19:26:36 +0100
REM compiler GCC version 9.2.1 20190827 (Red Hat 9.2.1-1)
REM options -cpp -mtune=generic -march=x86-64 -g -O0 -fpre-include=/usr/include/finclude/math-vector-fortran.h
REM seed -2107593614 1573626078 -1761047476 -2132795847 1595904868 447634988 -1766001444 968194972 1478628650 1676430567 -1188421140 -2000066346 -1913184433 816107059 -318876905 2131378178 1241203748 -1298695539 -1858102456 -249725510 -560456790 -877275008 -1379700275 -1768060257 68153242 -1853871359 -1616684832 32914170 1252916068 -1269850402 -1948932351 839084998 1096037719
REM
CELL 1.54180   15.00000   15.00000   15.00000   90.00000   90.00000   90.00000
LATT -1
SFAC C  
C      1  0.4304230000000  0.5269960000000  0.7308220000000 1.0
C      1  0.4304420000000  0.4730000000000  0.2691940000000 1.0
C      1  0.5726060000000  0.5341940000000  0.2587260000000 1.0
C      1  0.5726030000000  0.4658250000000  0.7412760000000 1.0
C      1  0.4273940000000  0.7412720000000  0.5341870000000 1.0
C      1  0.4273970000000  0.2587210000000  0.4658180000000 1.0
C      1  0.5695460000000  0.2692010000000  0.5269990000000 1.0
C      1  0.5695890000000  0.7308290000000  0.4730030000000 1.0
C      1  0.6282800000000  0.3334220000000  0.5999050000000 1.0
C      1  0.6283000000000  0.6665830000000  0.4001010000000 1.0
C      1  0.3564510000000  0.3280520000000  0.4139850000000 1.0
C      1  0.3564510000000  0.6719350000000  0.5860130000000 1.0
C      1  0.6435540000000  0.5860180000000  0.3280590000000 1.0
C      1  0.6435440000000  0.4139900000000  0.6719420000000 1.0
C      1  0.3717110000000  0.4000910000000  0.3334150000000 1.0
C      1  0.3717090000000  0.5998960000000  0.6665760000000 1.0
C      1  0.4359950000000  0.3120150000000  0.5561970000000 1.0
C      1  0.4359950000000  0.6879700000000  0.4438120000000 1.0
C      1  0.5464790000000  0.3306590000000  0.4477130000000 1.0
C      1  0.5465030000000  0.6693730000000  0.5522990000000 1.0
C      1  0.4535230000000  0.5522850000000  0.3306560000000 1.0
C      1  0.4534950000000  0.4476990000000  0.6693690000000 1.0
C      1  0.5640010000000  0.4438070000000  0.3120060000000 1.0
C      1  0.5640090000000  0.5561910000000  0.6879620000000 1.0
C      1  0.3155590000000  0.5165020000000  0.6206400000000 1.0
C      1  0.3155690000000  0.4834840000000  0.3793590000000 1.0
C      1  0.6959790000000  0.5093500000000  0.3751760000000 1.0
C      1  0.6959860000000  0.4906470000000  0.6248240000000 1.0
C      1  0.3040180000000  0.6248160000000  0.5093500000000 1.0
C      1  0.3040170000000  0.3751690000000  0.4906480000000 1.0
C      1  0.6844290000000  0.3793590000000  0.5165090000000 1.0
C      1  0.6844430000000  0.6206400000000  0.4834910000000 1.0
C      1  0.4664850000000  0.3197890000000  0.3812090000000 1.0
C      1  0.4664860000000  0.6802020000000  0.6187900000000 1.0
C      1  0.5189130000000  0.3004070000000  0.6187230000000 1.0
C      1  0.5189220000000  0.6995860000000  0.3813110000000 1.0
C      1  0.4810820000000  0.3812810000000  0.3004040000000 1.0
C      1  0.4810830000000  0.6186930000000  0.6995840000000 1.0
C      1  0.5335190000000  0.6187920000000  0.3198050000000 1.0
C      1  0.5335110000000  0.3812110000000  0.6802180000000 1.0
C      1  0.3552110000000  0.5671030000000  0.3668380000000 1.0
C      1  0.3551900000000  0.4328770000000  0.6331710000000 1.0
C      1  0.6552970000000  0.5753420000000  0.6388800000000 1.0
C      1  0.6552800000000  0.4246620000000  0.3611170000000 1.0
C      1  0.3447070000000  0.3611100000000  0.5753410000000 1.0
C      1  0.3447160000000  0.6388720000000  0.4246620000000 1.0
C      1  0.6448100000000  0.6331710000000  0.5671130000000 1.0
C      1  0.6447880000000  0.3668390000000  0.4328870000000 1.0
C      1  0.4403610000000  0.4091350000000  0.4967210000000 1.0
C      1  0.4403580000000  0.5908530000000  0.5033000000000 1.0
C      1  0.5486350000000  0.4340550000000  0.4960240000000 1.0
C      1  0.5486610000000  0.5660100000000  0.5039120000000 1.0
C      1  0.4513590000000  0.5039390000000  0.4340360000000 1.0
C      1  0.4513450000000  0.4960500000000  0.5659920000000 1.0
C      1  0.5596360000000  0.5033160000000  0.4091090000000 1.0
C      1  0.5596450000000  0.4967370000000  0.5908270000000 1.0
C      1  0.7180050000000  0.5332820000000  0.4645630000000 1.0
C      1  0.7180050000000  0.4667110000000  0.5354360000000 1.0
C      1  0.2819940000000  0.5354290000000  0.5332830000000 1.0
C      1  0.2819960000000  0.4645560000000  0.4667130000000 1.0
END
