TITL C-986973-6940-473 -2.26487491471994e-06 3375 -318.109656014761 0 0 60 (C1) n - 1
REM
REM in /home/bkarasulu/work/CARBON/AIRSS/Generating-Clusters/REBO/Higher-Symm/Only-C60
REM
REM
REM
REM
REM
REM ./C.cell (a2850807a9bf4ad07a5b6933b78d9264)
REM AIRSS Version 0.9.1 bugfix July 2018 build 013d7b7c2542+ Fri, 06 Jul 2018 19:26:36 +0100
REM compiler GCC version 9.2.1 20190827 (Red Hat 9.2.1-1)
REM options -cpp -mtune=generic -march=x86-64 -g -O0 -fpre-include=/usr/include/finclude/math-vector-fortran.h
REM seed -692147610 -1790283012 2022250560 1381622303 -1897262890 1655344419 1208725949 1075733453 1205361644 -1497411569 -186791699 1935139763 -1327682035 870154914 -1570498671 1522630578 -1057582681 1669918183 2122809095 -2014028957 17575312 -1284858258 2050690665 -1862458200 1441194167 354109721 -988536432 -1998648680 1262893255 -170633455 -289277049 -765393264 905575633
REM
CELL 1.54180   15.00000   15.00000   15.00000   90.00000   90.00000   90.00000
LATT -1
SFAC C  
C      1  0.5906700000000  0.3558950000000  0.3647280000000 1.0
C      1  0.6661000000000  0.5528490000000  0.3532330000000 1.0
C      1  0.5058670000000  0.6682970000000  0.3485010000000 1.0
C      1  0.3382990000000  0.5572150000000  0.3391160000000 1.0
C      1  0.3936570000000  0.3557920000000  0.3341060000000 1.0
C      1  0.2890240000000  0.5847140000000  0.5432530000000 1.0
C      1  0.3539980000000  0.3103980000000  0.5419870000000 1.0
C      1  0.6542870000000  0.2824310000000  0.5706330000000 1.0
C      1  0.7384480000000  0.5583040000000  0.5518700000000 1.0
C      1  0.5215600000000  0.7402520000000  0.5505800000000 1.0
C      1  0.5618980000000  0.3728440000000  0.5478160000000 1.0
C      1  0.6227630000000  0.4836660000000  0.5896700000000 1.0
C      1  0.5413600000000  0.6093200000000  0.5646730000000 1.0
C      1  0.4333400000000  0.6032070000000  0.5625010000000 1.0
C      1  0.3861350000000  0.4438380000000  0.5585060000000 1.0
C      1  0.4998950000000  0.3827030000000  0.3008780000000 1.0
C      1  0.6021870000000  0.4628630000000  0.3271870000000 1.0
C      1  0.5715520000000  0.5890210000000  0.3007830000000 1.0
C      1  0.4389900000000  0.5904530000000  0.2986330000000 1.0
C      1  0.3957220000000  0.4650690000000  0.3029640000000 1.0
C      1  0.4418480000000  0.6012070000000  0.4102010000000 1.0
C      1  0.3741780000000  0.4822100000000  0.4113440000000 1.0
C      1  0.4693570000000  0.3898630000000  0.4074670000000 1.0
C      1  0.5880060000000  0.4420300000000  0.4364110000000 1.0
C      1  0.5717460000000  0.5718800000000  0.4127290000000 1.0
C      1  0.3289010000000  0.4240160000000  0.4776870000000 1.0
C      1  0.5079290000000  0.3242940000000  0.4643180000000 1.0
C      1  0.6579960000000  0.4666870000000  0.4982250000000 1.0
C      1  0.5790990000000  0.6436500000000  0.4790650000000 1.0
C      1  0.3890530000000  0.6491450000000  0.4835760000000 1.0
C      1  0.3334340000000  0.4414760000000  0.6575060000000 1.0
C      1  0.5068000000000  0.3453220000000  0.6437360000000 1.0
C      1  0.6865900000000  0.4444580000000  0.6726060000000 1.0
C      1  0.6077560000000  0.6315050000000  0.6544680000000 1.0
C      1  0.3999140000000  0.6360720000000  0.6629140000000 1.0
C      1  0.2819050000000  0.3675310000000  0.5887480000000 1.0
C      1  0.5568710000000  0.2523240000000  0.6032520000000 1.0
C      1  0.7548150000000  0.4654220000000  0.5893410000000 1.0
C      1  0.6158500000000  0.7174620000000  0.5836580000000 1.0
C      1  0.3192160000000  0.6717040000000  0.5941910000000 1.0
C      1  0.5034670000000  0.6790490000000  0.6456950000000 1.0
C      1  0.3353730000000  0.5470710000000  0.6328270000000 1.0
C      1  0.4088570000000  0.3600220000000  0.6287480000000 1.0
C      1  0.6201070000000  0.3623670000000  0.6446990000000 1.0
C      1  0.6789360000000  0.5572160000000  0.6488440000000 1.0
C      1  0.5123680000000  0.7240910000000  0.4469960000000 1.0
C      1  0.3065220000000  0.5907860000000  0.4398700000000 1.0
C      1  0.3564610000000  0.3264920000000  0.4371190000000 1.0
C      1  0.6213830000000  0.3171590000000  0.4673340000000 1.0
C      1  0.7044250000000  0.5550180000000  0.4551580000000 1.0
C      1  0.7462420000000  0.3977420000000  0.5157540000000 1.0
C      1  0.6751240000000  0.6954660000000  0.5057460000000 1.0
C      1  0.3467340000000  0.7416800000000  0.5280680000000 1.0
C      1  0.2256260000000  0.4135600000000  0.5193550000000 1.0
C      1  0.5032680000000  0.2347550000000  0.5262380000000 1.0
C      1  0.4609110000000  0.5048640000000  0.5464160000000 1.0
C      1  0.5284510000000  0.4823660000000  0.6148950000000 1.0
C      1  0.5038350000000  0.4967080000000  0.2769960000000 1.0
C      1  0.5039650000000  0.4669110000000  0.6982790000000 1.0
C      1  0.4868760000000  0.4989700000000  0.4410540000000 1.0
END
