TITL C-986979-5873-737 5.94921652615587e-06 3375 -350.039790104409 0 0 60 (Ci) n - 1
REM
REM in /home/bkarasulu/work/CARBON/AIRSS/Generating-Clusters/REBO/Higher-Symm/Only-C60
REM
REM
REM
REM
REM
REM ./C.cell (a2850807a9bf4ad07a5b6933b78d9264)
REM AIRSS Version 0.9.1 bugfix July 2018 build 013d7b7c2542+ Fri, 06 Jul 2018 19:26:36 +0100
REM compiler GCC version 9.2.1 20190827 (Red Hat 9.2.1-1)
REM options -cpp -mtune=generic -march=x86-64 -g -O0 -fpre-include=/usr/include/finclude/math-vector-fortran.h
REM seed -509141810 790356772 530992365 -87559712 -1690256412 -784464756 -46685033 -254139417 -751894723 505649546 -336976396 1990720145 918205839 1015024587 1103986483 -230641063 1581307717 -530787929 -1599468586 518095781 -529337969 1199553314 -2071406810 -2055943314 1296747012 654768482 369673369 1602598962 -1069354538 -483129698 -966661858 675391612 179001699
REM
CELL 1.54180   15.00000   15.00000   15.00000   90.00000   90.00000   90.00000
LATT -1
SFAC C  
C      1  0.4845250000000  0.2837940000000  0.5737220000000 1.0
C      1  0.5115550000000  0.2869790000000  0.4280990000000 1.0
C      1  0.4884440000000  0.7130210000000  0.5719010000000 1.0
C      1  0.5154760000000  0.7162070000000  0.4262780000000 1.0
C      1  0.5730660000000  0.2640430000000  0.5431260000000 1.0
C      1  0.4262740000000  0.2560840000000  0.4575770000000 1.0
C      1  0.5737260000000  0.7439160000000  0.5424240000000 1.0
C      1  0.4269350000000  0.7359580000000  0.4568740000000 1.0
C      1  0.3214630000000  0.5959980000000  0.4975780000000 1.0
C      1  0.6900440000000  0.6164540000000  0.4903670000000 1.0
C      1  0.3099550000000  0.3835460000000  0.5096330000000 1.0
C      1  0.6785380000000  0.4040020000000  0.5024220000000 1.0
C      1  0.4693080000000  0.6633690000000  0.6587510000000 1.0
C      1  0.5364680000000  0.6797630000000  0.3334220000000 1.0
C      1  0.4635330000000  0.3202370000000  0.6665790000000 1.0
C      1  0.5306920000000  0.3366300000000  0.3412500000000 1.0
C      1  0.5042880000000  0.4580140000000  0.3868970000000 1.0
C      1  0.4825820000000  0.4435890000000  0.6234470000000 1.0
C      1  0.5174170000000  0.5564110000000  0.3765520000000 1.0
C      1  0.4957120000000  0.5419860000000  0.6131020000000 1.0
C      1  0.6475780000000  0.4442570000000  0.7052050000000 1.0
C      1  0.3353840000000  0.4446890000000  0.3099850000000 1.0
C      1  0.6646160000000  0.5553110000000  0.6900150000000 1.0
C      1  0.3524220000000  0.5557430000000  0.2947950000000 1.0
C      1  0.6613160000000  0.4605880000000  0.5963250000000 1.0
C      1  0.3087660000000  0.4383460000000  0.4180080000000 1.0
C      1  0.6912330000000  0.5616540000000  0.5819920000000 1.0
C      1  0.3386830000000  0.5394120000000  0.4036750000000 1.0
C      1  0.5534830000000  0.6193370000000  0.4635280000000 1.0
C      1  0.4655310000000  0.6132210000000  0.5328170000000 1.0
C      1  0.5344680000000  0.3867780000000  0.4671830000000 1.0
C      1  0.4465160000000  0.3806630000000  0.5364710000000 1.0
C      1  0.3319670000000  0.5452380000000  0.5812190000000 1.0
C      1  0.6739900000000  0.5612300000000  0.4115800000000 1.0
C      1  0.3260100000000  0.4387700000000  0.5884200000000 1.0
C      1  0.6680330000000  0.4547620000000  0.4187810000000 1.0
C      1  0.6359420000000  0.3457400000000  0.6582200000000 1.0
C      1  0.3587340000000  0.3401290000000  0.3449900000000 1.0
C      1  0.6412670000000  0.6598720000000  0.6550110000000 1.0
C      1  0.3640590000000  0.6542600000000  0.3417800000000 1.0
C      1  0.3884170000000  0.3975170000000  0.6545980000000 1.0
C      1  0.6024380000000  0.4131220000000  0.3567360000000 1.0
C      1  0.3975620000000  0.5868780000000  0.6432640000000 1.0
C      1  0.6115830000000  0.6024830000000  0.3454020000000 1.0
C      1  0.4152370000000  0.4438760000000  0.4556080000000 1.0
C      1  0.5618780000000  0.4451520000000  0.5504910000000 1.0
C      1  0.4381210000000  0.5548480000000  0.4495090000000 1.0
C      1  0.5847620000000  0.5561240000000  0.5443910000000 1.0
C      1  0.5476530000000  0.4445170000000  0.7607790000000 1.0
C      1  0.4341920000000  0.4588590000000  0.2554670000000 1.0
C      1  0.5658080000000  0.5411410000000  0.7445340000000 1.0
C      1  0.4523470000000  0.5554830000000  0.2392210000000 1.0
C      1  0.3579280000000  0.6731130000000  0.4349890000000 1.0
C      1  0.6478580000000  0.6860850000000  0.5620080000000 1.0
C      1  0.3521420000000  0.3139160000000  0.4379920000000 1.0
C      1  0.6420730000000  0.3268870000000  0.5650110000000 1.0
C      1  0.4535860000000  0.6439820000000  0.2907660000000 1.0
C      1  0.5531220000000  0.6316720000000  0.7004470000000 1.0
C      1  0.4468780000000  0.3683290000000  0.2995530000000 1.0
C      1  0.5464150000000  0.3560180000000  0.7092340000000 1.0
END
