TITL C-986976-6631-748 -1.49209548856503e-05 3375 -352.379642870489 0 0 60 (Td) n - 1
REM
REM in /home/bkarasulu/work/CARBON/AIRSS/Generating-Clusters/REBO/Higher-Symm/Only-C60
REM
REM
REM
REM
REM
REM ./C.cell (a2850807a9bf4ad07a5b6933b78d9264)
REM AIRSS Version 0.9.1 bugfix July 2018 build 013d7b7c2542+ Fri, 06 Jul 2018 19:26:36 +0100
REM compiler GCC version 9.2.1 20190827 (Red Hat 9.2.1-1)
REM options -cpp -mtune=generic -march=x86-64 -g -O0 -fpre-include=/usr/include/finclude/math-vector-fortran.h
REM seed 1133857599 -1893137245 -126856448 -1743044601 777280527 733939491 1917203211 -1191106523 228890042 -1479437173 -831046567 121907362 507495158 -244087771 -1275672350 1313265762 -1013668525 1873513760 1017284515 -1653828656 141300739 913118904 1469795107 1771932447 -1671546830 -1924685721 143567705 565459581 -1707477182 510739770 708455773 1326873659 979066179
REM
CELL 1.54180   15.00000   15.00000   15.00000   90.00000   90.00000   90.00000
LATT -1
SFAC C  
C      1  0.6408360000000  0.7118470000000  0.5702350000000 1.0
C      1  0.5702350000000  0.6408360000000  0.7118470000000 1.0
C      1  0.7118470000000  0.5702350000000  0.6408360000000 1.0
C      1  0.3591640000000  0.2881530000000  0.5702350000000 1.0
C      1  0.3591640000000  0.7118470000000  0.4297650000000 1.0
C      1  0.6408360000000  0.2881530000000  0.4297650000000 1.0
C      1  0.4297650000000  0.3591640000000  0.7118470000000 1.0
C      1  0.4297650000000  0.6408360000000  0.2881530000000 1.0
C      1  0.5702350000000  0.3591640000000  0.2881530000000 1.0
C      1  0.2881530000000  0.4297650000000  0.6408360000000 1.0
C      1  0.2881530000000  0.5702350000000  0.3591640000000 1.0
C      1  0.7118470000000  0.4297650000000  0.3591640000000 1.0
C      1  0.7118470000000  0.6408360000000  0.5702350000000 1.0
C      1  0.6408360000000  0.5702350000000  0.7118470000000 1.0
C      1  0.5702350000000  0.7118470000000  0.6408360000000 1.0
C      1  0.2881530000000  0.3591640000000  0.5702350000000 1.0
C      1  0.7118470000000  0.3591640000000  0.4297650000000 1.0
C      1  0.2881530000000  0.6408360000000  0.4297650000000 1.0
C      1  0.3591640000000  0.4297650000000  0.7118470000000 1.0
C      1  0.6408360000000  0.4297650000000  0.2881530000000 1.0
C      1  0.3591640000000  0.5702350000000  0.2881530000000 1.0
C      1  0.4297650000000  0.2881530000000  0.6408360000000 1.0
C      1  0.5702350000000  0.2881530000000  0.3591640000000 1.0
C      1  0.4297650000000  0.7118470000000  0.3591640000000 1.0
C      1  0.4134710000000  0.5210250000000  0.7009610000000 1.0
C      1  0.7009610000000  0.4134710000000  0.5210250000000 1.0
C      1  0.5210250000000  0.7009610000000  0.4134710000000 1.0
C      1  0.5865290000000  0.4789750000000  0.7009610000000 1.0
C      1  0.5865290000000  0.5210250000000  0.2990390000000 1.0
C      1  0.4134710000000  0.4789750000000  0.2990390000000 1.0
C      1  0.2990390000000  0.5865290000000  0.5210250000000 1.0
C      1  0.2990390000000  0.4134710000000  0.4789750000000 1.0
C      1  0.7009610000000  0.5865290000000  0.4789750000000 1.0
C      1  0.4789750000000  0.2990390000000  0.4134710000000 1.0
C      1  0.4789750000000  0.7009610000000  0.5865290000000 1.0
C      1  0.5210250000000  0.2990390000000  0.5865290000000 1.0
C      1  0.5210250000000  0.4134710000000  0.7009610000000 1.0
C      1  0.4134710000000  0.7009610000000  0.5210250000000 1.0
C      1  0.7009610000000  0.5210250000000  0.4134710000000 1.0
C      1  0.4789750000000  0.5865290000000  0.7009610000000 1.0
C      1  0.5210250000000  0.5865290000000  0.2990390000000 1.0
C      1  0.4789750000000  0.4134710000000  0.2990390000000 1.0
C      1  0.5865290000000  0.2990390000000  0.5210250000000 1.0
C      1  0.4134710000000  0.2990390000000  0.4789750000000 1.0
C      1  0.5865290000000  0.7009610000000  0.4789750000000 1.0
C      1  0.2990390000000  0.4789750000000  0.4134710000000 1.0
C      1  0.7009610000000  0.4789750000000  0.5865290000000 1.0
C      1  0.2990390000000  0.5210250000000  0.5865290000000 1.0
C      1  0.5188110000000  0.4025530000000  0.4025530000000 1.0
C      1  0.4025530000000  0.4811890000000  0.5974470000000 1.0
C      1  0.5974470000000  0.4025530000000  0.4811890000000 1.0
C      1  0.4811890000000  0.5974470000000  0.4025530000000 1.0
C      1  0.5974470000000  0.4811890000000  0.4025530000000 1.0
C      1  0.4025530000000  0.5188110000000  0.4025530000000 1.0
C      1  0.4025530000000  0.4025530000000  0.5188110000000 1.0
C      1  0.5974470000000  0.5188110000000  0.5974470000000 1.0
C      1  0.4025530000000  0.5974470000000  0.4811890000000 1.0
C      1  0.4811890000000  0.4025530000000  0.5974470000000 1.0
C      1  0.5974470000000  0.5974470000000  0.5188110000000 1.0
C      1  0.5188110000000  0.5974470000000  0.5974470000000 1.0
END
