TITL C-986979-5873-1005 -0.00296770175965969 3375 -329.479763716358 0 0 60 (C1) n - 1
REM
REM in /home/bkarasulu/work/CARBON/AIRSS/Generating-Clusters/REBO/Higher-Symm/Only-C60
REM
REM
REM
REM
REM
REM ./C.cell (a2850807a9bf4ad07a5b6933b78d9264)
REM AIRSS Version 0.9.1 bugfix July 2018 build 013d7b7c2542+ Fri, 06 Jul 2018 19:26:36 +0100
REM compiler GCC version 9.2.1 20190827 (Red Hat 9.2.1-1)
REM options -cpp -mtune=generic -march=x86-64 -g -O0 -fpre-include=/usr/include/finclude/math-vector-fortran.h
REM seed 1267155508 -1879517325 958958588 1040380542 -889291233 1634949292 1223881892 -301369401 -728680830 1921550033 1952856079 -1905839943 718499646 855670570 1367181233 -310123623 -598206048 1427515684 -1971720437 1562940366 1611426070 -1912959187 -965161476 -1543003508 1352537729 982212464 1114319905 -1788565413 1936063438 154016172 -2013846934 874302865 -1498895824
REM
CELL 1.54180   15.00000   15.00000   15.00000   90.00000   90.00000   90.00000
LATT -1
SFAC C  
C      1  0.5126510000000  0.5029030000000  0.6120560000000 1.0
C      1  0.2973940000000  0.5049720000000  0.4050020000000 1.0
C      1  0.7703000000000  0.4624490000000  0.4916070000000 1.0
C      1  0.5421500000000  0.6880260000000  0.3660050000000 1.0
C      1  0.3754630000000  0.2648900000000  0.5447400000000 1.0
C      1  0.4148070000000  0.4451720000000  0.4009210000000 1.0
C      1  0.6015800000000  0.3752860000000  0.6527190000000 1.0
C      1  0.7133550000000  0.3636780000000  0.3577500000000 1.0
C      1  0.6180640000000  0.4692840000000  0.6840760000000 1.0
C      1  0.4309640000000  0.4296890000000  0.6046000000000 1.0
C      1  0.3852110000000  0.5273640000000  0.3365610000000 1.0
C      1  0.2611730000000  0.4508910000000  0.5530830000000 1.0
C      1  0.4694600000000  0.6690940000000  0.2123990000000 1.0
C      1  0.5086980000000  0.5596340000000  0.3682260000000 1.0
C      1  0.5792520000000  0.5169910000000  0.4218230000000 1.0
C      1  0.6543550000000  0.4254920000000  0.2998340000000 1.0
C      1  0.5446120000000  0.4537350000000  0.4927360000000 1.0
C      1  0.5258480000000  0.6352440000000  0.7009350000000 1.0
C      1  0.4801920000000  0.4825550000000  0.2914360000000 1.0
C      1  0.4492900000000  0.2525360000000  0.6090840000000 1.0
C      1  0.6672730000000  0.5197760000000  0.3517480000000 1.0
C      1  0.3994590000000  0.6878880000000  0.5690480000000 1.0
C      1  0.6662710000000  0.5813350000000  0.4408350000000 1.0
C      1  0.3867780000000  0.4355830000000  0.7097290000000 1.0
C      1  0.3314270000000  0.5178630000000  0.6619810000000 1.0
C      1  0.4348430000000  0.6558250000000  0.6671920000000 1.0
C      1  0.5480360000000  0.3925560000000  0.3059490000000 1.0
C      1  0.6621350000000  0.2929050000000  0.3876370000000 1.0
C      1  0.5574740000000  0.5481370000000  0.7286060000000 1.0
C      1  0.2974070000000  0.6162070000000  0.4277110000000 1.0
C      1  0.5195370000000  0.3666290000000  0.7565280000000 1.0
C      1  0.5557890000000  0.5965520000000  0.5777770000000 1.0
C      1  0.5997220000000  0.6808170000000  0.6424980000000 1.0
C      1  0.3226930000000  0.5161530000000  0.5103210000000 1.0
C      1  0.4488580000000  0.7015110000000  0.3063800000000 1.0
C      1  0.4625840000000  0.3588060000000  0.3678700000000 1.0
C      1  0.5465310000000  0.6169210000000  0.2770800000000 1.0
C      1  0.6269750000000  0.6724770000000  0.4367110000000 1.0
C      1  0.5635930000000  0.3169490000000  0.3900970000000 1.0
C      1  0.5420500000000  0.3115290000000  0.5803030000000 1.0
C      1  0.5879660000000  0.5144590000000  0.2715920000000 1.0
C      1  0.4705270000000  0.5892230000000  0.5179030000000 1.0
C      1  0.6045320000000  0.7131900000000  0.5365100000000 1.0
C      1  0.3027080000000  0.4084420000000  0.6436970000000 1.0
C      1  0.4895290000000  0.4651460000000  0.7178810000000 1.0
C      1  0.3078570000000  0.3490430000000  0.5466890000000 1.0
C      1  0.4346310000000  0.4828930000000  0.5059150000000 1.0
C      1  0.5188170000000  0.6723130000000  0.4745610000000 1.0
C      1  0.6168710000000  0.4788860000000  0.5710330000000 1.0
C      1  0.7004010000000  0.5291250000000  0.5281060000000 1.0
C      1  0.4721970000000  0.3456590000000  0.6611430000000 1.0
C      1  0.4106460000000  0.3296150000000  0.4649290000000 1.0
C      1  0.3725290000000  0.6650700000000  0.4699000000000 1.0
C      1  0.4210940000000  0.6263130000000  0.3795090000000 1.0
C      1  0.3628130000000  0.6079610000000  0.7085440000000 1.0
C      1  0.3224050000000  0.4005660000000  0.4462330000000 1.0
C      1  0.6650430000000  0.6211740000000  0.5695620000000 1.0
C      1  0.7697200000000  0.4065960000000  0.4202420000000 1.0
C      1  0.3745820000000  0.5776090000000  0.5777710000000 1.0
C      1  0.5208770000000  0.3504120000000  0.4866880000000 1.0
END
