TITL C-986979-5873-725 -0.0187784399866679 3375 -352.293769304816 0 0 60 (C2v) n - 1
REM
REM in /home/bkarasulu/work/CARBON/AIRSS/Generating-Clusters/REBO/Higher-Symm/Only-C60
REM
REM
REM
REM
REM
REM ./C.cell (a2850807a9bf4ad07a5b6933b78d9264)
REM AIRSS Version 0.9.1 bugfix July 2018 build 013d7b7c2542+ Fri, 06 Jul 2018 19:26:36 +0100
REM compiler GCC version 9.2.1 20190827 (Red Hat 9.2.1-1)
REM options -cpp -mtune=generic -march=x86-64 -g -O0 -fpre-include=/usr/include/finclude/math-vector-fortran.h
REM seed -271334018 702264198 513099433 789963998 -2040772752 -536868370 22642710 1056752557 1703472327 -141897461 872822770 311604235 142650036 -778199611 227411125 1235363335 -1391319744 1837938968 -338292215 1868853455 2003490391 1067874712 786487730 -733113224 -1893997605 1210432043 -1437563504 799644120 188542921 -1295205630 -930887638 1743587152 794365073
REM
CELL 1.54180   15.00000   15.00000   15.00000   90.00000   90.00000   90.00000
LATT -1
SFAC C  
C      1  0.6552950000000  0.5344420000000  0.6792090000000 1.0
C      1  0.3446190000000  0.5344870000000  0.3181120000000 1.0
C      1  0.6553090000000  0.5344390000000  0.3185300000000 1.0
C      1  0.3446150000000  0.5344130000000  0.6794280000000 1.0
C      1  0.6956120000000  0.5615130000000  0.5753950000000 1.0
C      1  0.3042240000000  0.5616260000000  0.4218280000000 1.0
C      1  0.6956250000000  0.5617450000000  0.4222460000000 1.0
C      1  0.3041820000000  0.5616260000000  0.5757390000000 1.0
C      1  0.5813530000000  0.3740250000000  0.6616670000000 1.0
C      1  0.4185350000000  0.3739160000000  0.3357230000000 1.0
C      1  0.5813540000000  0.3739010000000  0.3357360000000 1.0
C      1  0.4185770000000  0.3740530000000  0.6616670000000 1.0
C      1  0.7184240000000  0.4183520000000  0.5850780000000 1.0
C      1  0.2816060000000  0.4184890000000  0.4123920000000 1.0
C      1  0.7184520000000  0.4181600000000  0.4123160000000 1.0
C      1  0.2814860000000  0.4183940000000  0.5851570000000 1.0
C      1  0.4078950000000  0.5532150000000  0.7649700000000 1.0
C      1  0.5921440000000  0.5537360000000  0.2329050000000 1.0
C      1  0.4079260000000  0.5536300000000  0.2326420000000 1.0
C      1  0.5921050000000  0.5532170000000  0.7648520000000 1.0
C      1  0.3432280000000  0.4331490000000  0.6551740000000 1.0
C      1  0.6566480000000  0.4331130000000  0.3423720000000 1.0
C      1  0.3433160000000  0.4332060000000  0.3423360000000 1.0
C      1  0.6566890000000  0.4331700000000  0.6550600000000 1.0
C      1  0.4551850000000  0.6717090000000  0.3733290000000 1.0
C      1  0.5446700000000  0.6715600000000  0.6238020000000 1.0
C      1  0.4552070000000  0.6715820000000  0.6239370000000 1.0
C      1  0.5446550000000  0.6717270000000  0.3734090000000 1.0
C      1  0.4446750000000  0.4714120000000  0.5745420000000 1.0
C      1  0.5551670000000  0.4713110000000  0.4228420000000 1.0
C      1  0.4446980000000  0.4713260000000  0.4228400000000 1.0
C      1  0.5551840000000  0.4713820000000  0.5745340000000 1.0
C      1  0.4511280000000  0.3231380000000  0.4161050000000 1.0
C      1  0.5487370000000  0.3231180000000  0.5813840000000 1.0
C      1  0.4511470000000  0.3231390000000  0.5813890000000 1.0
C      1  0.5487310000000  0.3231130000000  0.4161020000000 1.0
C      1  0.6188760000000  0.6259930000000  0.6248870000000 1.0
C      1  0.3809470000000  0.6261680000000  0.3724540000000 1.0
C      1  0.6188940000000  0.6261860000000  0.3726480000000 1.0
C      1  0.3809740000000  0.6260570000000  0.6250410000000 1.0
C      1  0.6606000000000  0.6373020000000  0.4987880000000 1.0
C      1  0.3391850000000  0.6368970000000  0.4987710000000 1.0
C      1  0.4117150000000  0.6908020000000  0.4987580000000 1.0
C      1  0.5879500000000  0.6910030000000  0.4989010000000 1.0
C      1  0.3172760000000  0.3679250000000  0.4987770000000 1.0
C      1  0.6825540000000  0.3678290000000  0.4987430000000 1.0
C      1  0.5000120000000  0.5382770000000  0.2540450000000 1.0
C      1  0.4999850000000  0.5379960000000  0.7434840000000 1.0
C      1  0.4999730000000  0.3820280000000  0.7168280000000 1.0
C      1  0.4999530000000  0.3818590000000  0.2805740000000 1.0
C      1  0.2663130000000  0.4904990000000  0.4988020000000 1.0
C      1  0.7338230000000  0.4903370000000  0.4986190000000 1.0
C      1  0.5941730000000  0.3151000000000  0.4987450000000 1.0
C      1  0.4056950000000  0.3150790000000  0.4987570000000 1.0
C      1  0.4999400000000  0.5013840000000  0.6581720000000 1.0
C      1  0.4999210000000  0.5012690000000  0.3391960000000 1.0
C      1  0.6013750000000  0.4478120000000  0.4986860000000 1.0
C      1  0.3984830000000  0.4479220000000  0.4986980000000 1.0
C      1  0.4998690000000  0.6566750000000  0.4987810000000 1.0
C      1  0.4999500000000  0.5656100000000  0.4986720000000 1.0
END
