TITL C-986973-6940-733 -0.012874610459165 3375 -349.829561791267 0 0 60 (C1) n - 1
REM
REM in /home/bkarasulu/work/CARBON/AIRSS/Generating-Clusters/REBO/Higher-Symm/Only-C60
REM
REM
REM
REM
REM
REM ./C.cell (a2850807a9bf4ad07a5b6933b78d9264)
REM AIRSS Version 0.9.1 bugfix July 2018 build 013d7b7c2542+ Fri, 06 Jul 2018 19:26:36 +0100
REM compiler GCC version 9.2.1 20190827 (Red Hat 9.2.1-1)
REM options -cpp -mtune=generic -march=x86-64 -g -O0 -fpre-include=/usr/include/finclude/math-vector-fortran.h
REM seed -166336685 310476132 1739993681 179666373 1312330344 1804761152 -1762448358 311682450 -606639430 1171027780 1413091831 1302655321 2088944534 -208470002 -1536719753 1665086439 -1105424843 1016923079 1938195379 -1633209476 1665868719 269843163 602349811 -969206539 1716386585 1712061650 982204032 1802930735 191880249 1515582511 1561203584 -492655423 -1684922300
REM
CELL 1.54180   15.00000   15.00000   15.00000   90.00000   90.00000   90.00000
LATT -1
SFAC C  
C      1  0.3576480000000  0.5856770000000  0.6888870000000 1.0
C      1  0.3585490000000  0.4136200000000  0.3101790000000 1.0
C      1  0.3586280000000  0.6413560000000  0.4098240000000 1.0
C      1  0.3597910000000  0.3605040000000  0.5904600000000 1.0
C      1  0.2902590000000  0.4382650000000  0.6271820000000 1.0
C      1  0.2943050000000  0.5580490000000  0.3759650000000 1.0
C      1  0.5162520000000  0.7071940000000  0.4378430000000 1.0
C      1  0.5176870000000  0.2938370000000  0.5617150000000 1.0
C      1  0.5213310000000  0.3814340000000  0.6615060000000 1.0
C      1  0.5220620000000  0.6189400000000  0.3384320000000 1.0
C      1  0.4856950000000  0.5108980000000  0.7696070000000 1.0
C      1  0.4861080000000  0.4897690000000  0.2297430000000 1.0
C      1  0.4478090000000  0.5826120000000  0.7209280000000 1.0
C      1  0.4485150000000  0.4170950000000  0.2774700000000 1.0
C      1  0.5150400000000  0.7455950000000  0.6358070000000 1.0
C      1  0.5156090000000  0.2539590000000  0.3627560000000 1.0
C      1  0.4173460000000  0.5616720000000  0.4990450000000 1.0
C      1  0.4053400000000  0.4509220000000  0.5037750000000 1.0
C      1  0.6608470000000  0.7179160000000  0.5460700000000 1.0
C      1  0.6600350000000  0.2817230000000  0.4545170000000 1.0
C      1  0.3056000000000  0.5474310000000  0.4860530000000 1.0
C      1  0.2928020000000  0.4469940000000  0.5166800000000 1.0
C      1  0.3047760000000  0.5073610000000  0.6825300000000 1.0
C      1  0.3055550000000  0.4915670000000  0.3173160000000 1.0
C      1  0.4867060000000  0.4750730000000  0.4279970000000 1.0
C      1  0.4918970000000  0.5239450000000  0.5718130000000 1.0
C      1  0.3476350000000  0.3480950000000  0.3766860000000 1.0
C      1  0.3461240000000  0.6522070000000  0.6232920000000 1.0
C      1  0.6055090000000  0.3419260000000  0.6060890000000 1.0
C      1  0.6036760000000  0.6567310000000  0.3966880000000 1.0
C      1  0.5413710000000  0.3869010000000  0.4688300000000 1.0
C      1  0.5419520000000  0.6139770000000  0.5296390000000 1.0
C      1  0.6015300000000  0.5893290000000  0.6461550000000 1.0
C      1  0.6020370000000  0.4098090000000  0.3526210000000 1.0
C      1  0.4509780000000  0.4211890000000  0.6016090000000 1.0
C      1  0.4510030000000  0.5798570000000  0.3963590000000 1.0
C      1  0.7066700000000  0.6367150000000  0.5256150000000 1.0
C      1  0.7065060000000  0.3624780000000  0.4746110000000 1.0
C      1  0.6873900000000  0.5701090000000  0.5937200000000 1.0
C      1  0.6869230000000  0.4290300000000  0.4064430000000 1.0
C      1  0.3292330000000  0.3450040000000  0.4820000000000 1.0
C      1  0.3269280000000  0.6550350000000  0.5181750000000 1.0
C      1  0.5140000000000  0.6371310000000  0.6641080000000 1.0
C      1  0.5150270000000  0.3620160000000  0.3333830000000 1.0
C      1  0.6916290000000  0.3899830000000  0.5655480000000 1.0
C      1  0.6893340000000  0.6087100000000  0.4353290000000 1.0
C      1  0.7132960000000  0.4787860000000  0.5886940000000 1.0
C      1  0.7118090000000  0.5204550000000  0.4115190000000 1.0
C      1  0.5715950000000  0.4460010000000  0.5526070000000 1.0
C      1  0.5699130000000  0.5509140000000  0.4472310000000 1.0
C      1  0.5688550000000  0.6995630000000  0.5599670000000 1.0
C      1  0.5686930000000  0.3009940000000  0.4388490000000 1.0
C      1  0.4343140000000  0.3117940000000  0.5200300000000 1.0
C      1  0.4318470000000  0.6923530000000  0.4797550000000 1.0
C      1  0.5952020000000  0.4910210000000  0.6489950000000 1.0
C      1  0.5933540000000  0.5076930000000  0.3519310000000 1.0
C      1  0.4367370000000  0.6877640000000  0.5855800000000 1.0
C      1  0.4384720000000  0.3129940000000  0.4135320000000 1.0
C      1  0.5474160000000  0.5488100000000  0.2719320000000 1.0
C      1  0.5468520000000  0.4512190000000  0.7283790000000 1.0
END
