TITL C-986976-6631-253 5.54084139070179e-07 3375 -365.0738735449 0 0 60 (C1) n - 1
REM
REM in /home/bkarasulu/work/CARBON/AIRSS/Generating-Clusters/REBO/Higher-Symm/Only-C60
REM
REM
REM
REM
REM
REM ./C.cell (a2850807a9bf4ad07a5b6933b78d9264)
REM AIRSS Version 0.9.1 bugfix July 2018 build 013d7b7c2542+ Fri, 06 Jul 2018 19:26:36 +0100
REM compiler GCC version 9.2.1 20190827 (Red Hat 9.2.1-1)
REM options -cpp -mtune=generic -march=x86-64 -g -O0 -fpre-include=/usr/include/finclude/math-vector-fortran.h
REM seed 924126997 -1175002325 -75528151 284756353 883807618 -1284224018 -1224442564 -319017562 1497420435 -1432050867 -115546490 -916714378 1734208045 200488253 -833915829 1538856322 -1954107800 -1620452984 260388156 1602663470 -811185212 -950903343 545468526 1022901452 1172254815 499825673 -737839647 742481673 1624147434 -727101678 658777743 -530519633 -936671567
REM
CELL 1.54180   15.00000   15.00000   15.00000   90.00000   90.00000   90.00000
LATT -1
SFAC C  
C      1  0.4154450000000  0.8167020000000  0.4456260000000 1.0
C      1  0.5075310000000  0.8190640000000  0.3991710000000 1.0
C      1  0.5797810000000  0.8267930000000  0.4714950000000 1.0
C      1  0.5314760000000  0.8259290000000  0.5636750000000 1.0
C      1  0.4303660000000  0.8201590000000  0.5480240000000 1.0
C      1  0.4500090000000  0.2079580000000  0.6611870000000 1.0
C      1  0.3528520000000  0.2735640000000  0.5020460000000 1.0
C      1  0.4550510000000  0.2942160000000  0.3533870000000 1.0
C      1  0.6336890000000  0.2685100000000  0.3912630000000 1.0
C      1  0.6620370000000  0.1813850000000  0.5635740000000 1.0
C      1  0.5710390000000  0.1999800000000  0.4181130000000 1.0
C      1  0.5821730000000  0.1535500000000  0.5021540000000 1.0
C      1  0.4932340000000  0.1815860000000  0.5673250000000 1.0
C      1  0.4284130000000  0.2151540000000  0.4904290000000 1.0
C      1  0.4772700000000  0.2220720000000  0.4081970000000 1.0
C      1  0.7096830000000  0.5008750000000  0.4577570000000 1.0
C      1  0.5827420000000  0.4602900000000  0.6834440000000 1.0
C      1  0.3426560000000  0.5022810000000  0.6625340000000 1.0
C      1  0.3002430000000  0.4915410000000  0.4120420000000 1.0
C      1  0.5242840000000  0.4934110000000  0.2815160000000 1.0
C      1  0.4803870000000  0.3615390000000  0.6215680000000 1.0
C      1  0.4334280000000  0.3996990000000  0.5454090000000 1.0
C      1  0.4937840000000  0.4057790000000  0.4702070000000 1.0
C      1  0.5806510000000  0.3730650000000  0.4983220000000 1.0
C      1  0.5690560000000  0.3352170000000  0.5878950000000 1.0
C      1  0.3772230000000  0.6050470000000  0.3203330000000 1.0
C      1  0.6289960000000  0.6054240000000  0.3288450000000 1.0
C      1  0.6934400000000  0.6170660000000  0.5695220000000 1.0
C      1  0.5054690000000  0.6014630000000  0.6927060000000 1.0
C      1  0.2928470000000  0.6128330000000  0.5554640000000 1.0
C      1  0.4356980000000  0.6448790000000  0.6448350000000 1.0
C      1  0.3233470000000  0.6505220000000  0.4757980000000 1.0
C      1  0.4622540000000  0.6455200000000  0.3230170000000 1.0
C      1  0.6493460000000  0.6520960000000  0.4071450000000 1.0
C      1  0.6298850000000  0.6709550000000  0.6108610000000 1.0
C      1  0.2836470000000  0.5083210000000  0.5728340000000 1.0
C      1  0.3671920000000  0.5010500000000  0.3282470000000 1.0
C      1  0.6224240000000  0.4986940000000  0.3223380000000 1.0
C      1  0.7002780000000  0.5115070000000  0.5637090000000 1.0
C      1  0.5029590000000  0.5056840000000  0.7049520000000 1.0
C      1  0.5687480000000  0.7215790000000  0.5517330000000 1.0
C      1  0.4601000000000  0.7139640000000  0.5756880000000 1.0
C      1  0.4032470000000  0.7098560000000  0.4791400000000 1.0
C      1  0.4787490000000  0.7104210000000  0.3965860000000 1.0
C      1  0.5816030000000  0.7169680000000  0.4419370000000 1.0
C      1  0.3458390000000  0.3684460000000  0.5180710000000 1.0
C      1  0.4630800000000  0.3836790000000  0.3803100000000 1.0
C      1  0.6394670000000  0.3590320000000  0.4225350000000 1.0
C      1  0.5848480000000  0.2424040000000  0.5991510000000 1.0
C      1  0.4410950000000  0.2976400000000  0.6802850000000 1.0
C      1  0.2912660000000  0.4475190000000  0.4975880000000 1.0
C      1  0.4468610000000  0.4514410000000  0.3160930000000 1.0
C      1  0.6694700000000  0.4466500000000  0.3896090000000 1.0
C      1  0.6553350000000  0.4623600000000  0.6295300000000 1.0
C      1  0.4169180000000  0.4654990000000  0.7061010000000 1.0
C      1  0.5903880000000  0.6433070000000  0.6914310000000 1.0
C      1  0.3527600000000  0.6018420000000  0.6367540000000 1.0
C      1  0.3114680000000  0.5972940000000  0.3998050000000 1.0
C      1  0.5352310000000  0.5945610000000  0.2920190000000 1.0
C      1  0.7012440000000  0.6041530000000  0.4686680000000 1.0
END
