TITL C-986976-6631-620 0.146248333432664 3375 -312.173257533981 0 0 60 (C4) n - 1
REM
REM in /home/bkarasulu/work/CARBON/AIRSS/Generating-Clusters/REBO/Higher-Symm/Only-C60
REM
REM
REM
REM
REM
REM ./C.cell (a2850807a9bf4ad07a5b6933b78d9264)
REM AIRSS Version 0.9.1 bugfix July 2018 build 013d7b7c2542+ Fri, 06 Jul 2018 19:26:36 +0100
REM compiler GCC version 9.2.1 20190827 (Red Hat 9.2.1-1)
REM options -cpp -mtune=generic -march=x86-64 -g -O0 -fpre-include=/usr/include/finclude/math-vector-fortran.h
REM seed -1742281366 -954058775 -357605103 -1489069086 -1264081642 -674472797 416172048 844163825 -454149938 141123451 724343188 -331793732 -622242353 1824501448 -1830724076 303004705 918074683 -1146234801 -934859335 357035019 1072261577 -1155770327 -350359424 1790671574 451599370 1730336193 -1183503775 -1562535001 -1553703723 -354548634 -1088316535 468720386 1320051085
REM
CELL 1.54180   15.00000   15.00000   15.00000   90.00000   90.00000   90.00000
LATT -1
SFAC C  
C      1  0.5557650000000  0.3503120000000  0.3447480000000 1.0
C      1  0.6496880000000  0.5557650000000  0.3447480000000 1.0
C      1  0.4442350000000  0.6496880000000  0.3447480000000 1.0
C      1  0.3503120000000  0.4442350000000  0.3447480000000 1.0
C      1  0.4443710000000  0.3502600000000  0.6650160000000 1.0
C      1  0.3502600000000  0.5556290000000  0.6650160000000 1.0
C      1  0.5556290000000  0.6497400000000  0.6650160000000 1.0
C      1  0.6497400000000  0.4443710000000  0.6650160000000 1.0
C      1  0.5409220000000  0.5904720000000  0.3528170000000 1.0
C      1  0.4095280000000  0.5409220000000  0.3528170000000 1.0
C      1  0.4590780000000  0.4095280000000  0.3528170000000 1.0
C      1  0.5904720000000  0.4590780000000  0.3528170000000 1.0
C      1  0.4587820000000  0.5907880000000  0.6570960000000 1.0
C      1  0.5907880000000  0.5412180000000  0.6570960000000 1.0
C      1  0.5412180000000  0.4092120000000  0.6570960000000 1.0
C      1  0.4092120000000  0.4587820000000  0.6570960000000 1.0
C      1  0.4857720000000  0.5922830000000  0.4546070000000 1.0
C      1  0.4077170000000  0.4857720000000  0.4546070000000 1.0
C      1  0.5142280000000  0.4077170000000  0.4546070000000 1.0
C      1  0.5922830000000  0.5142280000000  0.4546070000000 1.0
C      1  0.5139050000000  0.5923370000000  0.5552910000000 1.0
C      1  0.5923370000000  0.4860950000000  0.5552910000000 1.0
C      1  0.4860950000000  0.4076630000000  0.5552910000000 1.0
C      1  0.4076630000000  0.5139050000000  0.5552910000000 1.0
C      1  0.6139170000000  0.2930160000000  0.5130040000000 1.0
C      1  0.7069840000000  0.6139170000000  0.5130040000000 1.0
C      1  0.3860830000000  0.7069840000000  0.5130040000000 1.0
C      1  0.2930160000000  0.3860830000000  0.5130040000000 1.0
C      1  0.3846130000000  0.2934520000000  0.4950210000000 1.0
C      1  0.2934520000000  0.6153870000000  0.4950210000000 1.0
C      1  0.6153870000000  0.7065480000000  0.4950210000000 1.0
C      1  0.7065480000000  0.3846130000000  0.4950210000000 1.0
C      1  0.2886160000000  0.4353210000000  0.4246440000000 1.0
C      1  0.5646790000000  0.2886160000000  0.4246440000000 1.0
C      1  0.7113840000000  0.5646790000000  0.4246440000000 1.0
C      1  0.4353210000000  0.7113840000000  0.4246440000000 1.0
C      1  0.7116540000000  0.4364050000000  0.5862910000000 1.0
C      1  0.4364050000000  0.2883460000000  0.5862910000000 1.0
C      1  0.2883460000000  0.5635950000000  0.5862910000000 1.0
C      1  0.5635950000000  0.7116540000000  0.5862910000000 1.0
C      1  0.3738310000000  0.5944270000000  0.4426150000000 1.0
C      1  0.4055730000000  0.3738310000000  0.4426150000000 1.0
C      1  0.6261690000000  0.4055730000000  0.4426150000000 1.0
C      1  0.5944270000000  0.6261690000000  0.4426150000000 1.0
C      1  0.6264180000000  0.5947710000000  0.5669920000000 1.0
C      1  0.5947710000000  0.3735820000000  0.5669920000000 1.0
C      1  0.3735820000000  0.4052290000000  0.5669920000000 1.0
C      1  0.4052290000000  0.6264180000000  0.5669920000000 1.0
C      1  0.7940390000000  0.5961290000000  0.5584410000000 1.0
C      1  0.4038710000000  0.7940390000000  0.5584410000000 1.0
C      1  0.2059610000000  0.4038710000000  0.5584410000000 1.0
C      1  0.5961290000000  0.2059610000000  0.5584410000000 1.0
C      1  0.2059430000000  0.5948050000000  0.4496070000000 1.0
C      1  0.5948050000000  0.7940570000000  0.4496070000000 1.0
C      1  0.7940570000000  0.4051950000000  0.4496070000000 1.0
C      1  0.4051950000000  0.2059430000000  0.4496070000000 1.0
C      1  0.5012820000000  0.7709700000000  0.5095220000000 1.0
C      1  0.2290300000000  0.5012820000000  0.5095220000000 1.0
C      1  0.4987180000000  0.2290300000000  0.5095220000000 1.0
C      1  0.7709700000000  0.4987180000000  0.5095220000000 1.0
END
