TITL C-986973-6940-268 0.00394864099801059 3375 -338.57350278007 0 0 60 (C3) n - 1
REM
REM in /home/bkarasulu/work/CARBON/AIRSS/Generating-Clusters/REBO/Higher-Symm/Only-C60
REM
REM
REM
REM
REM
REM ./C.cell (a2850807a9bf4ad07a5b6933b78d9264)
REM AIRSS Version 0.9.1 bugfix July 2018 build 013d7b7c2542+ Fri, 06 Jul 2018 19:26:36 +0100
REM compiler GCC version 9.2.1 20190827 (Red Hat 9.2.1-1)
REM options -cpp -mtune=generic -march=x86-64 -g -O0 -fpre-include=/usr/include/finclude/math-vector-fortran.h
REM seed -1084305309 -95330490 953092802 1103061109 -1012889448 -1765541011 -68801292 -2033532829 2098038080 1765923330 932810694 -1998802447 -1975122764 35948887 -89989655 1145738895 864658990 1337324210 1094591394 -387462327 785381777 543132381 2039555600 -1927187593 -543918167 -1387806093 791520003 527304046 -1353379878 -14275167 -1015996508 -1013672013 -476070985
REM
CELL 1.54180   15.00000   15.00000   15.00000   90.00000   90.00000   90.00000
LATT -1
SFAC C  
C      1  0.5645070000000  0.3615030000000  0.6008650000000 1.0
C      1  0.5645070000000  0.6565980000000  0.5695130000000 1.0
C      1  0.5644960000000  0.4819030000000  0.3296290000000 1.0
C      1  0.7214650000000  0.5287190000000  0.5593130000000 1.0
C      1  0.7214620000000  0.5370020000000  0.4454640000000 1.0
C      1  0.7214640000000  0.4342660000000  0.4952150000000 1.0
C      1  0.4231880000000  0.5627440000000  0.4832650000000 1.0
C      1  0.4231860000000  0.4541230000000  0.4540300000000 1.0
C      1  0.4231870000000  0.4831150000000  0.5627160000000 1.0
C      1  0.6718600000000  0.4239700000000  0.3965630000000 1.0
C      1  0.6718620000000  0.4484280000000  0.6175530000000 1.0
C      1  0.6718680000000  0.6275900000000  0.4858800000000 1.0
C      1  0.3837510000000  0.5875600000000  0.7465500000000 1.0
C      1  0.3837500000000  0.6697440000000  0.3009010000000 1.0
C      1  0.3837560000000  0.2427050000000  0.4525530000000 1.0
C      1  0.6664570000000  0.6131470000000  0.5955500000000 1.0
C      1  0.6664530000000  0.5261700000000  0.3542330000000 1.0
C      1  0.6664550000000  0.3606690000000  0.5502180000000 1.0
C      1  0.5188830000000  0.6914830000000  0.6890870000000 1.0
C      1  0.5188690000000  0.5680250000000  0.2396180000000 1.0
C      1  0.5188830000000  0.2405080000000  0.5712900000000 1.0
C      1  0.4672400000000  0.3335650000000  0.5471980000000 1.0
C      1  0.4672400000000  0.6240900000000  0.6205390000000 1.0
C      1  0.4672360000000  0.5423540000000  0.3322660000000 1.0
C      1  0.5103280000000  0.5207260000000  0.6138620000000 1.0
C      1  0.5103330000000  0.5882460000000  0.4251230000000 1.0
C      1  0.5103310000000  0.3910340000000  0.4610170000000 1.0
C      1  0.2880510000000  0.4516580000000  0.5837910000000 1.0
C      1  0.2880480000000  0.5967410000000  0.4999700000000 1.0
C      1  0.2880400000000  0.4516080000000  0.4162340000000 1.0
C      1  0.5356260000000  0.3721060000000  0.3317010000000 1.0
C      1  0.5356450000000  0.4181870000000  0.6948920000000 1.0
C      1  0.5356450000000  0.7096940000000  0.4734000000000 1.0
C      1  0.3508000000000  0.3125270000000  0.5172110000000 1.0
C      1  0.3507990000000  0.6086480000000  0.6537500000000 1.0
C      1  0.3507930000000  0.5788310000000  0.3290360000000 1.0
C      1  0.3531910000000  0.6542450000000  0.5539830000000 1.0
C      1  0.3531780000000  0.4696340000000  0.3394250000000 1.0
C      1  0.3531890000000  0.3761270000000  0.6065820000000 1.0
C      1  0.4551790000000  0.2323230000000  0.4107650000000 1.0
C      1  0.4551690000000  0.5565600000000  0.7764320000000 1.0
C      1  0.4551670000000  0.7111210000000  0.3128040000000 1.0
C      1  0.6373470000000  0.3604500000000  0.3355140000000 1.0
C      1  0.6373580000000  0.4273050000000  0.7030900000000 1.0
C      1  0.6373630000000  0.7122300000000  0.4614050000000 1.0
C      1  0.5922940000000  0.5553850000000  0.4711020000000 1.0
C      1  0.5922930000000  0.4472840000000  0.4664880000000 1.0
C      1  0.5922930000000  0.4973380000000  0.5624160000000 1.0
C      1  0.4463980000000  0.4065290000000  0.6424260000000 1.0
C      1  0.4463990000000  0.6700690000000  0.5097320000000 1.0
C      1  0.4463880000000  0.4234030000000  0.3478450000000 1.0
C      1  0.5883870000000  0.2944010000000  0.5085820000000 1.0
C      1  0.5883800000000  0.6102250000000  0.6737610000000 1.0
C      1  0.5883740000000  0.5953740000000  0.3176550000000 1.0
C      1  0.5359170000000  0.6784270000000  0.3670030000000 1.0
C      1  0.5359230000000  0.2956070000000  0.4119750000000 1.0
C      1  0.5359140000000  0.5259690000000  0.7210240000000 1.0
C      1  0.2891480000000  0.5447010000000  0.5902300000000 1.0
C      1  0.2891400000000  0.5557960000000  0.4161750000000 1.0
C      1  0.2891460000000  0.3995110000000  0.4935940000000 1.0
END
