TITL C-986979-5873-999 -5.31912723066694e-06 3375 -364.528728551269 0 0 60 (C5) n - 1
REM
REM in /home/bkarasulu/work/CARBON/AIRSS/Generating-Clusters/REBO/Higher-Symm/Only-C60
REM
REM
REM
REM
REM
REM ./C.cell (a2850807a9bf4ad07a5b6933b78d9264)
REM AIRSS Version 0.9.1 bugfix July 2018 build 013d7b7c2542+ Fri, 06 Jul 2018 19:26:36 +0100
REM compiler GCC version 9.2.1 20190827 (Red Hat 9.2.1-1)
REM options -cpp -mtune=generic -march=x86-64 -g -O0 -fpre-include=/usr/include/finclude/math-vector-fortran.h
REM seed 1475612648 543281885 -171324748 -1689635821 763739290 2131088042 2000501322 -44617384 -718581316 1580335417 -378374132 -1688581867 -1784772875 -1408394988 -659246184 -78627384 -1740809675 414005774 11178132 -773504710 1635398928 -1561075076 -751649765 -1226162508 1915521504 -1879548951 -1314180453 -1235146136 -1294159269 1882853585 160406832 7936964 638500813
REM
CELL 1.54180   15.00000   15.00000   15.00000   90.00000   90.00000   90.00000
LATT -1
SFAC C  
C      1  0.4960260000000  0.5557530000000  0.7498070000000 1.0
C      1  0.2611870000000  0.5557330000000  0.5734180000000 1.0
C      1  0.3563740000000  0.5557330000000  0.2955660000000 1.0
C      1  0.6500410000000  0.5557540000000  0.3002330000000 1.0
C      1  0.7363510000000  0.5557660000000  0.5809690000000 1.0
C      1  0.5254250000000  0.7282160000000  0.6649790000000 1.0
C      1  0.3509380000000  0.7282020000000  0.5751730000000 1.0
C      1  0.3824290000000  0.7281990000000  0.3814750000000 1.0
C      1  0.5763780000000  0.7282130000000  0.3515680000000 1.0
C      1  0.6647550000000  0.7282230000000  0.5267830000000 1.0
C      1  0.6778130000000  0.4579640000000  0.5713660000000 1.0
C      1  0.4870770000000  0.4579540000000  0.6911620000000 1.0
C      1  0.3142030000000  0.4579380000000  0.5467800000000 1.0
C      1  0.3980980000000  0.4579390000000  0.3377510000000 1.0
C      1  0.6228210000000  0.4579550000000  0.3529460000000 1.0
C      1  0.7091720000000  0.3326250000000  0.4700650000000 1.0
C      1  0.5931190000000  0.3326220000000  0.6896750000000 1.0
C      1  0.3483950000000  0.3326040000000  0.6471660000000 1.0
C      1  0.3132000000000  0.3325960000000  0.4012830000000 1.0
C      1  0.5361720000000  0.3326090000000  0.2918290000000 1.0
C      1  0.6395600000000  0.3057450000000  0.4113460000000 1.0
C      1  0.6274550000000  0.3057490000000  0.6053250000000 1.0
C      1  0.4392290000000  0.3057370000000  0.6537540000000 1.0
C      1  0.3350050000000  0.3057260000000  0.4897060000000 1.0
C      1  0.4588170000000  0.3057310000000  0.3398900000000 1.0
C      1  0.4166470000000  0.2554270000000  0.4968100000000 1.0
C      1  0.4772940000000  0.2554300000000  0.4197290000000 1.0
C      1  0.5693430000000  0.2554370000000  0.4535870000000 1.0
C      1  0.5655860000000  0.2554390000000  0.5515940000000 1.0
C      1  0.4712150000000  0.2554330000000  0.5783070000000 1.0
C      1  0.5391730000000  0.5549280000000  0.3194630000000 1.0
C      1  0.6838020000000  0.5549420000000  0.4814690000000 1.0
C      1  0.5744180000000  0.5549380000000  0.6690830000000 1.0
C      1  0.3621850000000  0.5549220000000  0.6230280000000 1.0
C      1  0.3404020000000  0.5549160000000  0.4069510000000 1.0
C      1  0.4591620000000  0.5245320000000  0.2710190000000 1.0
C      1  0.7051520000000  0.5245520000000  0.3904030000000 1.0
C      1  0.6676260000000  0.5245550000000  0.6612450000000 1.0
C      1  0.3984440000000  0.5245380000000  0.7092510000000 1.0
C      1  0.2696060000000  0.5245230000000  0.4680780000000 1.0
C      1  0.6878700000000  0.3614290000000  0.5575590000000 1.0
C      1  0.5033230000000  0.3614190000000  0.6964550000000 1.0
C      1  0.3141960000000  0.3614020000000  0.5638610000000 1.0
C      1  0.3818570000000  0.3614020000000  0.3430170000000 1.0
C      1  0.6128010000000  0.3614180000000  0.3391220000000 1.0
C      1  0.4416930000000  0.7695780000000  0.4409540000000 1.0
C      1  0.5381210000000  0.7695850000000  0.4263140000000 1.0
C      1  0.5818420000000  0.7695900000000  0.5134980000000 1.0
C      1  0.5124360000000  0.7695870000000  0.5820210000000 1.0
C      1  0.4258190000000  0.7695790000000  0.5371860000000 1.0
C      1  0.5344940000000  0.6513320000000  0.7062850000000 1.0
C      1  0.3144610000000  0.6513140000000  0.5965590000000 1.0
C      1  0.3508220000000  0.6513120000000  0.3533880000000 1.0
C      1  0.5933280000000  0.6513280000000  0.3128250000000 1.0
C      1  0.7068440000000  0.6513410000000  0.5309270000000 1.0
C      1  0.4187160000000  0.5025120000000  0.5402390000000 1.0
C      1  0.4366120000000  0.5025110000000  0.4351290000000 1.0
C      1  0.5421070000000  0.5025180000000  0.4196680000000 1.0
C      1  0.5894110000000  0.5025240000000  0.5152220000000 1.0
C      1  0.5131520000000  0.5025200000000  0.5897400000000 1.0
END
