TITL C-986975-4297-711 -2.72897665425329e-06 3375 -327.060927680108 0 0 60 (C5) n - 1
REM
REM in /home/bkarasulu/work/CARBON/AIRSS/Generating-Clusters/REBO/Higher-Symm/Only-C60
REM
REM
REM
REM
REM
REM ./C.cell (a2850807a9bf4ad07a5b6933b78d9264)
REM AIRSS Version 0.9.1 bugfix July 2018 build 013d7b7c2542+ Fri, 06 Jul 2018 19:26:36 +0100
REM compiler GCC version 9.2.1 20190827 (Red Hat 9.2.1-1)
REM options -cpp -mtune=generic -march=x86-64 -g -O0 -fpre-include=/usr/include/finclude/math-vector-fortran.h
REM seed 594127054 321208356 -204160431 -628759835 -57369096 -1176174166 879378960 1377238667 -244847222 1910548201 912671047 -929233624 2090085650 777311792 -672881690 270196521 -827327206 928625742 550449543 -204483484 -1707289494 684388034 2003902908 1624633246 701636457 127439319 -2137206037 1987979686 -1296211191 -1992922360 -1303466098 -1480834470 -660406911
REM
CELL 1.54180   15.00000   15.00000   15.00000   90.00000   90.00000   90.00000
LATT -1
SFAC C  
C      1  0.6063700000000  0.5833790000000  0.2774520000000 1.0
C      1  0.6063780000000  0.3141110000000  0.3519350000000 1.0
C      1  0.6063730000000  0.3017400000000  0.6310410000000 1.0
C      1  0.6063620000000  0.5633630000000  0.7290550000000 1.0
C      1  0.6063600000000  0.7374250000000  0.5105260000000 1.0
C      1  0.4582990000000  0.5436770000000  0.3825020000000 1.0
C      1  0.4583040000000  0.4017500000000  0.4221500000000 1.0
C      1  0.4583010000000  0.3955990000000  0.5693830000000 1.0
C      1  0.4582950000000  0.5337250000000  0.6207300000000 1.0
C      1  0.4582940000000  0.6252420000000  0.5052310000000 1.0
C      1  0.5632170000000  0.2474670000000  0.4152580000000 1.0
C      1  0.5632080000000  0.3413690000000  0.7139890000000 1.0
C      1  0.5631970000000  0.6544970000000  0.7169960000000 1.0
C      1  0.5632000000000  0.7541180000000  0.4201230000000 1.0
C      1  0.5632110000000  0.5025600000000  0.2336390000000 1.0
C      1  0.4630780000000  0.2592610000000  0.4162910000000 1.0
C      1  0.4630700000000  0.3459950000000  0.7030870000000 1.0
C      1  0.4630590000000  0.6455570000000  0.7092230000000 1.0
C      1  0.4630610000000  0.7439620000000  0.4262190000000 1.0
C      1  0.4630730000000  0.5052180000000  0.2451770000000 1.0
C      1  0.4482710000000  0.5614150000000  0.7499470000000 1.0
C      1  0.4482680000000  0.7566910000000  0.5188260000000 1.0
C      1  0.4482790000000  0.5972260000000  0.2616870000000 1.0
C      1  0.4482870000000  0.3033950000000  0.3338870000000 1.0
C      1  0.4482830000000  0.2812630000000  0.6356480000000 1.0
C      1  0.6321070000000  0.4979700000000  0.4130370000000 1.0
C      1  0.6321080000000  0.4166670000000  0.4750630000000 1.0
C      1  0.6321050000000  0.4505340000000  0.5715550000000 1.0
C      1  0.6321020000000  0.5527670000000  0.5691630000000 1.0
C      1  0.6321030000000  0.5820850000000  0.4711940000000 1.0
C      1  0.5310120000000  0.6393580000000  0.3271530000000 1.0
C      1  0.5310210000000  0.3786770000000  0.3140510000000 1.0
C      1  0.5310200000000  0.2856620000000  0.5579250000000 1.0
C      1  0.5310100000000  0.4888560000000  0.7217490000000 1.0
C      1  0.5310050000000  0.7074520000000  0.5791250000000 1.0
C      1  0.2789640000000  0.4370790000000  0.4307780000000 1.0
C      1  0.2789630000000  0.4147210000000  0.5384410000000 1.0
C      1  0.2789590000000  0.5102050000000  0.5929740000000 1.0
C      1  0.2789580000000  0.5915750000000  0.5190150000000 1.0
C      1  0.2789610000000  0.5463810000000  0.4187730000000 1.0
C      1  0.4310270000000  0.4461110000000  0.6888420000000 1.0
C      1  0.4310200000000  0.6629470000000  0.6096040000000 1.0
C      1  0.4310250000000  0.6545930000000  0.3788950000000 1.0
C      1  0.4310340000000  0.4325940000000  0.3155470000000 1.0
C      1  0.4310350000000  0.3037450000000  0.5071050000000 1.0
C      1  0.5475420000000  0.4866450000000  0.3476480000000 1.0
C      1  0.5475440000000  0.3509780000000  0.4656240000000 1.0
C      1  0.5475390000000  0.4212560000000  0.6311080000000 1.0
C      1  0.5475330000000  0.6003580000000  0.6154060000000 1.0
C      1  0.5475350000000  0.6407710000000  0.4402180000000 1.0
C      1  0.6741420000000  0.3568440000000  0.6018360000000 1.0
C      1  0.6741340000000  0.5526160000000  0.6676260000000 1.0
C      1  0.6741330000000  0.6756820000000  0.5017680000000 1.0
C      1  0.6741400000000  0.5559700000000  0.3334700000000 1.0
C      1  0.6741460000000  0.3589180000000  0.3953160000000 1.0
C      1  0.3659990000000  0.3826620000000  0.4747940000000 1.0
C      1  0.3659950000000  0.4397670000000  0.6038000000000 1.0
C      1  0.3659900000000  0.5801060000000  0.5893540000000 1.0
C      1  0.3659920000000  0.6097350000000  0.4514200000000 1.0
C      1  0.3659970000000  0.4877070000000  0.3806180000000 1.0
END
