TITL C-986975-4297-742 3.68792607093482e-06 3375 -347.769137202067 0 0 60 (C1) n - 1
REM
REM in /home/bkarasulu/work/CARBON/AIRSS/Generating-Clusters/REBO/Higher-Symm/Only-C60
REM
REM
REM
REM
REM
REM ./C.cell (a2850807a9bf4ad07a5b6933b78d9264)
REM AIRSS Version 0.9.1 bugfix July 2018 build 013d7b7c2542+ Fri, 06 Jul 2018 19:26:36 +0100
REM compiler GCC version 9.2.1 20190827 (Red Hat 9.2.1-1)
REM options -cpp -mtune=generic -march=x86-64 -g -O0 -fpre-include=/usr/include/finclude/math-vector-fortran.h
REM seed 1892122391 -578517298 -397210728 -1208349485 -851219718 -251787032 -957263254 860515381 127703083 -2050169104 2023918796 665447990 1252610409 -42853223 2059550242 644561693 -503498241 -2128735579 -768781205 94343767 -1731872373 -776237499 377907056 -2052791066 -1485940228 -1636027144 -662921313 -451430854 1189226710 1705597089 -706992079 946113286 2051920148
REM
CELL 1.54180   15.00000   15.00000   15.00000   90.00000   90.00000   90.00000
LATT -1
SFAC C  
C      1  0.4123360000000  0.4757310000000  0.7408210000000 1.0
C      1  0.4183340000000  0.7093190000000  0.3999930000000 1.0
C      1  0.4152340000000  0.3136810000000  0.3640550000000 1.0
C      1  0.4757690000000  0.4623910000000  0.5875730000000 1.0
C      1  0.4808730000000  0.5665480000000  0.4849060000000 1.0
C      1  0.4799130000000  0.4684900000000  0.4348190000000 1.0
C      1  0.5851990000000  0.5165520000000  0.7320950000000 1.0
C      1  0.5901440000000  0.6960210000000  0.3736850000000 1.0
C      1  0.5843140000000  0.2770290000000  0.3940950000000 1.0
C      1  0.4978750000000  0.5953630000000  0.2892990000000 1.0
C      1  0.5045410000000  0.2588540000000  0.5375730000000 1.0
C      1  0.5036770000000  0.6535320000000  0.6757070000000 1.0
C      1  0.5109590000000  0.4655950000000  0.7646050000000 1.0
C      1  0.5126640000000  0.7442310000000  0.4014660000000 1.0
C      1  0.5059740000000  0.2929960000000  0.3280410000000 1.0
C      1  0.7056060000000  0.4793170000000  0.5948330000000 1.0
C      1  0.7085610000000  0.5957920000000  0.4701890000000 1.0
C      1  0.6726010000000  0.4462450000000  0.4470540000000 1.0
C      1  0.4859770000000  0.3728660000000  0.7034930000000 1.0
C      1  0.4828280000000  0.7375040000000  0.5115270000000 1.0
C      1  0.4870730000000  0.4006740000000  0.2951450000000 1.0
C      1  0.4714000000000  0.6443850000000  0.5669080000000 1.0
C      1  0.4661870000000  0.4997410000000  0.3353110000000 1.0
C      1  0.4750100000000  0.3494760000000  0.5975450000000 1.0
C      1  0.5783560000000  0.4316390000000  0.5818030000000 1.0
C      1  0.5829960000000  0.5973930000000  0.5141010000000 1.0
C      1  0.5744390000000  0.4326360000000  0.4338010000000 1.0
C      1  0.3896100000000  0.5737910000000  0.2996100000000 1.0
C      1  0.4097100000000  0.3078190000000  0.5208390000000 1.0
C      1  0.4050450000000  0.6212380000000  0.6515040000000 1.0
C      1  0.3147010000000  0.5463230000000  0.5897740000000 1.0
C      1  0.3137310000000  0.5544350000000  0.4067130000000 1.0
C      1  0.3157650000000  0.3980810000000  0.4956640000000 1.0
C      1  0.3321920000000  0.3339690000000  0.5893600000000 1.0
C      1  0.3264530000000  0.6602400000000  0.5917540000000 1.0
C      1  0.3152590000000  0.4990010000000  0.3063210000000 1.0
C      1  0.5838550000000  0.6206710000000  0.3146840000000 1.0
C      1  0.5881060000000  0.2693580000000  0.4906880000000 1.0
C      1  0.5832820000000  0.6047290000000  0.6986020000000 1.0
C      1  0.4097260000000  0.5167030000000  0.6440340000000 1.0
C      1  0.4140110000000  0.6045260000000  0.4061810000000 1.0
C      1  0.4162730000000  0.3846860000000  0.4464600000000 1.0
C      1  0.6332320000000  0.6276180000000  0.6128450000000 1.0
C      1  0.6356120000000  0.5386880000000  0.3267990000000 1.0
C      1  0.6335800000000  0.3334500000000  0.5588920000000 1.0
C      1  0.5865560000000  0.7072500000000  0.5461780000000 1.0
C      1  0.5873570000000  0.4554380000000  0.3030900000000 1.0
C      1  0.5907920000000  0.3541700000000  0.6628680000000 1.0
C      1  0.6099930000000  0.3686420000000  0.3591940000000 1.0
C      1  0.6406940000000  0.4560210000000  0.6747060000000 1.0
C      1  0.6443310000000  0.6764650000000  0.4548730000000 1.0
C      1  0.3097440000000  0.4432690000000  0.5970980000000 1.0
C      1  0.3138210000000  0.6070190000000  0.4939610000000 1.0
C      1  0.3054870000000  0.4436780000000  0.4036040000000 1.0
C      1  0.3745630000000  0.4045940000000  0.3214480000000 1.0
C      1  0.3760220000000  0.3919720000000  0.6753520000000 1.0
C      1  0.3735270000000  0.7041280000000  0.4999380000000 1.0
C      1  0.6993050000000  0.4117000000000  0.5297490000000 1.0
C      1  0.7036640000000  0.5679090000000  0.5624450000000 1.0
C      1  0.6951630000000  0.5284190000000  0.4043260000000 1.0
END
