TITL C-986978-6805-680 1.51425262148083e-05 3375 -336.388808150542 0 0 60 (C1) n - 1
REM
REM in /home/bkarasulu/work/CARBON/AIRSS/Generating-Clusters/REBO/Higher-Symm/Only-C60
REM
REM
REM
REM
REM
REM ./C.cell (a2850807a9bf4ad07a5b6933b78d9264)
REM AIRSS Version 0.9.1 bugfix July 2018 build 013d7b7c2542+ Fri, 06 Jul 2018 19:26:36 +0100
REM compiler GCC version 9.2.1 20190827 (Red Hat 9.2.1-1)
REM options -cpp -mtune=generic -march=x86-64 -g -O0 -fpre-include=/usr/include/finclude/math-vector-fortran.h
REM seed -673232023 -359846937 678800207 -2043727692 460649480 716029461 1072264896 -1804268339 492881144 -1436001134 559173864 1985417583 1978260618 -430665530 133873506 327658891 -319606322 -586432124 2102674536 -1858589931 -1064237399 1232598026 1956393583 -83134469 553428768 688323015 2065962564 308392245 1650395744 -121640819 -886960339 1844100507 -1012936956
REM
CELL 1.54180   15.00000   15.00000   15.00000   90.00000   90.00000   90.00000
LATT -1
SFAC C  
C      1  0.6361610000000  0.5402800000000  0.3097460000000 1.0
C      1  0.4406720000000  0.5370950000000  0.2758310000000 1.0
C      1  0.2904900000000  0.5377540000000  0.4064080000000 1.0
C      1  0.3025120000000  0.5327050000000  0.6025040000000 1.0
C      1  0.4615800000000  0.5317040000000  0.7172030000000 1.0
C      1  0.6509730000000  0.5360200000000  0.6666840000000 1.0
C      1  0.7304620000000  0.5404910000000  0.4851130000000 1.0
C      1  0.6204930000000  0.3239200000000  0.3249450000000 1.0
C      1  0.4446420000000  0.3282760000000  0.3002610000000 1.0
C      1  0.3129730000000  0.3303960000000  0.4163960000000 1.0
C      1  0.3143150000000  0.3166150000000  0.5978230000000 1.0
C      1  0.4703010000000  0.3141990000000  0.7062410000000 1.0
C      1  0.6373460000000  0.3291040000000  0.6459670000000 1.0
C      1  0.7086940000000  0.3246570000000  0.4852570000000 1.0
C      1  0.5719730000000  0.5483480000000  0.5888090000000 1.0
C      1  0.6203010000000  0.5502900000000  0.4985650000000 1.0
C      1  0.5788420000000  0.5491780000000  0.4045730000000 1.0
C      1  0.4791170000000  0.5462330000000  0.3794790000000 1.0
C      1  0.3964470000000  0.5485000000000  0.4407400000000 1.0
C      1  0.3942230000000  0.5504640000000  0.5420740000000 1.0
C      1  0.4722480000000  0.5509670000000  0.6082990000000 1.0
C      1  0.5384860000000  0.5946950000000  0.2875130000000 1.0
C      1  0.3626980000000  0.5928660000000  0.3372940000000 1.0
C      1  0.2901530000000  0.5927340000000  0.5060430000000 1.0
C      1  0.3772100000000  0.5900820000000  0.6668320000000 1.0
C      1  0.5574060000000  0.5912180000000  0.7003800000000 1.0
C      1  0.6955330000000  0.5941290000000  0.5794720000000 1.0
C      1  0.6877530000000  0.5960540000000  0.3950080000000 1.0
C      1  0.5739070000000  0.4168780000000  0.4065290000000 1.0
C      1  0.4703580000000  0.4154950000000  0.3969100000000 1.0
C      1  0.3900140000000  0.4209180000000  0.4750860000000 1.0
C      1  0.3892780000000  0.4240090000000  0.5797970000000 1.0
C      1  0.4665960000000  0.4202260000000  0.6274740000000 1.0
C      1  0.5618980000000  0.4164880000000  0.5804380000000 1.0
C      1  0.6154900000000  0.4184340000000  0.4876360000000 1.0
C      1  0.4410370000000  0.4290070000000  0.2970300000000 1.0
C      1  0.2993870000000  0.4303340000000  0.4219040000000 1.0
C      1  0.2930990000000  0.4206570000000  0.6168760000000 1.0
C      1  0.4652270000000  0.4191620000000  0.7303910000000 1.0
C      1  0.6376750000000  0.4290660000000  0.6543830000000 1.0
C      1  0.7161450000000  0.4312690000000  0.4885060000000 1.0
C      1  0.6268580000000  0.4306810000000  0.3209720000000 1.0
C      1  0.6165890000000  0.6709080000000  0.5513580000000 1.0
C      1  0.6143570000000  0.6710590000000  0.4392660000000 1.0
C      1  0.5255080000000  0.6696890000000  0.3720190000000 1.0
C      1  0.4197600000000  0.6708260000000  0.3973180000000 1.0
C      1  0.3709770000000  0.6724530000000  0.4984620000000 1.0
C      1  0.4206020000000  0.6713510000000  0.5995450000000 1.0
C      1  0.5316750000000  0.6694940000000  0.6221420000000 1.0
C      1  0.5683160000000  0.2838730000000  0.4014150000000 1.0
C      1  0.4699310000000  0.2830450000000  0.3861340000000 1.0
C      1  0.3966680000000  0.2895940000000  0.4534340000000 1.0
C      1  0.4001580000000  0.2893780000000  0.5527970000000 1.0
C      1  0.4818300000000  0.2865190000000  0.6098750000000 1.0
C      1  0.5771230000000  0.2844350000000  0.5799440000000 1.0
C      1  0.6159270000000  0.2851660000000  0.4884390000000 1.0
C      1  0.4890340000000  0.3829210000000  0.5024670000000 1.0
C      1  0.5020730000000  0.6099800000000  0.4936080000000 1.0
C      1  0.4997330000000  0.7015500000000  0.4979270000000 1.0
C      1  0.5029990000000  0.4963940000000  0.4947030000000 1.0
END
