TITL C-986973-6940-1078 7.66809418096192e-06 3375 -335.363401304373 0 0 60 (C1) n - 1
REM
REM in /home/bkarasulu/work/CARBON/AIRSS/Generating-Clusters/REBO/Higher-Symm/Only-C60
REM
REM
REM
REM
REM
REM ./C.cell (a2850807a9bf4ad07a5b6933b78d9264)
REM AIRSS Version 0.9.1 bugfix July 2018 build 013d7b7c2542+ Fri, 06 Jul 2018 19:26:36 +0100
REM compiler GCC version 9.2.1 20190827 (Red Hat 9.2.1-1)
REM options -cpp -mtune=generic -march=x86-64 -g -O0 -fpre-include=/usr/include/finclude/math-vector-fortran.h
REM seed -1552055247 -1994453922 1917778165 -1627435707 -906136212 -761589579 918033269 -846032933 2099789309 1702621871 -1156005833 675178391 737219098 -1626441523 -1348903019 1177047035 -1472435298 -1301252815 108269014 1179694519 1036295307 161342585 -863496346 709902607 879177269 -1078355811 159409938 -1098341499 -1822144486 -1404715840 1642839442 -458367831 -59719655
REM
CELL 1.54180   15.00000   15.00000   15.00000   90.00000   90.00000   90.00000
LATT -1
SFAC C  
C      1  0.4295100000000  0.5578350000000  0.5906190000000 1.0
C      1  0.5967740000000  0.5538460000000  0.5978710000000 1.0
C      1  0.5942000000000  0.2801740000000  0.4485350000000 1.0
C      1  0.4390690000000  0.2631610000000  0.4430990000000 1.0
C      1  0.6766950000000  0.5448130000000  0.5549330000000 1.0
C      1  0.3539020000000  0.5557670000000  0.5399140000000 1.0
C      1  0.5984130000000  0.4440970000000  0.4318600000000 1.0
C      1  0.4312720000000  0.4345130000000  0.4428610000000 1.0
C      1  0.3918750000000  0.3322510000000  0.5176980000000 1.0
C      1  0.6106610000000  0.3304110000000  0.5430420000000 1.0
C      1  0.6010360000000  0.3530800000000  0.3703240000000 1.0
C      1  0.4236400000000  0.3463420000000  0.3773740000000 1.0
C      1  0.6904530000000  0.4936100000000  0.4668640000000 1.0
C      1  0.3521540000000  0.5092940000000  0.4476140000000 1.0
C      1  0.5781540000000  0.5495330000000  0.6921800000000 1.0
C      1  0.4384130000000  0.5536870000000  0.6856820000000 1.0
C      1  0.6146470000000  0.5703450000000  0.3139950000000 1.0
C      1  0.4279930000000  0.6054810000000  0.3152190000000 1.0
C      1  0.6014150000000  0.3384020000000  0.7132350000000 1.0
C      1  0.3978340000000  0.3450450000000  0.6913580000000 1.0
C      1  0.6388400000000  0.3208430000000  0.6403010000000 1.0
C      1  0.3633220000000  0.3264720000000  0.6178520000000 1.0
C      1  0.3740740000000  0.5743880000000  0.3690240000000 1.0
C      1  0.6637550000000  0.5444200000000  0.3737380000000 1.0
C      1  0.6809970000000  0.3804980000000  0.4729360000000 1.0
C      1  0.3269880000000  0.3983340000000  0.4523220000000 1.0
C      1  0.7079210000000  0.3198730000000  0.3926920000000 1.0
C      1  0.3117690000000  0.3524380000000  0.3589300000000 1.0
C      1  0.5731740000000  0.6380340000000  0.7613750000000 1.0
C      1  0.4411660000000  0.6408530000000  0.7548290000000 1.0
C      1  0.5107140000000  0.3976780000000  0.3358990000000 1.0
C      1  0.4702220000000  0.4948660000000  0.2546350000000 1.0
C      1  0.5163620000000  0.2232520000000  0.6332270000000 1.0
C      1  0.5153730000000  0.5436610000000  0.5379010000000 1.0
C      1  0.5325160000000  0.3533700000000  0.1588690000000 1.0
C      1  0.5030130000000  0.8212530000000  0.6897300000000 1.0
C      1  0.5127260000000  0.6624040000000  0.6676510000000 1.0
C      1  0.5069670000000  0.3101250000000  0.6241630000000 1.0
C      1  0.4986820000000  0.5343410000000  0.8987050000000 1.0
C      1  0.3804770000000  0.5050760000000  0.2313870000000 1.0
C      1  0.5090730000000  0.7331200000000  0.7554390000000 1.0
C      1  0.4962130000000  0.8219230000000  0.4797590000000 1.0
C      1  0.5036890000000  0.6675900000000  0.4145670000000 1.0
C      1  0.5100880000000  0.5738700000000  0.4286140000000 1.0
C      1  0.4925950000000  0.8219240000000  0.3811940000000 1.0
C      1  0.5071620000000  0.6948200000000  0.2564870000000 1.0
C      1  0.5056130000000  0.5079590000000  0.3619880000000 1.0
C      1  0.5008920000000  0.3606770000000  0.5318100000000 1.0
C      1  0.5215450000000  0.2194290000000  0.4459000000000 1.0
C      1  0.5085650000000  0.7038070000000  0.5852580000000 1.0
C      1  0.5032520000000  0.5579290000000  0.8016420000000 1.0
C      1  0.5032570000000  0.4753350000000  0.7280000000000 1.0
C      1  0.5000520000000  0.3802860000000  0.7131510000000 1.0
C      1  0.5315320000000  0.1296580000000  0.4502280000000 1.0
C      1  0.5181300000000  0.4539560000000  0.4860420000000 1.0
C      1  0.5111210000000  0.4006750000000  0.2273120000000 1.0
C      1  0.5013780000000  0.8075910000000  0.5925900000000 1.0
C      1  0.4979870000000  0.7330310000000  0.3419030000000 1.0
C      1  0.5270890000000  0.5903060000000  0.2607200000000 1.0
C      1  0.5038880000000  0.7196370000000  0.4929580000000 1.0
END
