TITL C-986975-4297-921 1.5623361358165e-05 3375 -337.245881433722 0 0 60 (C2) n - 1
REM
REM in /home/bkarasulu/work/CARBON/AIRSS/Generating-Clusters/REBO/Higher-Symm/Only-C60
REM
REM
REM
REM
REM
REM ./C.cell (a2850807a9bf4ad07a5b6933b78d9264)
REM AIRSS Version 0.9.1 bugfix July 2018 build 013d7b7c2542+ Fri, 06 Jul 2018 19:26:36 +0100
REM compiler GCC version 9.2.1 20190827 (Red Hat 9.2.1-1)
REM options -cpp -mtune=generic -march=x86-64 -g -O0 -fpre-include=/usr/include/finclude/math-vector-fortran.h
REM seed 930718663 -537566643 409181480 -1995151276 -2123392868 1366592182 -344517998 -469529496 -662359733 1773133636 -1541763257 2088251313 -118703316 -1760718448 -615924153 -1731310772 669356859 -1967800776 -1520608756 -679126505 154773732 1346496768 1906151900 -494353071 -1302983829 -1161841432 1450798251 633059467 390395650 -1055628530 -1089640918 -453001922 -1702677753
REM
CELL 1.54180   15.00000   15.00000   15.00000   90.00000   90.00000   90.00000
LATT -1
SFAC C  
C      1  0.7428900000000  0.6036060000000  0.5870780000000 1.0
C      1  0.4151650000000  0.5958440000000  0.7428960000000 1.0
C      1  0.2571100000000  0.6036060000000  0.4129220000000 1.0
C      1  0.5848350000000  0.5958440000000  0.2571040000000 1.0
C      1  0.7431720000000  0.4192650000000  0.5794280000000 1.0
C      1  0.4153260000000  0.4095720000000  0.7417730000000 1.0
C      1  0.2568280000000  0.4192650000000  0.4205720000000 1.0
C      1  0.5846740000000  0.4095720000000  0.2582270000000 1.0
C      1  0.3208310000000  0.5718460000000  0.3523410000000 1.0
C      1  0.6404200000000  0.5721800000000  0.3281550000000 1.0
C      1  0.6791690000000  0.5718460000000  0.6476590000000 1.0
C      1  0.3595800000000  0.5721800000000  0.6718450000000 1.0
C      1  0.3288070000000  0.4401970000000  0.3637630000000 1.0
C      1  0.6451560000000  0.4397120000000  0.3238410000000 1.0
C      1  0.6711930000000  0.4401970000000  0.6362370000000 1.0
C      1  0.3548440000000  0.4397120000000  0.6761590000000 1.0
C      1  0.7144670000000  0.3570960000000  0.5018050000000 1.0
C      1  0.4921170000000  0.3504140000000  0.7026280000000 1.0
C      1  0.2855330000000  0.3570960000000  0.4981950000000 1.0
C      1  0.5078830000000  0.3504140000000  0.2973720000000 1.0
C      1  0.7025030000000  0.6628850000000  0.5105040000000 1.0
C      1  0.4937030000000  0.6575050000000  0.7136330000000 1.0
C      1  0.2974970000000  0.6628850000000  0.4894960000000 1.0
C      1  0.5062970000000  0.6575050000000  0.2863670000000 1.0
C      1  0.5525690000000  0.5882960000000  0.4322640000000 1.0
C      1  0.5521630000000  0.5892510000000  0.5412800000000 1.0
C      1  0.4474310000000  0.5882960000000  0.5677360000000 1.0
C      1  0.4478370000000  0.5892510000000  0.4587200000000 1.0
C      1  0.5406300000000  0.4222380000000  0.4473900000000 1.0
C      1  0.5683960000000  0.4230620000000  0.5518940000000 1.0
C      1  0.4593700000000  0.4222380000000  0.5526100000000 1.0
C      1  0.4316040000000  0.4230620000000  0.4481060000000 1.0
C      1  0.7512040000000  0.5677060000000  0.4792560000000 1.0
C      1  0.5215020000000  0.5567240000000  0.7525910000000 1.0
C      1  0.2487960000000  0.5677060000000  0.5207440000000 1.0
C      1  0.4784980000000  0.5567240000000  0.2474090000000 1.0
C      1  0.7587770000000  0.4576000000000  0.4732370000000 1.0
C      1  0.5225120000000  0.4471710000000  0.7534140000000 1.0
C      1  0.2412230000000  0.4576000000000  0.5267630000000 1.0
C      1  0.4774880000000  0.4471710000000  0.2465860000000 1.0
C      1  0.7219040000000  0.5431460000000  0.3786760000000 1.0
C      1  0.6204200000000  0.5306710000000  0.7199500000000 1.0
C      1  0.2780960000000  0.5431460000000  0.6213240000000 1.0
C      1  0.3795800000000  0.5306710000000  0.2800500000000 1.0
C      1  0.7380360000000  0.4422830000000  0.3626630000000 1.0
C      1  0.6312610000000  0.4273270000000  0.7277270000000 1.0
C      1  0.2619640000000  0.4422830000000  0.6373370000000 1.0
C      1  0.3687390000000  0.4273270000000  0.2722730000000 1.0
C      1  0.5124110000000  0.3369220000000  0.3871170000000 1.0
C      1  0.6250310000000  0.3404500000000  0.5094340000000 1.0
C      1  0.4875890000000  0.3369220000000  0.6128830000000 1.0
C      1  0.3749690000000  0.3404500000000  0.4905660000000 1.0
C      1  0.5118190000000  0.6720350000000  0.3765290000000 1.0
C      1  0.6123720000000  0.6747750000000  0.5138300000000 1.0
C      1  0.4881810000000  0.6720350000000  0.6234710000000 1.0
C      1  0.3876280000000  0.6747750000000  0.4861700000000 1.0
C      1  0.4119420000000  0.4958830000000  0.6030430000000 1.0
C      1  0.5880580000000  0.4958830000000  0.3969570000000 1.0
C      1  0.3973890000000  0.5155370000000  0.4112320000000 1.0
C      1  0.6026110000000  0.5155370000000  0.5887680000000 1.0
END
