TITL C-986978-6805-673 6.89352914628491e-06 3375 -352.01124600812 0 0 60 (C1) n - 1
REM
REM in /home/bkarasulu/work/CARBON/AIRSS/Generating-Clusters/REBO/Higher-Symm/Only-C60
REM
REM
REM
REM
REM
REM ./C.cell (a2850807a9bf4ad07a5b6933b78d9264)
REM AIRSS Version 0.9.1 bugfix July 2018 build 013d7b7c2542+ Fri, 06 Jul 2018 19:26:36 +0100
REM compiler GCC version 9.2.1 20190827 (Red Hat 9.2.1-1)
REM options -cpp -mtune=generic -march=x86-64 -g -O0 -fpre-include=/usr/include/finclude/math-vector-fortran.h
REM seed 204821982 -1661072370 -1216196717 1947682021 -1095735549 -1681341367 27563526 -91500411 -63616397 -880369023 -1651052977 375044775 2115223527 2036575816 417512503 916947459 -1742542623 1646589180 2026680388 -1850967548 896329711 -1199729373 -2495489 179257228 -573537349 1060918534 804241013 1906225422 -756508871 1251731426 -261896120 219553715 914051544
REM
CELL 1.54180   15.00000   15.00000   15.00000   90.00000   90.00000   90.00000
LATT -1
SFAC C  
C      1  0.5381860000000  0.6021750000000  0.6797260000000 1.0
C      1  0.4470430000000  0.6164230000000  0.2982290000000 1.0
C      1  0.5630310000000  0.3889270000000  0.7162220000000 1.0
C      1  0.4585190000000  0.4034170000000  0.3069850000000 1.0
C      1  0.5432530000000  0.5979820000000  0.3146920000000 1.0
C      1  0.4405320000000  0.6112390000000  0.6955540000000 1.0
C      1  0.5547770000000  0.3841780000000  0.2914410000000 1.0
C      1  0.4652820000000  0.3986120000000  0.6995930000000 1.0
C      1  0.4418880000000  0.5536350000000  0.6024660000000 1.0
C      1  0.5531570000000  0.5344380000000  0.3990280000000 1.0
C      1  0.4486590000000  0.4479260000000  0.5995500000000 1.0
C      1  0.5540550000000  0.4284360000000  0.3961310000000 1.0
C      1  0.4453430000000  0.5632250000000  0.3976530000000 1.0
C      1  0.5508420000000  0.5327710000000  0.5997960000000 1.0
C      1  0.4456660000000  0.4570070000000  0.4000160000000 1.0
C      1  0.5582800000000  0.4278710000000  0.6093800000000 1.0
C      1  0.6386090000000  0.4109260000000  0.5492500000000 1.0
C      1  0.3655010000000  0.4286000000000  0.4521220000000 1.0
C      1  0.6276810000000  0.5644480000000  0.5440110000000 1.0
C      1  0.3656800000000  0.5856480000000  0.4554310000000 1.0
C      1  0.6344610000000  0.4088390000000  0.4567700000000 1.0
C      1  0.3682960000000  0.4233650000000  0.5437100000000 1.0
C      1  0.6312930000000  0.5634750000000  0.4529990000000 1.0
C      1  0.3630510000000  0.5801590000000  0.5469520000000 1.0
C      1  0.5599980000000  0.7348590000000  0.3914490000000 1.0
C      1  0.4292280000000  0.7439650000000  0.6120980000000 1.0
C      1  0.5490160000000  0.2671890000000  0.4020160000000 1.0
C      1  0.4602140000000  0.2773270000000  0.5932450000000 1.0
C      1  0.5397010000000  0.7387060000000  0.5981350000000 1.0
C      1  0.4498970000000  0.7357600000000  0.4064050000000 1.0
C      1  0.5697910000000  0.2730230000000  0.6064710000000 1.0
C      1  0.4389500000000  0.2683360000000  0.3874880000000 1.0
C      1  0.7160490000000  0.5390680000000  0.4010290000000 1.0
C      1  0.2796150000000  0.5484450000000  0.5982990000000 1.0
C      1  0.7181360000000  0.4402080000000  0.4026590000000 1.0
C      1  0.2849610000000  0.4497470000000  0.5996570000000 1.0
C      1  0.7134070000000  0.5503130000000  0.5977600000000 1.0
C      1  0.2818320000000  0.5579980000000  0.4014310000000 1.0
C      1  0.7215970000000  0.4514650000000  0.5988480000000 1.0
C      1  0.2826750000000  0.4593330000000  0.3988560000000 1.0
C      1  0.3045940000000  0.3725720000000  0.3478910000000 1.0
C      1  0.7107310000000  0.3636080000000  0.6504930000000 1.0
C      1  0.3006770000000  0.6509490000000  0.3596850000000 1.0
C      1  0.6850180000000  0.6434650000000  0.6345120000000 1.0
C      1  0.3132470000000  0.3624520000000  0.6480520000000 1.0
C      1  0.6995380000000  0.3493040000000  0.3573630000000 1.0
C      1  0.2930870000000  0.6404410000000  0.6429740000000 1.0
C      1  0.6945600000000  0.6295490000000  0.3562130000000 1.0
C      1  0.3917050000000  0.6827940000000  0.3490050000000 1.0
C      1  0.5943430000000  0.6756170000000  0.6501070000000 1.0
C      1  0.3926290000000  0.3349050000000  0.3344180000000 1.0
C      1  0.6232410000000  0.3260810000000  0.6657220000000 1.0
C      1  0.3787650000000  0.6802440000000  0.6652600000000 1.0
C      1  0.6067810000000  0.6675210000000  0.3396400000000 1.0
C      1  0.4055440000000  0.3329590000000  0.6513920000000 1.0
C      1  0.6087670000000  0.3182600000000  0.3447780000000 1.0
C      1  0.4495530000000  0.2709670000000  0.4894670000000 1.0
C      1  0.5591290000000  0.2683790000000  0.5055090000000 1.0
C      1  0.4403180000000  0.7417540000000  0.5104270000000 1.0
C      1  0.5496200000000  0.7387140000000  0.4935360000000 1.0
END
