TITL C-986976-6631-894 0.0001602824458222 3375 -342.592193268261 0 0 60 (C1) n - 1
REM
REM in /home/bkarasulu/work/CARBON/AIRSS/Generating-Clusters/REBO/Higher-Symm/Only-C60
REM
REM
REM
REM
REM
REM ./C.cell (a2850807a9bf4ad07a5b6933b78d9264)
REM AIRSS Version 0.9.1 bugfix July 2018 build 013d7b7c2542+ Fri, 06 Jul 2018 19:26:36 +0100
REM compiler GCC version 9.2.1 20190827 (Red Hat 9.2.1-1)
REM options -cpp -mtune=generic -march=x86-64 -g -O0 -fpre-include=/usr/include/finclude/math-vector-fortran.h
REM seed -2006339752 716330109 10135103 2118827836 -2105384344 1356928774 -1213045380 919902969 1068647487 -1488566398 1232964907 853773056 1304342907 -1163922131 1328223019 -1628741233 -804761239 -25056961 115644524 454973452 -1408432180 1283100379 624357217 -1955200951 -790697208 1074528201 1358906395 810034518 283033481 1811699351 -400644077 787352731 1664888794
REM
CELL 1.54180   15.00000   15.00000   15.00000   90.00000   90.00000   90.00000
LATT -1
SFAC C  
C      1  0.5126150000000  0.7137920000000  0.5484550000000 1.0
C      1  0.5067040000000  0.7209260000000  0.4496250000000 1.0
C      1  0.2848640000000  0.3481220000000  0.6303550000000 1.0
C      1  0.3068220000000  0.3730280000000  0.4022640000000 1.0
C      1  0.6188410000000  0.4050530000000  0.7243220000000 1.0
C      1  0.6174870000000  0.4104940000000  0.2740680000000 1.0
C      1  0.4062430000000  0.2991100000000  0.5439520000000 1.0
C      1  0.4081590000000  0.3010430000000  0.4501230000000 1.0
C      1  0.7402650000000  0.6385000000000  0.4538100000000 1.0
C      1  0.7426360000000  0.6398560000000  0.5481510000000 1.0
C      1  0.5037090000000  0.4237420000000  0.4517070000000 1.0
C      1  0.5040360000000  0.4182770000000  0.5432170000000 1.0
C      1  0.4041040000000  0.7091870000000  0.5335090000000 1.0
C      1  0.4057010000000  0.7338020000000  0.4223860000000 1.0
C      1  0.5445890000000  0.5467350000000  0.2706580000000 1.0
C      1  0.5463380000000  0.5424270000000  0.7315050000000 1.0
C      1  0.3321720000000  0.5086280000000  0.3823760000000 1.0
C      1  0.2968820000000  0.5111900000000  0.6392800000000 1.0
C      1  0.4507910000000  0.3648290000000  0.5968060000000 1.0
C      1  0.4483210000000  0.3710100000000  0.3989270000000 1.0
C      1  0.4873320000000  0.5486250000000  0.5594180000000 1.0
C      1  0.4987900000000  0.5564140000000  0.4463040000000 1.0
C      1  0.3570500000000  0.6376930000000  0.6077790000000 1.0
C      1  0.3513760000000  0.6632250000000  0.3547780000000 1.0
C      1  0.3024680000000  0.6952860000000  0.4454620000000 1.0
C      1  0.2897300000000  0.6827470000000  0.5416620000000 1.0
C      1  0.5768200000000  0.3216680000000  0.5991730000000 1.0
C      1  0.5736290000000  0.3244920000000  0.3969130000000 1.0
C      1  0.5578880000000  0.6645660000000  0.3956830000000 1.0
C      1  0.5615720000000  0.6652860000000  0.6092020000000 1.0
C      1  0.4012780000000  0.5976430000000  0.3119670000000 1.0
C      1  0.4027010000000  0.5866880000000  0.6673020000000 1.0
C      1  0.6347390000000  0.3957970000000  0.5494570000000 1.0
C      1  0.6337860000000  0.3961710000000  0.4486820000000 1.0
C      1  0.5404910000000  0.2562010000000  0.4516730000000 1.0
C      1  0.5427720000000  0.2550050000000  0.5430190000000 1.0
C      1  0.3257290000000  0.4018750000000  0.5706760000000 1.0
C      1  0.3438130000000  0.4149790000000  0.4751930000000 1.0
C      1  0.4976490000000  0.6003030000000  0.3409570000000 1.0
C      1  0.5036730000000  0.5992600000000  0.6617700000000 1.0
C      1  0.4874240000000  0.4879010000000  0.2266380000000 1.0
C      1  0.4880700000000  0.4815760000000  0.7715860000000 1.0
C      1  0.3853900000000  0.4992130000000  0.5685020000000 1.0
C      1  0.4033600000000  0.5107400000000  0.4632920000000 1.0
C      1  0.5488950000000  0.3512390000000  0.6856430000000 1.0
C      1  0.5467660000000  0.3562790000000  0.3107350000000 1.0
C      1  0.4461670000000  0.4078650000000  0.2955560000000 1.0
C      1  0.4484470000000  0.4033090000000  0.6993400000000 1.0
C      1  0.7111220000000  0.4582680000000  0.4012610000000 1.0
C      1  0.7076950000000  0.4608080000000  0.5979040000000 1.0
C      1  0.6501540000000  0.6415680000000  0.6030640000000 1.0
C      1  0.6451870000000  0.6378950000000  0.4032490000000 1.0
C      1  0.6135330000000  0.4930750000000  0.6873140000000 1.0
C      1  0.6127090000000  0.4978350000000  0.3126050000000 1.0
C      1  0.7142980000000  0.5528610000000  0.6061120000000 1.0
C      1  0.7126550000000  0.5512030000000  0.3962510000000 1.0
C      1  0.5772180000000  0.4854850000000  0.5902720000000 1.0
C      1  0.5822470000000  0.4893720000000  0.4103570000000 1.0
C      1  0.3761770000000  0.4975120000000  0.2969620000000 1.0
C      1  0.3779150000000  0.4923210000000  0.7007920000000 1.0
END
