TITL C-986978-6805-173 0.0566234215795305 3375 -338.001386937809 0 0 60 (C1) n - 1
REM
REM in /home/bkarasulu/work/CARBON/AIRSS/Generating-Clusters/REBO/Higher-Symm/Only-C60
REM
REM
REM
REM
REM
REM ./C.cell (a2850807a9bf4ad07a5b6933b78d9264)
REM AIRSS Version 0.9.1 bugfix July 2018 build 013d7b7c2542+ Fri, 06 Jul 2018 19:26:36 +0100
REM compiler GCC version 9.2.1 20190827 (Red Hat 9.2.1-1)
REM options -cpp -mtune=generic -march=x86-64 -g -O0 -fpre-include=/usr/include/finclude/math-vector-fortran.h
REM seed -913451081 955282792 -819607094 -1263472847 -953998834 557106209 -304351610 1369788239 -1845725283 -124323064 1362932014 1645686916 -499545652 -1576521938 -1154169608 1534997138 -289859705 180076343 1757197970 12506294 -1579142678 1039066234 371465465 -1356196754 3510951 -1392318504 -891317437 438996383 -1224346944 -606116022 1825652480 772770513 -1025794021
REM
CELL 1.54180   15.00000   15.00000   15.00000   90.00000   90.00000   90.00000
LATT -1
SFAC C  
C      1  0.7074150000000  0.3109400000000  0.4890890000000 1.0
C      1  0.6826810000000  0.4560020000000  0.3719890000000 1.0
C      1  0.5695240000000  0.3254920000000  0.4355690000000 1.0
C      1  0.3689200000000  0.3443630000000  0.6017140000000 1.0
C      1  0.4124070000000  0.3040830000000  0.4500370000000 1.0
C      1  0.6054450000000  0.4104850000000  0.3012910000000 1.0
C      1  0.6065230000000  0.5044470000000  0.5462890000000 1.0
C      1  0.3525550000000  0.6793060000000  0.5997070000000 1.0
C      1  0.3410830000000  0.5469100000000  0.6054770000000 1.0
C      1  0.4661150000000  0.4029440000000  0.4670350000000 1.0
C      1  0.5055560000000  0.5991170000000  0.6511670000000 1.0
C      1  0.5119940000000  0.2448360000000  0.5682500000000 1.0
C      1  0.5189450000000  0.4041580000000  0.5652750000000 1.0
C      1  0.6478790000000  0.6283800000000  0.5228310000000 1.0
C      1  0.5508030000000  0.7321040000000  0.3755680000000 1.0
C      1  0.6961250000000  0.4120340000000  0.5745710000000 1.0
C      1  0.4029990000000  0.7730800000000  0.4645310000000 1.0
C      1  0.5795530000000  0.4568290000000  0.7574660000000 1.0
C      1  0.4650020000000  0.5742590000000  0.7509410000000 1.0
C      1  0.7206190000000  0.3794670000000  0.4300360000000 1.0
C      1  0.5492800000000  0.5038820000000  0.6383410000000 1.0
C      1  0.5137400000000  0.5137470000000  0.7969730000000 1.0
C      1  0.3698280000000  0.4267780000000  0.3521840000000 1.0
C      1  0.3959270000000  0.6083790000000  0.6677950000000 1.0
C      1  0.7051950000000  0.6560060000000  0.5896620000000 1.0
C      1  0.3875690000000  0.6626920000000  0.3409100000000 1.0
C      1  0.6377860000000  0.7187920000000  0.3914510000000 1.0
C      1  0.5780250000000  0.3036970000000  0.6296110000000 1.0
C      1  0.4682120000000  0.6056980000000  0.4907430000000 1.0
C      1  0.4850130000000  0.4706320000000  0.4024590000000 1.0
C      1  0.6707240000000  0.5656190000000  0.3637870000000 1.0
C      1  0.6095780000000  0.4009010000000  0.5001860000000 1.0
C      1  0.4261970000000  0.3485540000000  0.3531780000000 1.0
C      1  0.5315380000000  0.6059030000000  0.2626740000000 1.0
C      1  0.3092540000000  0.4380340000000  0.6073370000000 1.0
C      1  0.3971990000000  0.8487600000000  0.5078340000000 1.0
C      1  0.4415510000000  0.7579150000000  0.3704160000000 1.0
C      1  0.6621080000000  0.4942370000000  0.7237000000000 1.0
C      1  0.3832880000000  0.6792670000000  0.5004950000000 1.0
C      1  0.5315030000000  0.3544310000000  0.3483180000000 1.0
C      1  0.3402440000000  0.5021990000000  0.4287790000000 1.0
C      1  0.4424230000000  0.5904710000000  0.2885230000000 1.0
C      1  0.4831550000000  0.6490760000000  0.4006390000000 1.0
C      1  0.2426250000000  0.5836750000000  0.4647370000000 1.0
C      1  0.2735940000000  0.5052420000000  0.5231420000000 1.0
C      1  0.6171130000000  0.5881360000000  0.2876680000000 1.0
C      1  0.4202660000000  0.4433260000000  0.5826880000000 1.0
C      1  0.4040280000000  0.5277710000000  0.5125960000000 1.0
C      1  0.6662320000000  0.3130500000000  0.5825450000000 1.0
C      1  0.5477350000000  0.6015500000000  0.5500310000000 1.0
C      1  0.2658500000000  0.2482990000000  0.5101100000000 1.0
C      1  0.4611280000000  0.3068730000000  0.6384240000000 1.0
C      1  0.3413930000000  0.2915990000000  0.5189710000000 1.0
C      1  0.3306240000000  0.6171680000000  0.4220970000000 1.0
C      1  0.6680240000000  0.6356330000000  0.4289760000000 1.0
C      1  0.5735590000000  0.4769440000000  0.3792680000000 1.0
C      1  0.5063570000000  0.2680870000000  0.4788100000000 1.0
C      1  0.6820100000000  0.4931370000000  0.6313440000000 1.0
C      1  0.4257630000000  0.5074970000000  0.3268000000000 1.0
C      1  0.5422240000000  0.3971080000000  0.6769620000000 1.0
END
