TITL C-986973-6940-200 -0.0795433316289345 3375 -331.221180428353 0 0 60 (Td) n - 1
REM
REM in /home/bkarasulu/work/CARBON/AIRSS/Generating-Clusters/REBO/Higher-Symm/Only-C60
REM
REM
REM
REM
REM
REM ./C.cell (a2850807a9bf4ad07a5b6933b78d9264)
REM AIRSS Version 0.9.1 bugfix July 2018 build 013d7b7c2542+ Fri, 06 Jul 2018 19:26:36 +0100
REM compiler GCC version 9.2.1 20190827 (Red Hat 9.2.1-1)
REM options -cpp -mtune=generic -march=x86-64 -g -O0 -fpre-include=/usr/include/finclude/math-vector-fortran.h
REM seed -433962463 -2103821794 1476842543 -1539325641 -1452963640 -2108774552 -1837134084 1014823159 -1149071726 -962823567 1335810912 -818689169 -1141730308 -1449927726 -1674727623 -353620451 -281607612 -1712061109 242897352 1757711000 1673505852 -658777397 531299879 711704231 -1617945735 972912067 17711362 -903982084 -940912662 -1073153812 1765105107 -390437785 -98876872
REM
CELL 1.54180   15.00000   15.00000   15.00000   90.00000   90.00000   90.00000
LATT -1
SFAC C  
C      1  0.3784470000000  0.7336160000000  0.5505770000000 1.0
C      1  0.7336160000000  0.5505780000000  0.3784470000000 1.0
C      1  0.5505790000000  0.3784470000000  0.7336160000000 1.0
C      1  0.6215530000000  0.2663840000000  0.5505790000000 1.0
C      1  0.3784470000000  0.2663840000000  0.4494220000000 1.0
C      1  0.6215530000000  0.7336160000000  0.4494220000000 1.0
C      1  0.2663840000000  0.4494220000000  0.3784470000000 1.0
C      1  0.7336160000000  0.4494210000000  0.6215530000000 1.0
C      1  0.2663840000000  0.5505770000000  0.6215530000000 1.0
C      1  0.4494230000000  0.6215530000000  0.7336160000000 1.0
C      1  0.5505780000000  0.6215530000000  0.2663840000000 1.0
C      1  0.4494220000000  0.3784470000000  0.2663840000000 1.0
C      1  0.7336160000000  0.3784470000000  0.5505790000000 1.0
C      1  0.5505780000000  0.7336160000000  0.3784470000000 1.0
C      1  0.3784470000000  0.5505770000000  0.7336160000000 1.0
C      1  0.2663840000000  0.6215530000000  0.5505770000000 1.0
C      1  0.2663840000000  0.3784470000000  0.4494220000000 1.0
C      1  0.7336160000000  0.6215530000000  0.4494220000000 1.0
C      1  0.4494220000000  0.2663840000000  0.3784470000000 1.0
C      1  0.4494230000000  0.7336160000000  0.6215530000000 1.0
C      1  0.5505790000000  0.2663840000000  0.6215530000000 1.0
C      1  0.6215530000000  0.4494210000000  0.7336160000000 1.0
C      1  0.6215530000000  0.5505780000000  0.2663840000000 1.0
C      1  0.3784470000000  0.4494220000000  0.2663840000000 1.0
C      1  0.4964150000000  0.6497740000000  0.4219530000000 1.0
C      1  0.6497750000000  0.4219530000000  0.4964150000000 1.0
C      1  0.4219530000000  0.4964150000000  0.6497740000000 1.0
C      1  0.5035850000000  0.3502260000000  0.4219530000000 1.0
C      1  0.4964150000000  0.3502250000000  0.5780470000000 1.0
C      1  0.5035850000000  0.6497740000000  0.5780470000000 1.0
C      1  0.3502260000000  0.5780470000000  0.4964150000000 1.0
C      1  0.6497740000000  0.5780470000000  0.5035850000000 1.0
C      1  0.3502270000000  0.4219530000000  0.5035850000000 1.0
C      1  0.5780470000000  0.5035850000000  0.6497750000000 1.0
C      1  0.4219530000000  0.5035850000000  0.3502260000000 1.0
C      1  0.5780470000000  0.4964150000000  0.3502260000000 1.0
C      1  0.6497740000000  0.4964150000000  0.4219530000000 1.0
C      1  0.4219530000000  0.6497740000000  0.4964150000000 1.0
C      1  0.4964150000000  0.4219530000000  0.6497750000000 1.0
C      1  0.3502260000000  0.5035850000000  0.4219530000000 1.0
C      1  0.3502260000000  0.4964150000000  0.5780470000000 1.0
C      1  0.6497750000000  0.5035850000000  0.5780470000000 1.0
C      1  0.5780470000000  0.3502250000000  0.4964150000000 1.0
C      1  0.5780470000000  0.6497730000000  0.5035850000000 1.0
C      1  0.4219530000000  0.3502260000000  0.5035850000000 1.0
C      1  0.5035850000000  0.5780470000000  0.6497740000000 1.0
C      1  0.5035850000000  0.4219530000000  0.3502260000000 1.0
C      1  0.4964150000000  0.5780470000000  0.3502260000000 1.0
C      1  0.6970320000000  0.6100220000000  0.3029680000000 1.0
C      1  0.3029520000000  0.6099910000000  0.6970480000000 1.0
C      1  0.6970190000000  0.3899550000000  0.6970190000000 1.0
C      1  0.6970320000000  0.6970320000000  0.3899780000000 1.0
C      1  0.3029520000000  0.6970480000000  0.6099910000000 1.0
C      1  0.6970190000000  0.3029810000000  0.6100450000000 1.0
C      1  0.6100220000000  0.6970320000000  0.3029680000000 1.0
C      1  0.6100450000000  0.3029810000000  0.6970190000000 1.0
C      1  0.3900090000000  0.6970480000000  0.6970480000000 1.0
C      1  0.3899800000000  0.3029670000000  0.3029670000000 1.0
C      1  0.3029670000000  0.3899800000000  0.3029670000000 1.0
C      1  0.3029670000000  0.3029670000000  0.3899800000000 1.0
END
