TITL C-986978-6805-255 1.48691232040758e-06 3375 -339.926621772711 0 0 60 (Ci) n - 1
REM
REM in /home/bkarasulu/work/CARBON/AIRSS/Generating-Clusters/REBO/Higher-Symm/Only-C60
REM
REM
REM
REM
REM
REM ./C.cell (a2850807a9bf4ad07a5b6933b78d9264)
REM AIRSS Version 0.9.1 bugfix July 2018 build 013d7b7c2542+ Fri, 06 Jul 2018 19:26:36 +0100
REM compiler GCC version 9.2.1 20190827 (Red Hat 9.2.1-1)
REM options -cpp -mtune=generic -march=x86-64 -g -O0 -fpre-include=/usr/include/finclude/math-vector-fortran.h
REM seed -1489992745 -1887583217 1027440952 -151881648 1612848945 1927495210 -1506460193 -1236375509 -793002356 2076218081 -318361271 2050933677 595986407 1852424044 503811688 -313119784 817403911 -568494352 -1090374141 2062139097 -378663146 1083982615 -74357716 -1436396175 1395887481 -864943284 -1419447172 1493869173 105115551 1847051644 -24679888 1176351314 1259493250
REM
CELL 1.54180   15.00000   15.00000   15.00000   90.00000   90.00000   90.00000
LATT -1
SFAC C  
C      1  0.7225200000000  0.4494680000000  0.6310690000000 1.0
C      1  0.4322360000000  0.7185910000000  0.6204420000000 1.0
C      1  0.3470050000000  0.3338470000000  0.6178650000000 1.0
C      1  0.2810140000000  0.4483400000000  0.3764330000000 1.0
C      1  0.5656850000000  0.7191480000000  0.3742360000000 1.0
C      1  0.6543360000000  0.3356120000000  0.3868470000000 1.0
C      1  0.2774800000000  0.5505320000000  0.3689300000000 1.0
C      1  0.5677640000000  0.2814090000000  0.3795580000000 1.0
C      1  0.6529950000000  0.6661530000000  0.3821350000000 1.0
C      1  0.7189860000000  0.5516600000000  0.6235670000000 1.0
C      1  0.4343150000000  0.2808520000000  0.6257650000000 1.0
C      1  0.3456640000000  0.6643880000000  0.6131530000000 1.0
C      1  0.6420000000000  0.5304070000000  0.6976330000000 1.0
C      1  0.4017320000000  0.6099580000000  0.6891880000000 1.0
C      1  0.4899590000000  0.3323960000000  0.7058670000000 1.0
C      1  0.3516360000000  0.5747990000000  0.2908100000000 1.0
C      1  0.5981970000000  0.6100990000000  0.3068850000000 1.0
C      1  0.5100960000000  0.3319030000000  0.2998480000000 1.0
C      1  0.3580000000000  0.4695920000000  0.3023670000000 1.0
C      1  0.5982680000000  0.3900420000000  0.3108120000000 1.0
C      1  0.5100410000000  0.6676040000000  0.2941330000000 1.0
C      1  0.6483640000000  0.4252010000000  0.7091900000000 1.0
C      1  0.4018030000000  0.3899010000000  0.6931150000000 1.0
C      1  0.4899040000000  0.6680960000000  0.7001520000000 1.0
C      1  0.3273960000000  0.3882060000000  0.4493980000000 1.0
C      1  0.6828560000000  0.4074750000000  0.4586090000000 1.0
C      1  0.4892330000000  0.7053390000000  0.4490750000000 1.0
C      1  0.6747970000000  0.3901400000000  0.5550960000000 1.0
C      1  0.3176720000000  0.4043500000000  0.5457810000000 1.0
C      1  0.5085040000000  0.7053960000000  0.5456450000000 1.0
C      1  0.6726040000000  0.6117940000000  0.5506020000000 1.0
C      1  0.3171440000000  0.5925250000000  0.5413900000000 1.0
C      1  0.5107670000000  0.2946610000000  0.5509250000000 1.0
C      1  0.3252030000000  0.6098600000000  0.4449040000000 1.0
C      1  0.6823280000000  0.5956500000000  0.4542190000000 1.0
C      1  0.4914960000000  0.2946040000000  0.4543550000000 1.0
C      1  0.5041600000000  0.3923230000000  0.6084920000000 1.0
C      1  0.5883550000000  0.5555620000000  0.6005850000000 1.0
C      1  0.4077900000000  0.5488230000000  0.5935360000000 1.0
C      1  0.4971030000000  0.3924170000000  0.3969130000000 1.0
C      1  0.4085030000000  0.5564550000000  0.3893070000000 1.0
C      1  0.5919910000000  0.5502110000000  0.4034300000000 1.0
C      1  0.4958400000000  0.6076770000000  0.3915090000000 1.0
C      1  0.4116450000000  0.4444380000000  0.3994160000000 1.0
C      1  0.5922100000000  0.4511770000000  0.4064640000000 1.0
C      1  0.5028970000000  0.6075820000000  0.6030870000000 1.0
C      1  0.5914970000000  0.4435450000000  0.6106930000000 1.0
C      1  0.4080090000000  0.4497890000000  0.5965700000000 1.0
C      1  0.5962510000000  0.7533560000000  0.5682630000000 1.0
C      1  0.2329280000000  0.4566740000000  0.5684680000000 1.0
C      1  0.6714730000000  0.2898470000000  0.5757130000000 1.0
C      1  0.4007310000000  0.7522010000000  0.4270430000000 1.0
C      1  0.7673360000000  0.4597750000000  0.4344060000000 1.0
C      1  0.3315370000000  0.2885300000000  0.4272410000000 1.0
C      1  0.4037490000000  0.2466440000000  0.4317380000000 1.0
C      1  0.7670720000000  0.5433260000000  0.4315320000000 1.0
C      1  0.3285270000000  0.7101530000000  0.4242870000000 1.0
C      1  0.5992690000000  0.2477990000000  0.5729570000000 1.0
C      1  0.2326640000000  0.5402250000000  0.5655930000000 1.0
C      1  0.6684630000000  0.7114700000000  0.5727590000000 1.0
END
