TITL C-986976-6631-872 4.76061233078128e-06 3375 -348.542972236076 0 0 60 (C2) n - 1
REM
REM in /home/bkarasulu/work/CARBON/AIRSS/Generating-Clusters/REBO/Higher-Symm/Only-C60
REM
REM
REM
REM
REM
REM ./C.cell (a2850807a9bf4ad07a5b6933b78d9264)
REM AIRSS Version 0.9.1 bugfix July 2018 build 013d7b7c2542+ Fri, 06 Jul 2018 19:26:36 +0100
REM compiler GCC version 9.2.1 20190827 (Red Hat 9.2.1-1)
REM options -cpp -mtune=generic -march=x86-64 -g -O0 -fpre-include=/usr/include/finclude/math-vector-fortran.h
REM seed 2136240543 -1487963546 -1634404895 169321104 2003323521 -1733849965 903922586 535058339 548122659 491765881 -2051639652 833554682 1538311657 931334657 536240372 -1442170335 -2100802731 -1712622595 322728918 105497052 -820771767 -1520761386 1964134139 528994230 1783071440 -722436531 2124340427 -674971829 -1511581708 -1866867619 741451296 -737423815 -467801079
REM
CELL 1.54180   15.00000   15.00000   15.00000   90.00000   90.00000   90.00000
LATT -1
SFAC C  
C      1  0.3095300000000  0.5409220000000  0.7077650000000 1.0
C      1  0.6291280000000  0.6432220000000  0.7083150000000 1.0
C      1  0.5614780000000  0.3165750000000  0.7089490000000 1.0
C      1  0.3104010000000  0.4615810000000  0.2910470000000 1.0
C      1  0.6306510000000  0.3554840000000  0.2922400000000 1.0
C      1  0.5595240000000  0.6834320000000  0.2916940000000 1.0
C      1  0.5589310000000  0.5046440000000  0.6021940000000 1.0
C      1  0.4634640000000  0.4481290000000  0.6001560000000 1.0
C      1  0.4616390000000  0.5598520000000  0.5912280000000 1.0
C      1  0.5710100000000  0.4966830000000  0.4087580000000 1.0
C      1  0.4745680000000  0.5533610000000  0.3977920000000 1.0
C      1  0.4733280000000  0.4424280000000  0.3998400000000 1.0
C      1  0.4810030000000  0.4389470000000  0.7728260000000 1.0
C      1  0.4559260000000  0.5438880000000  0.7722450000000 1.0
C      1  0.5595410000000  0.5130710000000  0.7698100000000 1.0
C      1  0.4815690000000  0.5581130000000  0.2301990000000 1.0
C      1  0.4566160000000  0.4530430000000  0.2271770000000 1.0
C      1  0.5600450000000  0.4837670000000  0.2277690000000 1.0
C      1  0.5975010000000  0.6660200000000  0.3906210000000 1.0
C      1  0.5933530000000  0.3330930000000  0.3902540000000 1.0
C      1  0.3098050000000  0.5015160000000  0.3906900000000 1.0
C      1  0.5963640000000  0.3360170000000  0.6093050000000 1.0
C      1  0.5950670000000  0.6674170000000  0.6093880000000 1.0
C      1  0.3087790000000  0.4974400000000  0.6097450000000 1.0
C      1  0.4758640000000  0.3558540000000  0.7296590000000 1.0
C      1  0.3874210000000  0.5922440000000  0.7303860000000 1.0
C      1  0.6348640000000  0.5489510000000  0.7273000000000 1.0
C      1  0.4750030000000  0.6412870000000  0.2727070000000 1.0
C      1  0.3872110000000  0.4070600000000  0.2703350000000 1.0
C      1  0.6361680000000  0.4486000000000  0.2696240000000 1.0
C      1  0.4840270000000  0.6946600000000  0.6006810000000 1.0
C      1  0.6746760000000  0.4188710000000  0.5962460000000 1.0
C      1  0.3442020000000  0.3891820000000  0.5989890000000 1.0
C      1  0.4818820000000  0.3096690000000  0.4010020000000 1.0
C      1  0.6765960000000  0.5834620000000  0.3993300000000 1.0
C      1  0.3424340000000  0.6107540000000  0.4037540000000 1.0
C      1  0.4514620000000  0.6883580000000  0.5048630000000 1.0
C      1  0.6859850000000  0.4492410000000  0.4999840000000 1.0
C      1  0.3617860000000  0.3631890000000  0.5033430000000 1.0
C      1  0.4505760000000  0.3119090000000  0.4966470000000 1.0
C      1  0.6874050000000  0.5520950000000  0.4951460000000 1.0
C      1  0.3630840000000  0.6357250000000  0.5000190000000 1.0
C      1  0.4879000000000  0.3001910000000  0.5876480000000 1.0
C      1  0.3373890000000  0.6081790000000  0.5918270000000 1.0
C      1  0.6767430000000  0.5881890000000  0.5866070000000 1.0
C      1  0.4880570000000  0.6971710000000  0.4134030000000 1.0
C      1  0.3329810000000  0.3896620000000  0.4123410000000 1.0
C      1  0.6749690000000  0.4132210000000  0.4081730000000 1.0
C      1  0.4150780000000  0.3378730000000  0.6531950000000 1.0
C      1  0.4063330000000  0.6581350000000  0.6569630000000 1.0
C      1  0.6813090000000  0.5050900000000  0.6509890000000 1.0
C      1  0.4138000000000  0.6595960000000  0.3490180000000 1.0
C      1  0.4020170000000  0.3454140000000  0.3467940000000 1.0
C      1  0.6837920000000  0.4979170000000  0.3430450000000 1.0
C      1  0.3900970000000  0.4985660000000  0.5406310000000 1.0
C      1  0.5511910000000  0.5951680000000  0.5462700000000 1.0
C      1  0.5506550000000  0.4106570000000  0.5520030000000 1.0
C      1  0.3972980000000  0.4992240000000  0.4479910000000 1.0
C      1  0.5536830000000  0.4040900000000  0.4593620000000 1.0
C      1  0.5568420000000  0.5918990000000  0.4537180000000 1.0
END
