TITL C-986976-6631-550 -1.58101193029026e-06 3375 -327.425559457629 0 0 60 (S4) n - 1
REM
REM in /home/bkarasulu/work/CARBON/AIRSS/Generating-Clusters/REBO/Higher-Symm/Only-C60
REM
REM
REM
REM
REM
REM ./C.cell (a2850807a9bf4ad07a5b6933b78d9264)
REM AIRSS Version 0.9.1 bugfix July 2018 build 013d7b7c2542+ Fri, 06 Jul 2018 19:26:36 +0100
REM compiler GCC version 9.2.1 20190827 (Red Hat 9.2.1-1)
REM options -cpp -mtune=generic -march=x86-64 -g -O0 -fpre-include=/usr/include/finclude/math-vector-fortran.h
REM seed -155417804 -1858118332 934251470 -1296397733 1767348914 -321825178 -872318814 -1217229118 371798143 1511347577 -84687683 1672980653 -1837731158 -1109523406 721533155 -877651667 242721607 542872736 35732517 1216482850 -380242205 -1913587880 1187869672 -372599463 696926667 -1812741482 523717883 -313711740 916368773 1431904071 -875092518 -188386463 -377999780
REM
CELL 1.54180   15.00000   15.00000   15.00000   90.00000   90.00000   90.00000
LATT -1
SFAC C  
C      1  0.6146200000000  0.2820040000000  0.5998820000000 1.0
C      1  0.6002080000000  0.3038440000000  0.3967420000000 1.0
C      1  0.3853790000000  0.2820030000000  0.4001190000000 1.0
C      1  0.3997920000000  0.3038450000000  0.6032580000000 1.0
C      1  0.6032590000000  0.6853050000000  0.6002080000000 1.0
C      1  0.5998820000000  0.7071460000000  0.3853800000000 1.0
C      1  0.3967440000000  0.6853050000000  0.3997930000000 1.0
C      1  0.4001210000000  0.7071470000000  0.6146220000000 1.0
C      1  0.5026510000000  0.7283860000000  0.5704920000000 1.0
C      1  0.5890460000000  0.7285850000000  0.4964020000000 1.0
C      1  0.4973520000000  0.7283860000000  0.4295100000000 1.0
C      1  0.4109560000000  0.7285850000000  0.5035990000000 1.0
C      1  0.5035980000000  0.2605650000000  0.5890450000000 1.0
C      1  0.5704910000000  0.2607640000000  0.4973510000000 1.0
C      1  0.4964020000000  0.2605650000000  0.4109550000000 1.0
C      1  0.4295080000000  0.2607640000000  0.5026490000000 1.0
C      1  0.5617750000000  0.5337390000000  0.7081500000000 1.0
C      1  0.7006260000000  0.6179960000000  0.4659690000000 1.0
C      1  0.4382230000000  0.5337380000000  0.2918500000000 1.0
C      1  0.2993740000000  0.6179960000000  0.5340290000000 1.0
C      1  0.5340280000000  0.3711540000000  0.7006230000000 1.0
C      1  0.7081510000000  0.4554110000000  0.4382210000000 1.0
C      1  0.4659710000000  0.3711530000000  0.2993770000000 1.0
C      1  0.2918480000000  0.4554110000000  0.5617790000000 1.0
C      1  0.3246150000000  0.4607350000000  0.7106190000000 1.0
C      1  0.7278290000000  0.4361890000000  0.6726670000000 1.0
C      1  0.6753830000000  0.4607340000000  0.2893800000000 1.0
C      1  0.2721710000000  0.4361910000000  0.3273360000000 1.0
C      1  0.3273380000000  0.5529600000000  0.7278300000000 1.0
C      1  0.7106170000000  0.5284150000000  0.6753880000000 1.0
C      1  0.6726610000000  0.5529590000000  0.2721690000000 1.0
C      1  0.2893830000000  0.5284170000000  0.3246140000000 1.0
C      1  0.3474870000000  0.3871520000000  0.6618540000000 1.0
C      1  0.6741560000000  0.3581640000000  0.6424590000000 1.0
C      1  0.6525120000000  0.3871520000000  0.3381460000000 1.0
C      1  0.3258430000000  0.3581630000000  0.3575410000000 1.0
C      1  0.3575440000000  0.6309860000000  0.6741570000000 1.0
C      1  0.6618540000000  0.6019970000000  0.6525140000000 1.0
C      1  0.6424570000000  0.6309860000000  0.3258430000000 1.0
C      1  0.3381470000000  0.6019990000000  0.3474860000000 1.0
C      1  0.6246060000000  0.4449980000000  0.5060260000000 1.0
C      1  0.5025670000000  0.4405860000000  0.3826110000000 1.0
C      1  0.3753940000000  0.4449980000000  0.4939740000000 1.0
C      1  0.4974330000000  0.4405860000000  0.6173880000000 1.0
C      1  0.6173920000000  0.5485640000000  0.5025670000000 1.0
C      1  0.5060260000000  0.5441510000000  0.3753970000000 1.0
C      1  0.3826080000000  0.5485630000000  0.4974320000000 1.0
C      1  0.4939740000000  0.5441520000000  0.6246010000000 1.0
C      1  0.5854180000000  0.4066350000000  0.4201040000000 1.0
C      1  0.4023040000000  0.4127480000000  0.4084200000000 1.0
C      1  0.4145810000000  0.4066350000000  0.5798960000000 1.0
C      1  0.5976950000000  0.4127480000000  0.5915800000000 1.0
C      1  0.5915800000000  0.5764010000000  0.4023050000000 1.0
C      1  0.4201030000000  0.5825150000000  0.4145830000000 1.0
C      1  0.4084200000000  0.5764020000000  0.5976940000000 1.0
C      1  0.5798980000000  0.5825140000000  0.5854170000000 1.0
C      1  0.7024560000000  0.5391270000000  0.4007580000000 1.0
C      1  0.5992380000000  0.4500240000000  0.7024560000000 1.0
C      1  0.4007610000000  0.4500220000000  0.2975440000000 1.0
C      1  0.2975430000000  0.5391280000000  0.5992400000000 1.0
END
