TITL C-986975-4297-620 2.98568969928933e-06 3375 -348.600317097974 0 0 60 (C1) n - 1
REM
REM in /home/bkarasulu/work/CARBON/AIRSS/Generating-Clusters/REBO/Higher-Symm/Only-C60
REM
REM
REM
REM
REM
REM ./C.cell (a2850807a9bf4ad07a5b6933b78d9264)
REM AIRSS Version 0.9.1 bugfix July 2018 build 013d7b7c2542+ Fri, 06 Jul 2018 19:26:36 +0100
REM compiler GCC version 9.2.1 20190827 (Red Hat 9.2.1-1)
REM options -cpp -mtune=generic -march=x86-64 -g -O0 -fpre-include=/usr/include/finclude/math-vector-fortran.h
REM seed 292969426 -916663872 84005178 1061666919 1475195985 -2010982252 1793028112 1207179013 364739988 -330114143 1086072608 -437610672 2045003290 1800216598 -1046420505 325795324 -1060471116 -210413732 726721745 -1465390952 -1038900874 360860465 -2100005794 2101331479 1568547734 1685190645 -859012971 1934691126 1166032124 -1444434719 -100610559 1774481406 1290684135
REM
CELL 1.54180   15.00000   15.00000   15.00000   90.00000   90.00000   90.00000
LATT -1
SFAC C  
C      1  0.4640340000000  0.3397580000000  0.4925050000000 1.0
C      1  0.5309390000000  0.5515190000000  0.5313540000000 1.0
C      1  0.3250340000000  0.7452630000000  0.4633830000000 1.0
C      1  0.4296890000000  0.6078480000000  0.4337760000000 1.0
C      1  0.4200700000000  0.6509710000000  0.7292210000000 1.0
C      1  0.4480320000000  0.5856360000000  0.5273180000000 1.0
C      1  0.7264560000000  0.5504040000000  0.4101990000000 1.0
C      1  0.4151800000000  0.5458820000000  0.3674590000000 1.0
C      1  0.3583840000000  0.5990740000000  0.5790230000000 1.0
C      1  0.6302250000000  0.6177670000000  0.3096460000000 1.0
C      1  0.5801840000000  0.4523260000000  0.4118780000000 1.0
C      1  0.5241960000000  0.7066080000000  0.3992780000000 1.0
C      1  0.6603880000000  0.5475090000000  0.7082180000000 1.0
C      1  0.4159710000000  0.7039080000000  0.4751750000000 1.0
C      1  0.5392820000000  0.1694590000000  0.5124100000000 1.0
C      1  0.3352950000000  0.5129680000000  0.6271450000000 1.0
C      1  0.4199520000000  0.5686360000000  0.7737820000000 1.0
C      1  0.4877350000000  0.4898490000000  0.7513810000000 1.0
C      1  0.6748580000000  0.2506830000000  0.4834470000000 1.0
C      1  0.5999490000000  0.6064050000000  0.6534890000000 1.0
C      1  0.5687580000000  0.5501670000000  0.4450340000000 1.0
C      1  0.6832180000000  0.5386450000000  0.3235550000000 1.0
C      1  0.4874340000000  0.3875480000000  0.4040340000000 1.0
C      1  0.3855060000000  0.4798460000000  0.7150750000000 1.0
C      1  0.4771550000000  0.2316730000000  0.5220360000000 1.0
C      1  0.4317780000000  0.6568510000000  0.6385690000000 1.0
C      1  0.3485830000000  0.3480840000000  0.5681660000000 1.0
C      1  0.5237320000000  0.3435610000000  0.6612780000000 1.0
C      1  0.6770080000000  0.6133610000000  0.4902910000000 1.0
C      1  0.6803700000000  0.4553150000000  0.6778210000000 1.0
C      1  0.4492710000000  0.4276140000000  0.2654760000000 1.0
C      1  0.5805200000000  0.5092230000000  0.6089260000000 1.0
C      1  0.4057670000000  0.5844450000000  0.2752750000000 1.0
C      1  0.3068210000000  0.5829130000000  0.4784030000000 1.0
C      1  0.3263180000000  0.4166750000000  0.4139180000000 1.0
C      1  0.5171290000000  0.7252630000000  0.5062570000000 1.0
C      1  0.4462080000000  0.7252130000000  0.3471220000000 1.0
C      1  0.5728820000000  0.3229720000000  0.3828100000000 1.0
C      1  0.6300770000000  0.1730440000000  0.5032170000000 1.0
C      1  0.6327260000000  0.3290040000000  0.4537820000000 1.0
C      1  0.5280000000000  0.6720050000000  0.6040180000000 1.0
C      1  0.4571270000000  0.5236550000000  0.2183640000000 1.0
C      1  0.4408240000000  0.2974300000000  0.6018360000000 1.0
C      1  0.6031300000000  0.4118120000000  0.5152840000000 1.0
C      1  0.5703130000000  0.6257090000000  0.3833520000000 1.0
C      1  0.7284710000000  0.5227240000000  0.5138470000000 1.0
C      1  0.5114330000000  0.4035290000000  0.5664490000000 1.0
C      1  0.6750940000000  0.4624860000000  0.5701160000000 1.0
C      1  0.2930520000000  0.4861850000000  0.4718530000000 1.0
C      1  0.5475820000000  0.4511390000000  0.6853000000000 1.0
C      1  0.4131340000000  0.4268220000000  0.6181510000000 1.0
C      1  0.5497990000000  0.4662870000000  0.2508490000000 1.0
C      1  0.3710470000000  0.6655730000000  0.3291760000000 1.0
C      1  0.3084070000000  0.6574160000000  0.4118790000000 1.0
C      1  0.6225580000000  0.3724210000000  0.7099120000000 1.0
C      1  0.2952180000000  0.4454150000000  0.5603060000000 1.0
C      1  0.6099120000000  0.6627190000000  0.5249190000000 1.0
C      1  0.3289510000000  0.3371240000000  0.4620760000000 1.0
C      1  0.4101760000000  0.4404090000000  0.3632830000000 1.0
C      1  0.6186590000000  0.4652510000000  0.3178950000000 1.0
END
