TITL C-986979-5873-906 1.13542732014007e-05 3375 -321.116071703608 0 0 60 (C2) n - 1
REM
REM in /home/bkarasulu/work/CARBON/AIRSS/Generating-Clusters/REBO/Higher-Symm/Only-C60
REM
REM
REM
REM
REM
REM ./C.cell (a2850807a9bf4ad07a5b6933b78d9264)
REM AIRSS Version 0.9.1 bugfix July 2018 build 013d7b7c2542+ Fri, 06 Jul 2018 19:26:36 +0100
REM compiler GCC version 9.2.1 20190827 (Red Hat 9.2.1-1)
REM options -cpp -mtune=generic -march=x86-64 -g -O0 -fpre-include=/usr/include/finclude/math-vector-fortran.h
REM seed -193829308 990720967 -1519132943 747626088 642032110 1591549385 112517055 972934001 -678514724 -607734390 1244714412 -990290753 800392848 1715045392 -817432226 -1366274384 797725874 -192172767 -2088213254 -1672457326 -66402022 1113211984 -505386526 -1990698153 1822419490 1813104966 -263888636 -500412912 -437982433 1627181027 -1331884334 40180131 -1008183632
REM
CELL 1.54180   15.00000   15.00000   15.00000   90.00000   90.00000   90.00000
LATT -1
SFAC C  
C      1  0.6678340000000  0.5699080000000  0.2790610000000 1.0
C      1  0.5330200000000  0.2959570000000  0.6402610000000 1.0
C      1  0.2831590000000  0.6693990000000  0.5610380000000 1.0
C      1  0.3321060000000  0.4301050000000  0.2791020000000 1.0
C      1  0.6386520000000  0.4557350000000  0.7056400000000 1.0
C      1  0.3614040000000  0.5442530000000  0.7056790000000 1.0
C      1  0.4670180000000  0.7040340000000  0.6402820000000 1.0
C      1  0.5397080000000  0.7071750000000  0.3589640000000 1.0
C      1  0.4602540000000  0.2928330000000  0.3589630000000 1.0
C      1  0.7168570000000  0.3305970000000  0.5609690000000 1.0
C      1  0.2784580000000  0.3264010000000  0.4398480000000 1.0
C      1  0.7215260000000  0.6736020000000  0.4397980000000 1.0
C      1  0.6728860000000  0.5572400000000  0.7207860000000 1.0
C      1  0.5641170000000  0.2831890000000  0.3308200000000 1.0
C      1  0.2960150000000  0.6373670000000  0.4585500000000 1.0
C      1  0.3271740000000  0.4427460000000  0.7208300000000 1.0
C      1  0.6411140000000  0.4664670000000  0.2948040000000 1.0
C      1  0.3588310000000  0.5335450000000  0.2948440000000 1.0
C      1  0.4358380000000  0.7168210000000  0.3308500000000 1.0
C      1  0.5695710000000  0.7221970000000  0.6689410000000 1.0
C      1  0.4304750000000  0.2777930000000  0.6689470000000 1.0
C      1  0.7039740000000  0.3626350000000  0.4584860000000 1.0
C      1  0.2929900000000  0.3586440000000  0.5419860000000 1.0
C      1  0.7070210000000  0.6413530000000  0.5419380000000 1.0
C      1  0.2473290000000  0.5680990000000  0.5598690000000 1.0
C      1  0.5662370000000  0.5632080000000  0.2448600000000 1.0
C      1  0.5470030000000  0.2552760000000  0.5446510000000 1.0
C      1  0.7526870000000  0.4318980000000  0.5597960000000 1.0
C      1  0.2448680000000  0.4287440000000  0.4409590000000 1.0
C      1  0.7551160000000  0.5712590000000  0.4408940000000 1.0
C      1  0.4336940000000  0.4368070000000  0.2448740000000 1.0
C      1  0.5420410000000  0.4484160000000  0.7460200000000 1.0
C      1  0.4580260000000  0.5515690000000  0.7460340000000 1.0
C      1  0.4530090000000  0.7447210000000  0.5446780000000 1.0
C      1  0.5509630000000  0.7478400000000  0.4548730000000 1.0
C      1  0.4490250000000  0.2521620000000  0.4548730000000 1.0
C      1  0.2547280000000  0.5413670000000  0.4495930000000 1.0
C      1  0.5708180000000  0.5579760000000  0.7544710000000 1.0
C      1  0.5603150000000  0.2475990000000  0.4323070000000 1.0
C      1  0.7452590000000  0.4586360000000  0.4495240000000 1.0
C      1  0.2535630000000  0.4553470000000  0.5509980000000 1.0
C      1  0.7464500000000  0.5446500000000  0.5509340000000 1.0
C      1  0.4292510000000  0.4420090000000  0.7544870000000 1.0
C      1  0.5457360000000  0.4518130000000  0.2537480000000 1.0
C      1  0.4541970000000  0.5482020000000  0.2537630000000 1.0
C      1  0.4396670000000  0.7524050000000  0.4323380000000 1.0
C      1  0.5637470000000  0.7565560000000  0.5672270000000 1.0
C      1  0.4362710000000  0.2434400000000  0.5672290000000 1.0
C      1  0.2776280000000  0.4890310000000  0.3561680000000 1.0
C      1  0.6465240000000  0.7258680000000  0.5031150000000 1.0
C      1  0.3575790000000  0.7212700000000  0.4969800000000 1.0
C      1  0.6424200000000  0.2787300000000  0.4969290000000 1.0
C      1  0.7223330000000  0.5109780000000  0.3561090000000 1.0
C      1  0.2767060000000  0.5061190000000  0.6448300000000 1.0
C      1  0.7233340000000  0.4938720000000  0.6447690000000 1.0
C      1  0.5004380000000  0.6444540000000  0.2764090000000 1.0
C      1  0.5114250000000  0.6438880000000  0.7223850000000 1.0
C      1  0.4886360000000  0.3560990000000  0.7223790000000 1.0
C      1  0.3534770000000  0.2741310000000  0.5031410000000 1.0
C      1  0.4995010000000  0.3555590000000  0.2764010000000 1.0
END
