TITL C-986974-580-8 0.00774401795283259 3375 -342.343290484047 0 0 60 (C1) n - 1
REM
REM in /home/bkarasulu/work/CARBON/AIRSS/Generating-Clusters/REBO/Higher-Symm/Only-C60
REM
REM
REM
REM
REM
REM ./C.cell (a2850807a9bf4ad07a5b6933b78d9264)
REM AIRSS Version 0.9.1 bugfix July 2018 build 013d7b7c2542+ Fri, 06 Jul 2018 19:26:36 +0100
REM compiler GCC version 9.2.1 20190827 (Red Hat 9.2.1-1)
REM options -cpp -mtune=generic -march=x86-64 -g -O0 -fpre-include=/usr/include/finclude/math-vector-fortran.h
REM seed -1174609316 -907232751 -1740498189 -1883087510 -805205320 -106203847 -818493516 1255499373 1150493372 1365919639 858974868 1350224979 850765599 1792348067 -1362702301 375598974 1080941645 -575847222 239793356 -52169315 605129009 928106929 -1512207166 -1632069699 824856155 820731573 -920958857 1777046763 1785938802 1755204885 484975129 1704840908 674089377
REM
CELL 1.54180   15.00000   15.00000   15.00000   90.00000   90.00000   90.00000
LATT -1
SFAC C  
C      1  0.3654920000000  0.5045530000000  0.4419480000000 1.0
C      1  0.5166990000000  0.4510980000000  0.3748840000000 1.0
C      1  0.4974000000000  0.3961710000000  0.8135540000000 1.0
C      1  0.5134420000000  0.7202180000000  0.5786930000000 1.0
C      1  0.3549040000000  0.5026490000000  0.6801910000000 1.0
C      1  0.4325750000000  0.4821400000000  0.2636790000000 1.0
C      1  0.5190550000000  0.4342170000000  0.5113480000000 1.0
C      1  0.5265240000000  0.3343070000000  0.4859910000000 1.0
C      1  0.6091710000000  0.4186840000000  0.6701080000000 1.0
C      1  0.3379710000000  0.3429530000000  0.6426540000000 1.0
C      1  0.5774960000000  0.5062660000000  0.4487400000000 1.0
C      1  0.4436900000000  0.7007700000000  0.5186350000000 1.0
C      1  0.7101300000000  0.3873150000000  0.4261750000000 1.0
C      1  0.4163460000000  0.5958740000000  0.6605010000000 1.0
C      1  0.4978840000000  0.5519140000000  0.3258290000000 1.0
C      1  0.3362060000000  0.4958930000000  0.3535300000000 1.0
C      1  0.4595030000000  0.7051690000000  0.4262830000000 1.0
C      1  0.2633730000000  0.4724620000000  0.5209420000000 1.0
C      1  0.6083950000000  0.6800510000000  0.6208560000000 1.0
C      1  0.6013710000000  0.5508010000000  0.2753510000000 1.0
C      1  0.6623970000000  0.5490980000000  0.4212850000000 1.0
C      1  0.3419480000000  0.4156670000000  0.6987840000000 1.0
C      1  0.5366530000000  0.2832930000000  0.6071460000000 1.0
C      1  0.6126950000000  0.5251140000000  0.7039590000000 1.0
C      1  0.6740820000000  0.6406120000000  0.4477850000000 1.0
C      1  0.7204670000000  0.5619570000000  0.5835260000000 1.0
C      1  0.5663340000000  0.5063300000000  0.5809230000000 1.0
C      1  0.6484050000000  0.6937740000000  0.3725510000000 1.0
C      1  0.4893530000000  0.3033320000000  0.6743260000000 1.0
C      1  0.5870550000000  0.3878750000000  0.3166320000000 1.0
C      1  0.5827120000000  0.6534900000000  0.3151210000000 1.0
C      1  0.6650550000000  0.5940970000000  0.6621640000000 1.0
C      1  0.6801850000000  0.5148870000000  0.3336480000000 1.0
C      1  0.6820850000000  0.4195420000000  0.3405540000000 1.0
C      1  0.3703720000000  0.5736230000000  0.2936270000000 1.0
C      1  0.3367620000000  0.3554720000000  0.4045050000000 1.0
C      1  0.5677290000000  0.3198290000000  0.3989530000000 1.0
C      1  0.4935410000000  0.4813640000000  0.6655770000000 1.0
C      1  0.6672040000000  0.4858270000000  0.5583640000000 1.0
C      1  0.6789470000000  0.3998590000000  0.5135170000000 1.0
C      1  0.6821500000000  0.6490630000000  0.5425070000000 1.0
C      1  0.4282750000000  0.5800340000000  0.4594080000000 1.0
C      1  0.5119010000000  0.3928390000000  0.7223440000000 1.0
C      1  0.3266300000000  0.6655630000000  0.4661680000000 1.0
C      1  0.3568780000000  0.3344280000000  0.5552810000000 1.0
C      1  0.4908790000000  0.6555810000000  0.3546330000000 1.0
C      1  0.4416200000000  0.4007880000000  0.4085010000000 1.0
C      1  0.3646020000000  0.6232190000000  0.3814140000000 1.0
C      1  0.4381710000000  0.4737920000000  0.5806260000000 1.0
C      1  0.6059990000000  0.3564500000000  0.5748490000000 1.0
C      1  0.5076400000000  0.6630220000000  0.6705200000000 1.0
C      1  0.5103160000000  0.5690320000000  0.7221050000000 1.0
C      1  0.3400250000000  0.5298360000000  0.5740220000000 1.0
C      1  0.3682770000000  0.6344640000000  0.5647180000000 1.0
C      1  0.2619420000000  0.4112980000000  0.4626320000000 1.0
C      1  0.4189450000000  0.3038010000000  0.4665060000000 1.0
C      1  0.3868930000000  0.4255660000000  0.5055250000000 1.0
C      1  0.5074620000000  0.5665870000000  0.5046810000000 1.0
C      1  0.3589630000000  0.4064130000000  0.3057930000000 1.0
C      1  0.5408210000000  0.4596790000000  0.2449240000000 1.0
END
