TITL C-986978-6805-230 0.013517862184526 3375 -344.922012022705 0 0 60 (C1) n - 1
REM
REM in /home/bkarasulu/work/CARBON/AIRSS/Generating-Clusters/REBO/Higher-Symm/Only-C60
REM
REM
REM
REM
REM
REM ./C.cell (a2850807a9bf4ad07a5b6933b78d9264)
REM AIRSS Version 0.9.1 bugfix July 2018 build 013d7b7c2542+ Fri, 06 Jul 2018 19:26:36 +0100
REM compiler GCC version 9.2.1 20190827 (Red Hat 9.2.1-1)
REM options -cpp -mtune=generic -march=x86-64 -g -O0 -fpre-include=/usr/include/finclude/math-vector-fortran.h
REM seed -1081846492 -47941710 -241277290 -36652742 240225761 -1636262097 199804950 -264535942 403332652 971267364 1899432024 1728548822 355730522 -1968779906 1283979206 554391666 928646173 2128378367 1020622325 -603197195 -1320932356 48509555 -1843107419 -200939477 -1706412037 56733142 -1591889758 623208369 495365440 -1986176723 -1626431048 899318993 1950112379
REM
CELL 1.54180   15.00000   15.00000   15.00000   90.00000   90.00000   90.00000
LATT -1
SFAC C  
C      1  0.5396470000000  0.4741570000000  0.3328390000000 1.0
C      1  0.3151220000000  0.4693320000000  0.5316870000000 1.0
C      1  0.6297590000000  0.4737060000000  0.6225900000000 1.0
C      1  0.4473200000000  0.4699400000000  0.3287860000000 1.0
C      1  0.6778290000000  0.4696090000000  0.5450160000000 1.0
C      1  0.3572330000000  0.4777630000000  0.6137080000000 1.0
C      1  0.4079970000000  0.3813130000000  0.3332800000000 1.0
C      1  0.4097770000000  0.4043570000000  0.6463680000000 1.0
C      1  0.6937030000000  0.3865440000000  0.4973250000000 1.0
C      1  0.5897090000000  0.3905560000000  0.3359920000000 1.0
C      1  0.5929500000000  0.3934350000000  0.6581030000000 1.0
C      1  0.3120300000000  0.3813500000000  0.4904300000000 1.0
C      1  0.6286380000000  0.6185990000000  0.4950010000000 1.0
C      1  0.4680100000000  0.6224290000000  0.4159350000000 1.0
C      1  0.4744260000000  0.6445990000000  0.5848570000000 1.0
C      1  0.4222640000000  0.6174400000000  0.5033420000000 1.0
C      1  0.5730070000000  0.6151950000000  0.4056880000000 1.0
C      1  0.5751420000000  0.6292340000000  0.5948490000000 1.0
C      1  0.6136800000000  0.3217820000000  0.4933740000000 1.0
C      1  0.4448250000000  0.3162720000000  0.4026090000000 1.0
C      1  0.4515260000000  0.3331080000000  0.5871780000000 1.0
C      1  0.3921930000000  0.3185190000000  0.4911540000000 1.0
C      1  0.5586800000000  0.3240210000000  0.4060300000000 1.0
C      1  0.5527770000000  0.3297160000000  0.5897060000000 1.0
C      1  0.6014290000000  0.5469190000000  0.3418450000000 1.0
C      1  0.2657360000000  0.5294880000000  0.4731800000000 1.0
C      1  0.5908500000000  0.5522210000000  0.6596840000000 1.0
C      1  0.3740630000000  0.5324120000000  0.3143550000000 1.0
C      1  0.6984430000000  0.5459670000000  0.4913400000000 1.0
C      1  0.3654030000000  0.5522490000000  0.6747860000000 1.0
C      1  0.4292950000000  0.7262130000000  0.6255660000000 1.0
C      1  0.6399500000000  0.7216170000000  0.5246840000000 1.0
C      1  0.4466350000000  0.7302030000000  0.4371690000000 1.0
C      1  0.6151730000000  0.7284630000000  0.6246820000000 1.0
C      1  0.3738620000000  0.7138130000000  0.5336400000000 1.0
C      1  0.5536950000000  0.7207200000000  0.4383520000000 1.0
C      1  0.5369620000000  0.5261700000000  0.7370940000000 1.0
C      1  0.6919940000000  0.5110870000000  0.3313310000000 1.0
C      1  0.2336700000000  0.4808500000000  0.3927100000000 1.0
C      1  0.4302670000000  0.5333820000000  0.7452810000000 1.0
C      1  0.2871550000000  0.4840840000000  0.3114340000000 1.0
C      1  0.7451100000000  0.5107970000000  0.4122130000000 1.0
C      1  0.2944230000000  0.7660870000000  0.4835190000000 1.0
C      1  0.5689810000000  0.7830430000000  0.6790450000000 1.0
C      1  0.6202130000000  0.7944990000000  0.4149050000000 1.0
C      1  0.6910010000000  0.8005160000000  0.4725590000000 1.0
C      1  0.4770740000000  0.7834910000000  0.6808490000000 1.0
C      1  0.3570480000000  0.7760060000000  0.4171190000000 1.0
C      1  0.5477320000000  0.4164410000000  0.7403260000000 1.0
C      1  0.6772810000000  0.4169820000000  0.3038920000000 1.0
C      1  0.2400030000000  0.3868360000000  0.4261920000000 1.0
C      1  0.4472950000000  0.4287520000000  0.7318050000000 1.0
C      1  0.3199640000000  0.3910570000000  0.2948520000000 1.0
C      1  0.7626910000000  0.4154710000000  0.4347550000000 1.0
C      1  0.4458960000000  0.2103800000000  0.3611470000000 1.0
C      1  0.4058360000000  0.2354890000000  0.5941180000000 1.0
C      1  0.6471490000000  0.2152040000000  0.5147260000000 1.0
C      1  0.5358870000000  0.2258930000000  0.3674770000000 1.0
C      1  0.5952720000000  0.2307160000000  0.5885820000000 1.0
C      1  0.3583200000000  0.2135100000000  0.5189350000000 1.0
END
