TITL C-986974-580-329 -0.000692500952637255 3375 -340.41335317491 0 0 60 (C3) n - 1
REM
REM in /home/bkarasulu/work/CARBON/AIRSS/Generating-Clusters/REBO/Higher-Symm/Only-C60
REM
REM
REM
REM
REM
REM ./C.cell (a2850807a9bf4ad07a5b6933b78d9264)
REM AIRSS Version 0.9.1 bugfix July 2018 build 013d7b7c2542+ Fri, 06 Jul 2018 19:26:36 +0100
REM compiler GCC version 9.2.1 20190827 (Red Hat 9.2.1-1)
REM options -cpp -mtune=generic -march=x86-64 -g -O0 -fpre-include=/usr/include/finclude/math-vector-fortran.h
REM seed -1775369279 -151308124 676830624 1438771274 1694889229 1335209488 603101301 771610414 1686968568 1655795493 -536829689 -1934426224 -129727450 -1237809268 -941651843 -1051279796 1744152988 -475733603 -652206516 -2125603794 -1460807472 1629528538 -1193169176 -1021274008 -2000430685 288118302 -1692186954 -918677745 -1720834504 1428222323 -673649497 1032977752 -67115801
REM
CELL 1.54180   15.00000   15.00000   15.00000   90.00000   90.00000   90.00000
LATT -1
SFAC C  
C      1  0.4754040000000  0.4422390000000  0.7486530000000 1.0
C      1  0.4620610000000  0.5498210000000  0.7487740000000 1.0
C      1  0.5617880000000  0.5075600000000  0.7489200000000 1.0
C      1  0.2844350000000  0.4325960000000  0.4886250000000 1.0
C      1  0.5498960000000  0.7203250000000  0.4890430000000 1.0
C      1  0.6673130000000  0.3455440000000  0.4871610000000 1.0
C      1  0.5563660000000  0.2785880000000  0.5798940000000 1.0
C      1  0.2800070000000  0.5626770000000  0.5803730000000 1.0
C      1  0.6643480000000  0.6581540000000  0.5804090000000 1.0
C      1  0.3876370000000  0.2909010000000  0.5185860000000 1.0
C      1  0.3755180000000  0.7020560000000  0.5188010000000 1.0
C      1  0.7373670000000  0.5061090000000  0.5183420000000 1.0
C      1  0.5402820000000  0.3794900000000  0.3493310000000 1.0
C      1  0.3743340000000  0.5251710000000  0.3476740000000 1.0
C      1  0.5847530000000  0.5954210000000  0.3488780000000 1.0
C      1  0.4440140000000  0.3865430000000  0.6724280000000 1.0
C      1  0.4294060000000  0.6053020000000  0.6729640000000 1.0
C      1  0.6257690000000  0.5085610000000  0.6729000000000 1.0
C      1  0.5273580000000  0.4438490000000  0.4298810000000 1.0
C      1  0.4352230000000  0.5050410000000  0.4301670000000 1.0
C      1  0.5343160000000  0.5536540000000  0.4294590000000 1.0
C      1  0.5988030000000  0.4673390000000  0.5075200000000 1.0
C      1  0.4201300000000  0.4312090000000  0.5076220000000 1.0
C      1  0.4794650000000  0.6038830000000  0.5076350000000 1.0
C      1  0.6095090000000  0.3269570000000  0.6383620000000 1.0
C      1  0.2947680000000  0.4927470000000  0.6393940000000 1.0
C      1  0.5966290000000  0.6804030000000  0.6395390000000 1.0
C      1  0.3623030000000  0.3944540000000  0.4200920000000 1.0
C      1  0.4778650000000  0.6733980000000  0.4196960000000 1.0
C      1  0.6594830000000  0.4338700000000  0.4210790000000 1.0
C      1  0.3112650000000  0.5772560000000  0.4206850000000 1.0
C      1  0.6619780000000  0.6249410000000  0.4205140000000 1.0
C      1  0.5276380000000  0.2971630000000  0.4201850000000 1.0
C      1  0.7368430000000  0.4101020000000  0.5264060000000 1.0
C      1  0.3052920000000  0.3399870000000  0.5270360000000 1.0
C      1  0.4592850000000  0.7486720000000  0.5275720000000 1.0
C      1  0.5808050000000  0.5542760000000  0.5785710000000 1.0
C      1  0.5052410000000  0.4036660000000  0.5778290000000 1.0
C      1  0.4134030000000  0.5439580000000  0.5782400000000 1.0
C      1  0.3462210000000  0.6703170000000  0.4343130000000 1.0
C      1  0.7253680000000  0.5481140000000  0.4339960000000 1.0
C      1  0.4294320000000  0.2809900000000  0.4340050000000 1.0
C      1  0.3820910000000  0.4427170000000  0.6084460000000 1.0
C      1  0.5085160000000  0.6315200000000  0.6084830000000 1.0
C      1  0.6082250000000  0.4276650000000  0.6077910000000 1.0
C      1  0.2793610000000  0.4317990000000  0.3513110000000 1.0
C      1  0.5522020000000  0.7246410000000  0.3500730000000 1.0
C      1  0.6682190000000  0.3425470000000  0.3532960000000 1.0
C      1  0.5899590000000  0.2903040000000  0.4911520000000 1.0
C      1  0.2746040000000  0.5269670000000  0.4918670000000 1.0
C      1  0.6364560000000  0.6813930000000  0.4920490000000 1.0
C      1  0.4332420000000  0.3532240000000  0.3451610000000 1.0
C      1  0.4065990000000  0.6310570000000  0.3451890000000 1.0
C      1  0.6607240000000  0.5153430000000  0.3452340000000 1.0
C      1  0.4538110000000  0.3034090000000  0.5947260000000 1.0
C      1  0.3528330000000  0.6389700000000  0.5951890000000 1.0
C      1  0.6936850000000  0.5567320000000  0.5947070000000 1.0
C      1  0.5067720000000  0.6451700000000  0.2943380000000 1.0
C      1  0.6231260000000  0.4208490000000  0.2952100000000 1.0
C      1  0.3702550000000  0.4323920000000  0.2942280000000 1.0
END
