TITL C-986972-3822-46 -4.71960465716129e-07 3375 -341.656809540938 0 0 60 (C5) n - 1
REM
REM in /home/bkarasulu/work/CARBON/AIRSS/Generating-Clusters/REBO/Higher-Symm/Only-C60
REM
REM
REM
REM
REM
REM ./C.cell (a2850807a9bf4ad07a5b6933b78d9264)
REM AIRSS Version 0.9.1 bugfix July 2018 build 013d7b7c2542+ Fri, 06 Jul 2018 19:26:36 +0100
REM compiler GCC version 9.2.1 20190827 (Red Hat 9.2.1-1)
REM options -cpp -mtune=generic -march=x86-64 -g -O0 -fpre-include=/usr/include/finclude/math-vector-fortran.h
REM seed 978108396 1090172335 -848582433 -1492768635 1941991805 -1851128119 -127636823 -684621429 1273902573 -1876532184 1473647276 -1628772285 -2094301204 -528389681 1812296736 -472542022 519201187 1468937019 1751678981 -664579824 -1370988923 -1080968436 -1468559734 -1683084288 -643465898 -1688408842 1737469596 437125352 34863377 -1040972240 -399197895 -2126226113 -1034104069
REM
CELL 1.54180   15.00000   15.00000   15.00000   90.00000   90.00000   90.00000
LATT -1
SFAC C  
C      1  0.5849310000000  0.7035430000000  0.6566180000000 1.0
C      1  0.6752250000000  0.7035160000000  0.4676210000000 1.0
C      1  0.5233810000000  0.7035110000000  0.3233410000000 1.0
C      1  0.3392410000000  0.7035320000000  0.4231700000000 1.0
C      1  0.3772810000000  0.7035510000000  0.6291460000000 1.0
C      1  0.5386580000000  0.4365260000000  0.4165820000000 1.0
C      1  0.4326020000000  0.4365350000000  0.4374580000000 1.0
C      1  0.4196830000000  0.4365470000000  0.5447730000000 1.0
C      1  0.5177540000000  0.4365460000000  0.5902230000000 1.0
C      1  0.5912840000000  0.4365330000000  0.5109960000000 1.0
C      1  0.5559750000000  0.5051100000000  0.3400970000000 1.0
C      1  0.3652220000000  0.5051270000000  0.3973510000000 1.0
C      1  0.3607280000000  0.5051480000000  0.5964620000000 1.0
C      1  0.5487040000000  0.5051430000000  0.6622640000000 1.0
C      1  0.6693740000000  0.5051200000000  0.5038220000000 1.0
C      1  0.2556990000000  0.4679370000000  0.5693570000000 1.0
C      1  0.4904640000000  0.4679430000000  0.7537770000000 1.0
C      1  0.7384060000000  0.4679110000000  0.5874910000000 1.0
C      1  0.6568760000000  0.4678860000000  0.3003000000000 1.0
C      1  0.3585470000000  0.4679020000000  0.2890920000000 1.0
C      1  0.6763160000000  0.5799210000000  0.5840350000000 1.0
C      1  0.6344180000000  0.5799010000000  0.3582790000000 1.0
C      1  0.4067640000000  0.5799110000000  0.3283660000000 1.0
C      1  0.3079660000000  0.5799380000000  0.5356330000000 1.0
C      1  0.4745590000000  0.5799450000000  0.6936450000000 1.0
C      1  0.6684970000000  0.6687160000000  0.5599030000000 1.0
C      1  0.6090620000000  0.6686990000000  0.3582570000000 1.0
C      1  0.3989200000000  0.6687110000000  0.3524720000000 1.0
C      1  0.3284800000000  0.6687360000000  0.5505410000000 1.0
C      1  0.4950880000000  0.6687390000000  0.6787400000000 1.0
C      1  0.7001630000000  0.3932810000000  0.4391140000000 1.0
C      1  0.5039330000000  0.3932770000000  0.2908200000000 1.0
C      1  0.3022590000000  0.3933030000000  0.4316210000000 1.0
C      1  0.3738480000000  0.3933230000000  0.6669340000000 1.0
C      1  0.6197660000000  0.3933090000000  0.6715650000000 1.0
C      1  0.4640680000000  0.3498610000000  0.6426470000000 1.0
C      1  0.6245410000000  0.3498440000000  0.5782570000000 1.0
C      1  0.6128910000000  0.3498270000000  0.4057390000000 1.0
C      1  0.4452170000000  0.3498330000000  0.3635090000000 1.0
C      1  0.3532400000000  0.3498530000000  0.5099260000000 1.0
C      1  0.5972470000000  0.3830510000000  0.3075100000000 1.0
C      1  0.3469660000000  0.3830690000000  0.3480320000000 1.0
C      1  0.3081640000000  0.3830980000000  0.5985850000000 1.0
C      1  0.5344630000000  0.3830960000000  0.7129140000000 1.0
C      1  0.7131270000000  0.3830670000000  0.5330190000000 1.0
C      1  0.5734030000000  0.7398660000000  0.4403930000000 1.0
C      1  0.4660270000000  0.7398690000000  0.4117660000000 1.0
C      1  0.4056190000000  0.7398830000000  0.5050410000000 1.0
C      1  0.4756620000000  0.7398870000000  0.5913150000000 1.0
C      1  0.5793580000000  0.7398780000000  0.5513610000000 1.0
C      1  0.4704940000000  0.2724650000000  0.4233780000000 1.0
C      1  0.4179790000000  0.2724770000000  0.5043880000000 1.0
C      1  0.4787960000000  0.2724810000000  0.5793670000000 1.0
C      1  0.5688980000000  0.2724720000000  0.5446960000000 1.0
C      1  0.5637670000000  0.2724620000000  0.4482900000000 1.0
C      1  0.2787530000000  0.4996860000000  0.4624200000000 1.0
C      1  0.3958900000000  0.4997040000000  0.6988050000000 1.0
C      1  0.6569040000000  0.4996840000000  0.6604500000000 1.0
C      1  0.7010820000000  0.4996550000000  0.4003580000000 1.0
C      1  0.4673720000000  0.4996560000000  0.2779680000000 1.0
END
