TITL C-986979-5873-1155 0.104732522100829 3375 -329.983623525063 0 0 60 (C2v) n - 1
REM
REM in /home/bkarasulu/work/CARBON/AIRSS/Generating-Clusters/REBO/Higher-Symm/Only-C60
REM
REM
REM
REM
REM
REM ./C.cell (a2850807a9bf4ad07a5b6933b78d9264)
REM AIRSS Version 0.9.1 bugfix July 2018 build 013d7b7c2542+ Fri, 06 Jul 2018 19:26:36 +0100
REM compiler GCC version 9.2.1 20190827 (Red Hat 9.2.1-1)
REM options -cpp -mtune=generic -march=x86-64 -g -O0 -fpre-include=/usr/include/finclude/math-vector-fortran.h
REM seed -871004741 1062737199 -1048978291 1235371955 -764150439 -2032387615 -976169453 33126921 1206816427 452406239 391312631 -656433939 1832321907 1782065805 1921090895 296828624 55095362 -1042438498 83134892 914524714 -1188462684 -240663026 -1618117788 642048032 -1106289368 -590589230 -251931899 -394999651 186635335 769522932 -1891473245 -511872537 11101644
REM
CELL 1.54180   15.00000   15.00000   15.00000   90.00000   90.00000   90.00000
LATT -1
SFAC C  
C      1  0.4566490000000  0.3830790000000  0.6657450000000 1.0
C      1  0.5429500000000  0.6218820000000  0.6658290000000 1.0
C      1  0.4567170000000  0.6218590000000  0.6658230000000 1.0
C      1  0.5430400000000  0.3831130000000  0.6657340000000 1.0
C      1  0.6378380000000  0.5847220000000  0.7074090000000 1.0
C      1  0.3618820000000  0.4203460000000  0.7073890000000 1.0
C      1  0.6377840000000  0.4203470000000  0.7073920000000 1.0
C      1  0.3618380000000  0.5847230000000  0.7074060000000 1.0
C      1  0.3598540000000  0.5819990000000  0.4278750000000 1.0
C      1  0.6397930000000  0.4230750000000  0.4278520000000 1.0
C      1  0.3598810000000  0.4230740000000  0.4278530000000 1.0
C      1  0.6398190000000  0.5820000000000  0.4278750000000 1.0
C      1  0.5954710000000  0.6319600000000  0.3450830000000 1.0
C      1  0.4041940000000  0.3730930000000  0.3450330000000 1.0
C      1  0.5954810000000  0.3730920000000  0.3450310000000 1.0
C      1  0.4042030000000  0.6319580000000  0.3450860000000 1.0
C      1  0.2886160000000  0.4109030000000  0.6208710000000 1.0
C      1  0.7109340000000  0.5941600000000  0.6207150000000 1.0
C      1  0.2887450000000  0.5941490000000  0.6207150000000 1.0
C      1  0.7110610000000  0.4109020000000  0.6208640000000 1.0
C      1  0.5836930000000  0.4255570000000  0.5043650000000 1.0
C      1  0.4159980000000  0.5795240000000  0.5043510000000 1.0
C      1  0.5836830000000  0.5795210000000  0.5043560000000 1.0
C      1  0.4159860000000  0.4255550000000  0.5043610000000 1.0
C      1  0.3848070000000  0.6373930000000  0.5868770000000 1.0
C      1  0.6149300000000  0.3677200000000  0.5869170000000 1.0
C      1  0.3847490000000  0.3677210000000  0.5869120000000 1.0
C      1  0.6148710000000  0.6373930000000  0.5868820000000 1.0
C      1  0.5485270000000  0.3186110000000  0.4281980000000 1.0
C      1  0.4511560000000  0.6864720000000  0.4282030000000 1.0
C      1  0.5485210000000  0.6864730000000  0.4282020000000 1.0
C      1  0.4511490000000  0.3186120000000  0.4281990000000 1.0
C      1  0.3572220000000  0.4463380000000  0.2816810000000 1.0
C      1  0.6424400000000  0.5587860000000  0.2817080000000 1.0
C      1  0.3572360000000  0.5587860000000  0.2817080000000 1.0
C      1  0.6424540000000  0.4463380000000  0.2816810000000 1.0
C      1  0.4231910000000  0.2933960000000  0.5181600000000 1.0
C      1  0.5764510000000  0.7116900000000  0.5181600000000 1.0
C      1  0.4232260000000  0.7116940000000  0.5181590000000 1.0
C      1  0.5764860000000  0.2933970000000  0.5181600000000 1.0
C      1  0.4998370000000  0.2077730000000  0.6420500000000 1.0
C      1  0.4998370000000  0.7972700000000  0.6420620000000 1.0
C      1  0.4998380000000  0.2488400000000  0.5618120000000 1.0
C      1  0.4998380000000  0.7561890000000  0.5618440000000 1.0
C      1  0.7324110000000  0.5025730000000  0.3118780000000 1.0
C      1  0.2672630000000  0.5025730000000  0.3118740000000 1.0
C      1  0.4998380000000  0.5924370000000  0.3283380000000 1.0
C      1  0.4998380000000  0.4126100000000  0.3283210000000 1.0
C      1  0.4048550000000  0.5029260000000  0.6393840000000 1.0
C      1  0.5948300000000  0.5028770000000  0.6393870000000 1.0
C      1  0.3208510000000  0.5024890000000  0.5624080000000 1.0
C      1  0.6788200000000  0.5024780000000  0.5624030000000 1.0
C      1  0.6864360000000  0.5025360000000  0.4054650000000 1.0
C      1  0.3132350000000  0.5025340000000  0.4054660000000 1.0
C      1  0.7166480000000  0.5025490000000  0.6896220000000 1.0
C      1  0.2830250000000  0.5025460000000  0.6896200000000 1.0
C      1  0.4998380000000  0.5025270000000  0.2680340000000 1.0
C      1  0.4998340000000  0.5026470000000  0.6108930000000 1.0
C      1  0.4998370000000  0.5025170000000  0.3900480000000 1.0
C      1  0.4998400000000  0.5025270000000  0.5013120000000 1.0
END
