TITL C-986978-6805-1117 -8.69503813343007e-06 3375 -342.92544567086 0 0 60 (Ci) n - 1
REM
REM in /home/bkarasulu/work/CARBON/AIRSS/Generating-Clusters/REBO/Higher-Symm/Only-C60
REM
REM
REM
REM
REM
REM ./C.cell (a2850807a9bf4ad07a5b6933b78d9264)
REM AIRSS Version 0.9.1 bugfix July 2018 build 013d7b7c2542+ Fri, 06 Jul 2018 19:26:36 +0100
REM compiler GCC version 9.2.1 20190827 (Red Hat 9.2.1-1)
REM options -cpp -mtune=generic -march=x86-64 -g -O0 -fpre-include=/usr/include/finclude/math-vector-fortran.h
REM seed 895069907 -1015601564 682829130 -1810890015 -450435336 630932086 -786119458 1614403887 336241719 -2002619731 -1446317521 -1362151810 1078514587 1346865449 98328473 -2127269917 1333424642 -1300437252 -1008286405 -1409173786 1715917349 1924400097 -1925690706 -2042649280 -1774594180 -121265060 2082099814 -1040779415 1227609086 -1820404371 -314662417 302733255 1395863236
REM
CELL 1.54180   15.00000   15.00000   15.00000   90.00000   90.00000   90.00000
LATT -1
SFAC C  
C      1  0.5770520000000  0.5534710000000  0.6920460000000 1.0
C      1  0.4229480000000  0.4465290000000  0.3079540000000 1.0
C      1  0.4063260000000  0.6372070000000  0.6758680000000 1.0
C      1  0.5936740000000  0.3627930000000  0.3241320000000 1.0
C      1  0.4052950000000  0.7193600000000  0.4430210000000 1.0
C      1  0.5947050000000  0.2806400000000  0.5569790000000 1.0
C      1  0.5067830000000  0.5766440000000  0.6131150000000 1.0
C      1  0.4932170000000  0.4233560000000  0.3868850000000 1.0
C      1  0.5318480000000  0.4368940000000  0.2794650000000 1.0
C      1  0.4681520000000  0.5631060000000  0.7205340000000 1.0
C      1  0.4273480000000  0.6651850000000  0.5165410000000 1.0
C      1  0.5726520000000  0.3348150000000  0.4834590000000 1.0
C      1  0.4375330000000  0.5189230000000  0.7940220000000 1.0
C      1  0.5624670000000  0.4810770000000  0.2059780000000 1.0
C      1  0.7309840000000  0.6101140000000  0.4889720000000 1.0
C      1  0.2690160000000  0.3898860000000  0.5110280000000 1.0
C      1  0.2845010000000  0.5418440000000  0.3259180000000 1.0
C      1  0.7154990000000  0.4581560000000  0.6740820000000 1.0
C      1  0.2569820000000  0.5415790000000  0.5876390000000 1.0
C      1  0.7430180000000  0.4584210000000  0.4123610000000 1.0
C      1  0.6678790000000  0.5706960000000  0.5603460000000 1.0
C      1  0.3321210000000  0.4293040000000  0.4396540000000 1.0
C      1  0.7425250000000  0.5536110000000  0.4008640000000 1.0
C      1  0.2574750000000  0.4463890000000  0.5991360000000 1.0
C      1  0.7751720000000  0.4192980000000  0.5143350000000 1.0
C      1  0.2248280000000  0.5807020000000  0.4856650000000 1.0
C      1  0.5414070000000  0.2960690000000  0.3601140000000 1.0
C      1  0.4585930000000  0.7039310000000  0.6398860000000 1.0
C      1  0.3987480000000  0.3615090000000  0.5019220000000 1.0
C      1  0.6012520000000  0.6384910000000  0.4980780000000 1.0
C      1  0.3071540000000  0.3491680000000  0.6024750000000 1.0
C      1  0.6928460000000  0.6508320000000  0.3975250000000 1.0
C      1  0.6660820000000  0.5458090000000  0.6642580000000 1.0
C      1  0.3339180000000  0.4541910000000  0.3357420000000 1.0
C      1  0.5704460000000  0.3217690000000  0.6404740000000 1.0
C      1  0.4295540000000  0.6782310000000  0.3595260000000 1.0
C      1  0.3742490000000  0.5977340000000  0.3450670000000 1.0
C      1  0.6257510000000  0.4022650000000  0.6549330000000 1.0
C      1  0.4022590000000  0.5757590000000  0.5074610000000 1.0
C      1  0.5977410000000  0.4242410000000  0.4925390000000 1.0
C      1  0.4758950000000  0.3088280000000  0.6547310000000 1.0
C      1  0.5241060000000  0.6911720000000  0.3452690000000 1.0
C      1  0.4279780000000  0.4325830000000  0.5793870000000 1.0
C      1  0.5720220000000  0.5674170000000  0.4206130000000 1.0
C      1  0.4735060000000  0.3296200000000  0.4397190000000 1.0
C      1  0.5264940000000  0.6703800000000  0.5602810000000 1.0
C      1  0.6390070000000  0.4609160000000  0.5659100000000 1.0
C      1  0.3609930000000  0.5390840000000  0.4340900000000 1.0
C      1  0.4711390000000  0.5119840000000  0.5423310000000 1.0
C      1  0.5288610000000  0.4880160000000  0.4576690000000 1.0
C      1  0.4078380000000  0.4230240000000  0.6644210000000 1.0
C      1  0.5921620000000  0.5769760000000  0.3355790000000 1.0
C      1  0.2197660000000  0.5616450000000  0.3951570000000 1.0
C      1  0.7802340000000  0.4383550000000  0.6048430000000 1.0
C      1  0.6719800000000  0.3832840000000  0.3655200000000 1.0
C      1  0.3280200000000  0.6167160000000  0.6344800000000 1.0
C      1  0.7388570000000  0.3482960000000  0.4421110000000 1.0
C      1  0.2611430000000  0.6517040000000  0.5578890000000 1.0
C      1  0.6032280000000  0.6942360000000  0.3980020000000 1.0
C      1  0.3967720000000  0.3057640000000  0.6019980000000 1.0
END
