TITL C-986978-6805-901 1.72458447160237e-05 3375 -343.583717769702 0 0 60 (Th) n - 1
REM
REM in /home/bkarasulu/work/CARBON/AIRSS/Generating-Clusters/REBO/Higher-Symm/Only-C60
REM
REM
REM
REM
REM
REM ./C.cell (a2850807a9bf4ad07a5b6933b78d9264)
REM AIRSS Version 0.9.1 bugfix July 2018 build 013d7b7c2542+ Fri, 06 Jul 2018 19:26:36 +0100
REM compiler GCC version 9.2.1 20190827 (Red Hat 9.2.1-1)
REM options -cpp -mtune=generic -march=x86-64 -g -O0 -fpre-include=/usr/include/finclude/math-vector-fortran.h
REM seed 1284165411 -853267373 -1673376339 1942452402 -1604585698 18860935 1401279920 1416357945 -1127231353 -439933339 1707593266 -1107031825 -1388232872 1507584174 -1673216816 -502157259 -1952127458 -1255331377 1233668827 -1245605431 1503901776 303906637 -1500220324 -1914865278 -79650395 864929413 664687698 -1424126578 1711979704 -1964736018 -1765806836 -965444492 -198117474
REM
CELL 1.54180   15.00000   15.00000   15.00000   90.00000   90.00000   90.00000
LATT -1
SFAC C  
C      1  0.4523830000000  0.4334240000000  0.2617190000000 1.0
C      1  0.2617190000000  0.4523830000000  0.4334240000000 1.0
C      1  0.4334240000000  0.2617190000000  0.4523830000000 1.0
C      1  0.4523830000000  0.5665760000000  0.7382810000000 1.0
C      1  0.5476170000000  0.5665760000000  0.2617190000000 1.0
C      1  0.5476170000000  0.4334240000000  0.7382810000000 1.0
C      1  0.2617190000000  0.5476170000000  0.5665760000000 1.0
C      1  0.7382810000000  0.5476170000000  0.4334240000000 1.0
C      1  0.7382810000000  0.4523830000000  0.5665760000000 1.0
C      1  0.4334240000000  0.7382810000000  0.5476170000000 1.0
C      1  0.5665760000000  0.7382810000000  0.4523830000000 1.0
C      1  0.5665760000000  0.2617190000000  0.5476170000000 1.0
C      1  0.5476170000000  0.4334240000000  0.2617190000000 1.0
C      1  0.7382810000000  0.4523830000000  0.4334240000000 1.0
C      1  0.5665760000000  0.2617190000000  0.4523830000000 1.0
C      1  0.5476170000000  0.5665760000000  0.7382810000000 1.0
C      1  0.4523830000000  0.5665760000000  0.2617190000000 1.0
C      1  0.4523830000000  0.4334240000000  0.7382810000000 1.0
C      1  0.7382810000000  0.5476170000000  0.5665760000000 1.0
C      1  0.2617190000000  0.5476170000000  0.4334240000000 1.0
C      1  0.2617190000000  0.4523830000000  0.5665760000000 1.0
C      1  0.5665760000000  0.7382810000000  0.5476170000000 1.0
C      1  0.4334240000000  0.7382810000000  0.4523830000000 1.0
C      1  0.4334240000000  0.2617190000000  0.5476170000000 1.0
C      1  0.3575710000000  0.5846820000000  0.5533290000000 1.0
C      1  0.5533290000000  0.3575710000000  0.5846820000000 1.0
C      1  0.5846820000000  0.5533290000000  0.3575710000000 1.0
C      1  0.3575710000000  0.4153180000000  0.4466710000000 1.0
C      1  0.6424290000000  0.4153180000000  0.5533290000000 1.0
C      1  0.6424290000000  0.5846820000000  0.4466710000000 1.0
C      1  0.5533290000000  0.6424290000000  0.4153180000000 1.0
C      1  0.4466710000000  0.6424290000000  0.5846820000000 1.0
C      1  0.4466710000000  0.3575710000000  0.4153180000000 1.0
C      1  0.5846820000000  0.4466710000000  0.6424290000000 1.0
C      1  0.4153180000000  0.4466710000000  0.3575710000000 1.0
C      1  0.4153180000000  0.5533290000000  0.6424290000000 1.0
C      1  0.6424290000000  0.5846820000000  0.5533290000000 1.0
C      1  0.4466710000000  0.3575710000000  0.5846820000000 1.0
C      1  0.4153180000000  0.5533290000000  0.3575710000000 1.0
C      1  0.6424290000000  0.4153180000000  0.4466710000000 1.0
C      1  0.3575710000000  0.4153180000000  0.5533290000000 1.0
C      1  0.3575710000000  0.5846820000000  0.4466710000000 1.0
C      1  0.4466710000000  0.6424290000000  0.4153180000000 1.0
C      1  0.5533290000000  0.6424290000000  0.5846820000000 1.0
C      1  0.5533290000000  0.3575710000000  0.4153180000000 1.0
C      1  0.4153180000000  0.4466710000000  0.6424290000000 1.0
C      1  0.5846820000000  0.4466710000000  0.3575710000000 1.0
C      1  0.5846820000000  0.5533290000000  0.6424290000000 1.0
C      1  0.1964690000000  0.4102690000000  0.5000000000000 1.0
C      1  0.5000000000000  0.1964690000000  0.4102690000000 1.0
C      1  0.4102690000000  0.5000000000000  0.1964690000000 1.0
C      1  0.1964690000000  0.5897310000000  0.5000000000000 1.0
C      1  0.8035310000000  0.5897310000000  0.5000000000000 1.0
C      1  0.8035310000000  0.4102690000000  0.5000000000000 1.0
C      1  0.5000000000000  0.8035310000000  0.5897310000000 1.0
C      1  0.5000000000000  0.8035310000000  0.4102690000000 1.0
C      1  0.5000000000000  0.1964690000000  0.5897310000000 1.0
C      1  0.4102690000000  0.5000000000000  0.8035310000000 1.0
C      1  0.5897310000000  0.5000000000000  0.1964690000000 1.0
C      1  0.5897310000000  0.5000000000000  0.8035310000000 1.0
END
