TITL C-986976-6631-432 2.08848164830381e-06 3375 -345.140540518829 0 0 60 (C3) n - 1
REM
REM in /home/bkarasulu/work/CARBON/AIRSS/Generating-Clusters/REBO/Higher-Symm/Only-C60
REM
REM
REM
REM
REM
REM ./C.cell (a2850807a9bf4ad07a5b6933b78d9264)
REM AIRSS Version 0.9.1 bugfix July 2018 build 013d7b7c2542+ Fri, 06 Jul 2018 19:26:36 +0100
REM compiler GCC version 9.2.1 20190827 (Red Hat 9.2.1-1)
REM options -cpp -mtune=generic -march=x86-64 -g -O0 -fpre-include=/usr/include/finclude/math-vector-fortran.h
REM seed -1231728144 1786627315 -1180142953 -126424042 -1179021685 1330552696 2013030443 -1665204764 -1526139841 769444011 313682280 998480557 1415519429 332543974 1935242992 -616962141 927798486 -286392354 574129499 -2087045172 -1632938918 1557533435 1344483436 1692960 -88828356 1150829959 -1318207839 1986816295 1494964500 980427180 -374727145 1331057184 -696117674
REM
CELL 1.54180   15.00000   15.00000   15.00000   90.00000   90.00000   90.00000
LATT -1
SFAC C  
C      1  0.3561460000000  0.3416560000000  0.6047560000000 1.0
C      1  0.4811980000000  0.3416530000000  0.3230470000000 1.0
C      1  0.6626440000000  0.3416490000000  0.5721970000000 1.0
C      1  0.6151920000000  0.4879400000000  0.6302050000000 1.0
C      1  0.3296430000000  0.4879470000000  0.5346560000000 1.0
C      1  0.5551660000000  0.4879420000000  0.3351390000000 1.0
C      1  0.5508120000000  0.4462620000000  0.4608600000000 1.0
C      1  0.5084890000000  0.4462620000000  0.5635770000000 1.0
C      1  0.4406950000000  0.4462640000000  0.4755650000000 1.0
C      1  0.5751780000000  0.3821870000000  0.6153560000000 1.0
C      1  0.3625060000000  0.3821920000000  0.5074280000000 1.0
C      1  0.5623100000000  0.3821880000000  0.3772160000000 1.0
C      1  0.4013670000000  0.6791260000000  0.4847200000000 1.0
C      1  0.5625560000000  0.6791220000000  0.4222190000000 1.0
C      1  0.5360890000000  0.6791220000000  0.5930630000000 1.0
C      1  0.5471430000000  0.4797640000000  0.7206270000000 1.0
C      1  0.2853570000000  0.4797700000000  0.4305140000000 1.0
C      1  0.6674970000000  0.4797620000000  0.3488580000000 1.0
C      1  0.3765180000000  0.3050090000000  0.4423890000000 1.0
C      1  0.6116270000000  0.3050030000000  0.4218690000000 1.0
C      1  0.5118430000000  0.3050050000000  0.6357380000000 1.0
C      1  0.4499280000000  0.3337390000000  0.6988250000000 1.0
C      1  0.3528400000000  0.3337420000000  0.3572260000000 1.0
C      1  0.6972200000000  0.3337340000000  0.4439460000000 1.0
C      1  0.4526010000000  0.5375080000000  0.4093200000000 1.0
C      1  0.6022330000000  0.5375050000000  0.5042920000000 1.0
C      1  0.4451690000000  0.5375080000000  0.5863910000000 1.0
C      1  0.7041510000000  0.4945820000000  0.5772500000000 1.0
C      1  0.3310230000000  0.4945910000000  0.6381740000000 1.0
C      1  0.4648260000000  0.4945880000000  0.2845760000000 1.0
C      1  0.7256260000000  0.4123180000000  0.5208440000000 1.0
C      1  0.3691310000000  0.4123250000000  0.6849760000000 1.0
C      1  0.4052370000000  0.4123250000000  0.2941790000000 1.0
C      1  0.3106890000000  0.6490660000000  0.4304510000000 1.0
C      1  0.6548920000000  0.6490580000000  0.3708250000000 1.0
C      1  0.5344290000000  0.6490600000000  0.6987260000000 1.0
C      1  0.6556150000000  0.5732710000000  0.3151100000000 1.0
C      1  0.5823140000000  0.5732710000000  0.7272100000000 1.0
C      1  0.2620750000000  0.5732800000000  0.4576800000000 1.0
C      1  0.4703080000000  0.4319150000000  0.7329320000000 1.0
C      1  0.3131170000000  0.4319190000000  0.3578210000000 1.0
C      1  0.7165700000000  0.4319100000000  0.4092450000000 1.0
C      1  0.4428760000000  0.6504280000000  0.7269860000000 1.0
C      1  0.3319920000000  0.6504310000000  0.3370350000000 1.0
C      1  0.7251420000000  0.6504220000000  0.4359810000000 1.0
C      1  0.4678500000000  0.7103680000000  0.4074310000000 1.0
C      1  0.5962490000000  0.7103650000000  0.5184390000000 1.0
C      1  0.4359140000000  0.7103680000000  0.5741320000000 1.0
C      1  0.3818680000000  0.5792910000000  0.6674080000000 1.0
C      1  0.4140900000000  0.5792910000000  0.3139900000000 1.0
C      1  0.7040480000000  0.5792840000000  0.5186030000000 1.0
C      1  0.3811730000000  0.6888550000000  0.6504410000000 1.0
C      1  0.4291350000000  0.6888540000000  0.3218700000000 1.0
C      1  0.6897050000000  0.6888480000000  0.5276910000000 1.0
C      1  0.5018740000000  0.2465750000000  0.5630830000000 1.0
C      1  0.4444220000000  0.2465770000000  0.4700830000000 1.0
C      1  0.5536890000000  0.2465730000000  0.4668290000000 1.0
C      1  0.5467220000000  0.5701420000000  0.5920830000000 1.0
C      1  0.3968960000000  0.5701460000000  0.4944200000000 1.0
C      1  0.5563870000000  0.5701420000000  0.4134990000000 1.0
END
