TITL C-986973-6940-1088 -0.0527106619968568 3375 -336.926558066081 0 0 60 (C3) n - 1
REM
REM in /home/bkarasulu/work/CARBON/AIRSS/Generating-Clusters/REBO/Higher-Symm/Only-C60
REM
REM
REM
REM
REM
REM ./C.cell (a2850807a9bf4ad07a5b6933b78d9264)
REM AIRSS Version 0.9.1 bugfix July 2018 build 013d7b7c2542+ Fri, 06 Jul 2018 19:26:36 +0100
REM compiler GCC version 9.2.1 20190827 (Red Hat 9.2.1-1)
REM options -cpp -mtune=generic -march=x86-64 -g -O0 -fpre-include=/usr/include/finclude/math-vector-fortran.h
REM seed -600327491 -545780967 -439650061 1096811427 98068494 -1723239984 1633490803 -3579115 395300271 126320669 -1162505813 111092501 1548773951 2099506861 -2098782861 2107123989 -420187639 87462284 -1669962989 -521255735 1675653498 -1733217421 -1575296274 -260339049 -1140119066 -835268754 154834179 254610693 -1787489966 -1955635661 -286334927 28437844 -1374290675
REM
CELL 1.54180   15.00000   15.00000   15.00000   90.00000   90.00000   90.00000
LATT -1
SFAC C  
C      1  0.4353920000000  0.5617260000000  0.5769280000000 1.0
C      1  0.4353930000000  0.4025290000000  0.5149790000000 1.0
C      1  0.4354040000000  0.5357650000000  0.4080810000000 1.0
C      1  0.5123450000000  0.6152190000000  0.6805440000000 1.0
C      1  0.5123350000000  0.2860400000000  0.5095220000000 1.0
C      1  0.5123400000000  0.5987260000000  0.3099260000000 1.0
C      1  0.5979990000000  0.6847750000000  0.5488900000000 1.0
C      1  0.5979810000000  0.3652530000000  0.6355650000000 1.0
C      1  0.5979680000000  0.4499340000000  0.3155530000000 1.0
C      1  0.3406220000000  0.6046160000000  0.5926510000000 1.0
C      1  0.3406150000000  0.3675000000000  0.5442690000000 1.0
C      1  0.3406200000000  0.5279400000000  0.3631020000000 1.0
C      1  0.3489660000000  0.3180290000000  0.6209200000000 1.0
C      1  0.3489630000000  0.4862770000000  0.2819430000000 1.0
C      1  0.3489770000000  0.6957360000000  0.5971380000000 1.0
C      1  0.5090580000000  0.3210560000000  0.6175320000000 1.0
C      1  0.5090650000000  0.4876720000000  0.2862880000000 1.0
C      1  0.5090720000000  0.6912460000000  0.5961770000000 1.0
C      1  0.7510520000000  0.5289910000000  0.4405390000000 1.0
C      1  0.7510540000000  0.5369770000000  0.5548660000000 1.0
C      1  0.7510430000000  0.4339960000000  0.5046040000000 1.0
C      1  0.3282970000000  0.4508940000000  0.6460140000000 1.0
C      1  0.3282910000000  0.3981340000000  0.3844720000000 1.0
C      1  0.3283240000000  0.6509870000000  0.4695370000000 1.0
C      1  0.4302750000000  0.4642600000000  0.6015280000000 1.0
C      1  0.4302870000000  0.4299460000000  0.4182690000000 1.0
C      1  0.4303050000000  0.6058060000000  0.4801870000000 1.0
C      1  0.6085000000000  0.3154240000000  0.4742710000000 1.0
C      1  0.6085200000000  0.6145340000000  0.3530180000000 1.0
C      1  0.6085010000000  0.5700040000000  0.6726770000000 1.0
C      1  0.5829500000000  0.4435060000000  0.4477660000000 1.0
C      1  0.5829590000000  0.5735140000000  0.4772080000000 1.0
C      1  0.5829440000000  0.4829950000000  0.5750550000000 1.0
C      1  0.4052900000000  0.4382520000000  0.7285040000000 1.0
C      1  0.4052620000000  0.3329830000000  0.3322790000000 1.0
C      1  0.4052880000000  0.7287640000000  0.4392140000000 1.0
C      1  0.6112070000000  0.4592670000000  0.6982630000000 1.0
C      1  0.6112040000000  0.3486120000000  0.3655760000000 1.0
C      1  0.6112110000000  0.6920830000000  0.4361280000000 1.0
C      1  0.6854740000000  0.4571230000000  0.5950560000000 1.0
C      1  0.6854760000000  0.4391040000000  0.4153410000000 1.0
C      1  0.6854790000000  0.6037520000000  0.4896220000000 1.0
C      1  0.2750920000000  0.5631310000000  0.5163800000000 1.0
C      1  0.2751010000000  0.4542980000000  0.5464810000000 1.0
C      1  0.2750990000000  0.4826450000000  0.4371760000000 1.0
C      1  0.4508420000000  0.5419610000000  0.7078280000000 1.0
C      1  0.4508310000000  0.2990390000000  0.4324240000000 1.0
C      1  0.4508470000000  0.6590040000000  0.3597350000000 1.0
C      1  0.6549960000000  0.5285810000000  0.3508110000000 1.0
C      1  0.6549970000000  0.6148960000000  0.5993440000000 1.0
C      1  0.6549930000000  0.3565050000000  0.5498350000000 1.0
C      1  0.4275330000000  0.4317640000000  0.2791120000000 1.0
C      1  0.4275650000000  0.7254180000000  0.5513410000000 1.0
C      1  0.4275550000000  0.3428200000000  0.6695400000000 1.0
C      1  0.5068880000000  0.6851560000000  0.4527920000000 1.0
C      1  0.5068690000000  0.4483070000000  0.6839290000000 1.0
C      1  0.5068680000000  0.3665560000000  0.3632450000000 1.0
C      1  0.5371970000000  0.4142610000000  0.5274580000000 1.0
C      1  0.5372120000000  0.5190720000000  0.4120270000000 1.0
C      1  0.5372070000000  0.5666370000000  0.5605420000000 1.0
END
