TITL C-986979-5873-1 -4.23692565187556e-06 3375 -363.1813731313 0 0 60 (C3) n - 1
REM
REM in /home/bkarasulu/work/CARBON/AIRSS/Generating-Clusters/REBO/Higher-Symm/Only-C60
REM
REM
REM
REM
REM
REM ./C.cell (a2850807a9bf4ad07a5b6933b78d9264)
REM AIRSS Version 0.9.1 bugfix July 2018 build 013d7b7c2542+ Fri, 06 Jul 2018 19:26:36 +0100
REM compiler GCC version 9.2.1 20190827 (Red Hat 9.2.1-1)
REM options -cpp -mtune=generic -march=x86-64 -g -O0 -fpre-include=/usr/include/finclude/math-vector-fortran.h
REM seed -1078858321 -1785602595 -1020768925 1488721091 -1102219468 -193706110 -1033392306 -1949771031 1163128087 970862912 957511478 -930482858 574867620 1353079201 -1401224194 -1920713964 2079686627 -936874436 775835725 -509723960 1615271470 1690949508 -312902963 230966555 1509264794 -624990367 -72631901 -2055911988 -320364878 -1003418309 -1021684365 698529563 505889339
REM
CELL 1.54180   15.00000   15.00000   15.00000   90.00000   90.00000   90.00000
LATT -1
SFAC C  
C      1  0.5379840000000  0.5509790000000  0.6306020000000 1.0
C      1  0.4368810000000  0.5075130000000  0.6306070000000 1.0
C      1  0.5250760000000  0.4416880000000  0.6306500000000 1.0
C      1  0.3456080000000  0.5874650000000  0.3542210000000 1.0
C      1  0.5014240000000  0.3224400000000  0.3543660000000 1.0
C      1  0.6530340000000  0.5898940000000  0.3542670000000 1.0
C      1  0.5389200000000  0.6492220000000  0.6698390000000 1.0
C      1  0.3513390000000  0.4592340000000  0.6698970000000 1.0
C      1  0.6096630000000  0.3917780000000  0.6699680000000 1.0
C      1  0.3015230000000  0.6659730000000  0.4915640000000 1.0
C      1  0.4555000000000  0.2451200000000  0.4917810000000 1.0
C      1  0.7429810000000  0.5888950000000  0.4916670000000 1.0
C      1  0.5130530000000  0.6693450000000  0.3717040000000 1.0
C      1  0.3467950000000  0.4265270000000  0.3717900000000 1.0
C      1  0.6402100000000  0.4039510000000  0.3718450000000 1.0
C      1  0.3968700000000  0.5460810000000  0.5456970000000 1.0
C      1  0.5116650000000  0.3876840000000  0.5457870000000 1.0
C      1  0.5914440000000  0.5662980000000  0.5457170000000 1.0
C      1  0.4851100000000  0.7229090000000  0.6041370000000 1.0
C      1  0.3144180000000  0.3757360000000  0.6042700000000 1.0
C      1  0.7004250000000  0.4014990000000  0.6043170000000 1.0
C      1  0.6885060000000  0.4689120000000  0.6861680000000 1.0
C      1  0.4327020000000  0.6789480000000  0.6860320000000 1.0
C      1  0.3787070000000  0.3523970000000  0.6861740000000 1.0
C      1  0.4272360000000  0.6260440000000  0.4035510000000 1.0
C      1  0.4272090000000  0.3738840000000  0.4036660000000 1.0
C      1  0.6455990000000  0.4999400000000  0.4036420000000 1.0
C      1  0.4864260000000  0.4370020000000  0.4608900000000 1.0
C      1  0.5613380000000  0.5197120000000  0.4608630000000 1.0
C      1  0.4522530000000  0.5432330000000  0.4608360000000 1.0
C      1  0.2458910000000  0.5100500000000  0.4682760000000 1.0
C      1  0.6183460000000  0.2748840000000  0.4684410000000 1.0
C      1  0.6357780000000  0.7150220000000  0.4682420000000 1.0
C      1  0.2725750000000  0.5960760000000  0.4183990000000 1.0
C      1  0.5304940000000  0.2549400000000  0.4185950000000 1.0
C      1  0.6969670000000  0.6488720000000  0.4184390000000 1.0
C      1  0.4674820000000  0.5568270000000  0.2666970000000 1.0
C      1  0.4670060000000  0.4432330000000  0.2667510000000 1.0
C      1  0.5656190000000  0.4996180000000  0.2667410000000 1.0
C      1  0.2923210000000  0.5704540000000  0.5471810000000 1.0
C      1  0.5428320000000  0.2849570000000  0.5473500000000 1.0
C      1  0.6648250000000  0.6446540000000  0.5472040000000 1.0
C      1  0.6714230000000  0.3495380000000  0.4455920000000 1.0
C      1  0.5445830000000  0.7236430000000  0.4454010000000 1.0
C      1  0.2840190000000  0.4267440000000  0.4454980000000 1.0
C      1  0.5619210000000  0.6065220000000  0.3059160000000 1.0
C      1  0.3767560000000  0.5002060000000  0.3059360000000 1.0
C      1  0.5614110000000  0.3930050000000  0.3060140000000 1.0
C      1  0.7229350000000  0.4969310000000  0.4752190000000 1.0
C      1  0.3911860000000  0.6945810000000  0.4750790000000 1.0
C      1  0.3858900000000  0.3084540000000  0.4752550000000 1.0
C      1  0.6421100000000  0.6315660000000  0.6501100000000 1.0
C      1  0.3150310000000  0.5574110000000  0.6500950000000 1.0
C      1  0.5427900000000  0.3112300000000  0.6502420000000 1.0
C      1  0.3121570000000  0.3596600000000  0.5122770000000 1.0
C      1  0.7154610000000  0.4075040000000  0.5123160000000 1.0
C      1  0.4723760000000  0.7328530000000  0.5121300000000 1.0
C      1  0.3562010000000  0.6273340000000  0.6912830000000 1.0
C      1  0.4616570000000  0.3119560000000  0.6914440000000 1.0
C      1  0.6820550000000  0.5609730000000  0.6913630000000 1.0
END
