TITL C-986973-6940-147 -0.00449790302507559 3375 -333.136044093249 0 0 60 (C1) n - 1
REM
REM in /home/bkarasulu/work/CARBON/AIRSS/Generating-Clusters/REBO/Higher-Symm/Only-C60
REM
REM
REM
REM
REM
REM ./C.cell (a2850807a9bf4ad07a5b6933b78d9264)
REM AIRSS Version 0.9.1 bugfix July 2018 build 013d7b7c2542+ Fri, 06 Jul 2018 19:26:36 +0100
REM compiler GCC version 9.2.1 20190827 (Red Hat 9.2.1-1)
REM options -cpp -mtune=generic -march=x86-64 -g -O0 -fpre-include=/usr/include/finclude/math-vector-fortran.h
REM seed 942535725 -743208575 -1306628255 -1582854628 1417651253 1759805173 -1288821557 -1678676524 745119178 644550455 -760735354 229274953 -94451260 -780773903 -1465563749 -1586584446 649039587 -1451634398 127068469 1144755716 203009101 -259824362 625834727 -377434781 1457610073 -1520547593 -1789903942 -426236405 -1305485624 -1157960810 -918090128 1837627437 -975010677
REM
CELL 1.54180   15.00000   15.00000   15.00000   90.00000   90.00000   90.00000
LATT -1
SFAC C  
C      1  0.6907110000000  0.5626880000000  0.6217070000000 1.0
C      1  0.6264820000000  0.5423470000000  0.5068540000000 1.0
C      1  0.5138780000000  0.4628020000000  0.6037220000000 1.0
C      1  0.5273340000000  0.6276970000000  0.7072920000000 1.0
C      1  0.4493320000000  0.4948900000000  0.3832030000000 1.0
C      1  0.3481560000000  0.6649090000000  0.4490740000000 1.0
C      1  0.6489580000000  0.5086970000000  0.6901500000000 1.0
C      1  0.3207600000000  0.2455250000000  0.3769280000000 1.0
C      1  0.5629920000000  0.6688660000000  0.6217560000000 1.0
C      1  0.5402130000000  0.3513130000000  0.2711290000000 1.0
C      1  0.3943380000000  0.4490560000000  0.6589800000000 1.0
C      1  0.4843520000000  0.5375130000000  0.5539120000000 1.0
C      1  0.4677800000000  0.6433360000000  0.3039000000000 1.0
C      1  0.6897910000000  0.4301450000000  0.3381270000000 1.0
C      1  0.6044530000000  0.2901460000000  0.4488580000000 1.0
C      1  0.5632170000000  0.5347850000000  0.7249590000000 1.0
C      1  0.4424600000000  0.6880920000000  0.3958690000000 1.0
C      1  0.5904120000000  0.4421510000000  0.2876060000000 1.0
C      1  0.4631860000000  0.2867820000000  0.5804560000000 1.0
C      1  0.4170780000000  0.6230240000000  0.6871710000000 1.0
C      1  0.4141040000000  0.5617140000000  0.2755030000000 1.0
C      1  0.2762840000000  0.5003050000000  0.6246870000000 1.0
C      1  0.3363160000000  0.5231770000000  0.7154480000000 1.0
C      1  0.5265340000000  0.5421480000000  0.4551760000000 1.0
C      1  0.4663750000000  0.6336010000000  0.5898760000000 1.0
C      1  0.5437760000000  0.2618450000000  0.5091400000000 1.0
C      1  0.2410720000000  0.4623130000000  0.5284520000000 1.0
C      1  0.5428590000000  0.6388330000000  0.4158330000000 1.0
C      1  0.5991630000000  0.7262590000000  0.4648490000000 1.0
C      1  0.7418220000000  0.5246820000000  0.3585030000000 1.0
C      1  0.7410110000000  0.5302430000000  0.5310700000000 1.0
C      1  0.2940530000000  0.5988510000000  0.4025210000000 1.0
C      1  0.3505640000000  0.5214980000000  0.3507550000000 1.0
C      1  0.2737120000000  0.4936870000000  0.4260690000000 1.0
C      1  0.4888450000000  0.3275320000000  0.3349620000000 1.0
C      1  0.3919040000000  0.4242690000000  0.5477190000000 1.0
C      1  0.4752220000000  0.3758150000000  0.5109900000000 1.0
C      1  0.3830100000000  0.3360630000000  0.6454420000000 1.0
C      1  0.5193360000000  0.5209440000000  0.2971170000000 1.0
C      1  0.5632330000000  0.6250560000000  0.2853190000000 1.0
C      1  0.7274370000000  0.5808870000000  0.4304730000000 1.0
C      1  0.6703660000000  0.4560720000000  0.4472250000000 1.0
C      1  0.6569640000000  0.6444880000000  0.4270030000000 1.0
C      1  0.4849100000000  0.3939600000000  0.4154730000000 1.0
C      1  0.3172970000000  0.4045290000000  0.4703750000000 1.0
C      1  0.5748150000000  0.4547530000000  0.3985990000000 1.0
C      1  0.4936810000000  0.3643460000000  0.6561530000000 1.0
C      1  0.4506560000000  0.5207420000000  0.7235640000000 1.0
C      1  0.3200600000000  0.3185840000000  0.4204950000000 1.0
C      1  0.6673840000000  0.3810960000000  0.5932660000000 1.0
C      1  0.5760580000000  0.3794270000000  0.5631720000000 1.0
C      1  0.5002610000000  0.7518900000000  0.4698120000000 1.0
C      1  0.3208090000000  0.6667250000000  0.5586660000000 1.0
C      1  0.4233380000000  0.7008840000000  0.5263250000000 1.0
C      1  0.6331570000000  0.6309890000000  0.5771610000000 1.0
C      1  0.3173300000000  0.6056560000000  0.6388030000000 1.0
C      1  0.6739770000000  0.4167450000000  0.6817300000000 1.0
C      1  0.2933480000000  0.3898930000000  0.5999300000000 1.0
C      1  0.6569620000000  0.3359110000000  0.3919580000000 1.0
C      1  0.7261140000000  0.4188220000000  0.5287330000000 1.0
END
