TITL C-986978-6805-420 -3.72861236525703e-06 3375 -340.229878692223 0 0 60 (C1) n - 1
REM
REM in /home/bkarasulu/work/CARBON/AIRSS/Generating-Clusters/REBO/Higher-Symm/Only-C60
REM
REM
REM
REM
REM
REM ./C.cell (a2850807a9bf4ad07a5b6933b78d9264)
REM AIRSS Version 0.9.1 bugfix July 2018 build 013d7b7c2542+ Fri, 06 Jul 2018 19:26:36 +0100
REM compiler GCC version 9.2.1 20190827 (Red Hat 9.2.1-1)
REM options -cpp -mtune=generic -march=x86-64 -g -O0 -fpre-include=/usr/include/finclude/math-vector-fortran.h
REM seed 1073228647 1068424941 -905110855 -163212036 -192843818 -1814803842 2046388155 444888628 -1069751417 -986125940 -1076260312 -692337212 -198277215 -1553551891 907742112 -508021989 -1270060775 -1314287122 827839231 -1295879696 2129210994 339312717 -1688099393 1555334986 -778953647 1333148001 2012128866 -833904812 -300964380 701799682 -1753264530 -266854230 -932812529
REM
CELL 1.54180   15.00000   15.00000   15.00000   90.00000   90.00000   90.00000
LATT -1
SFAC C  
C      1  0.6934180000000  0.3604240000000  0.7282720000000 1.0
C      1  0.6950220000000  0.2944090000000  0.4002190000000 1.0
C      1  0.7186950000000  0.5276230000000  0.2541520000000 1.0
C      1  0.7122610000000  0.7715380000000  0.4059360000000 1.0
C      1  0.7218920000000  0.6158960000000  0.6802220000000 1.0
C      1  0.7155240000000  0.3420540000000  0.3246450000000 1.0
C      1  0.7096160000000  0.2608530000000  0.5813020000000 1.0
C      1  0.7293900000000  0.5393160000000  0.7300060000000 1.0
C      1  0.6631550000000  0.7801350000000  0.5871110000000 1.0
C      1  0.7149580000000  0.6113730000000  0.2921370000000 1.0
C      1  0.5384950000000  0.5802640000000  0.6349460000000 1.0
C      1  0.5381180000000  0.3733300000000  0.6383800000000 1.0
C      1  0.5164670000000  0.3082770000000  0.4436810000000 1.0
C      1  0.5337580000000  0.4846680000000  0.3316450000000 1.0
C      1  0.5465660000000  0.6675220000000  0.4470860000000 1.0
C      1  0.5408780000000  0.5839020000000  0.3694880000000 1.0
C      1  0.5320840000000  0.3762640000000  0.3672370000000 1.0
C      1  0.5321290000000  0.3100800000000  0.5561070000000 1.0
C      1  0.5374230000000  0.4816580000000  0.6739320000000 1.0
C      1  0.5320450000000  0.6595520000000  0.5538070000000 1.0
C      1  0.3765670000000  0.7383360000000  0.4465990000000 1.0
C      1  0.3795570000000  0.6172680000000  0.7018600000000 1.0
C      1  0.3747090000000  0.3393320000000  0.6776000000000 1.0
C      1  0.3484100000000  0.2878300000000  0.3973070000000 1.0
C      1  0.3711170000000  0.5289800000000  0.2791750000000 1.0
C      1  0.3681500000000  0.7220980000000  0.5467860000000 1.0
C      1  0.3857600000000  0.6252910000000  0.3052950000000 1.0
C      1  0.3675960000000  0.3460360000000  0.3163180000000 1.0
C      1  0.3613240000000  0.2903290000000  0.5899620000000 1.0
C      1  0.3693270000000  0.5198290000000  0.7255450000000 1.0
C      1  0.2948920000000  0.3958680000000  0.6351810000000 1.0
C      1  0.2772340000000  0.3422680000000  0.4509710000000 1.0
C      1  0.2973750000000  0.4961120000000  0.3454670000000 1.0
C      1  0.3069050000000  0.6550290000000  0.4502260000000 1.0
C      1  0.3026630000000  0.5893620000000  0.6339980000000 1.0
C      1  0.2931040000000  0.4042360000000  0.3655320000000 1.0
C      1  0.2816670000000  0.3407680000000  0.5446020000000 1.0
C      1  0.2947280000000  0.4864370000000  0.6606650000000 1.0
C      1  0.2997650000000  0.6431440000000  0.5562510000000 1.0
C      1  0.3091800000000  0.5984210000000  0.3739460000000 1.0
C      1  0.6461280000000  0.6153320000000  0.3756170000000 1.0
C      1  0.6367950000000  0.6931350000000  0.5416440000000 1.0
C      1  0.6470060000000  0.5080720000000  0.6589910000000 1.0
C      1  0.6422510000000  0.3358280000000  0.5651010000000 1.0
C      1  0.6373260000000  0.4102330000000  0.3697050000000 1.0
C      1  0.6430780000000  0.6102250000000  0.6071830000000 1.0
C      1  0.6555080000000  0.6960890000000  0.4383540000000 1.0
C      1  0.6443830000000  0.5078900000000  0.3364780000000 1.0
C      1  0.6198620000000  0.3427810000000  0.4615150000000 1.0
C      1  0.6428410000000  0.4036360000000  0.6506660000000 1.0
C      1  0.4553750000000  0.3803820000000  0.7017900000000 1.0
C      1  0.4235610000000  0.2550710000000  0.4422190000000 1.0
C      1  0.4484220000000  0.4775810000000  0.2654420000000 1.0
C      1  0.4616660000000  0.7271590000000  0.4069420000000 1.0
C      1  0.4600890000000  0.6484460000000  0.6649140000000 1.0
C      1  0.4514060000000  0.3853470000000  0.2987140000000 1.0
C      1  0.4363540000000  0.2646480000000  0.5400250000000 1.0
C      1  0.4488520000000  0.4713560000000  0.7371600000000 1.0
C      1  0.4494370000000  0.7158610000000  0.5933610000000 1.0
C      1  0.4677370000000  0.6548170000000  0.3405820000000 1.0
END
