TITL C-986975-4297-764 5.07066176128602e-06 3375 -331.174030417039 0 0 60 (Ci) n - 1
REM
REM in /home/bkarasulu/work/CARBON/AIRSS/Generating-Clusters/REBO/Higher-Symm/Only-C60
REM
REM
REM
REM
REM
REM ./C.cell (a2850807a9bf4ad07a5b6933b78d9264)
REM AIRSS Version 0.9.1 bugfix July 2018 build 013d7b7c2542+ Fri, 06 Jul 2018 19:26:36 +0100
REM compiler GCC version 9.2.1 20190827 (Red Hat 9.2.1-1)
REM options -cpp -mtune=generic -march=x86-64 -g -O0 -fpre-include=/usr/include/finclude/math-vector-fortran.h
REM seed 401420210 -1701056871 509578025 92729711 787742994 -698972303 -104385883 -183803792 -1663368501 1035488500 926846697 2050016711 638507585 207090863 2079605802 -549257662 -2137235995 192509729 -164550174 664197035 -925032012 1212569319 1313850180 -1736078905 999669661 1227354572 920297051 -211181377 1553359424 1985909971 95913276 645965347 1052933153
REM
CELL 1.54180   15.00000   15.00000   15.00000   90.00000   90.00000   90.00000
LATT -1
SFAC C  
C      1  0.2898240000000  0.5746310000000  0.4550140000000 1.0
C      1  0.6478330000000  0.5559480000000  0.3657510000000 1.0
C      1  0.5380720000000  0.5629130000000  0.6824840000000 1.0
C      1  0.7200720000000  0.4047960000000  0.4332830000000 1.0
C      1  0.3563980000000  0.4289900000000  0.3580960000000 1.0
C      1  0.4581590000000  0.4445130000000  0.6768800000000 1.0
C      1  0.7101760000000  0.4253690000000  0.5449860000000 1.0
C      1  0.3521670000000  0.4440520000000  0.6342490000000 1.0
C      1  0.4619280000000  0.4370870000000  0.3175160000000 1.0
C      1  0.2799280000000  0.5952040000000  0.5667170000000 1.0
C      1  0.6436020000000  0.5710100000000  0.6419040000000 1.0
C      1  0.5418410000000  0.5554870000000  0.3231200000000 1.0
C      1  0.4766830000000  0.5387450000000  0.4136730000000 1.0
C      1  0.5704150000000  0.5814020000000  0.5548900000000 1.0
C      1  0.3771700000000  0.5472160000000  0.5514660000000 1.0
C      1  0.5313840000000  0.4389610000000  0.4077240000000 1.0
C      1  0.4257820000000  0.4431700000000  0.5478920000000 1.0
C      1  0.6143560000000  0.4783560000000  0.5510810000000 1.0
C      1  0.5233170000000  0.4612550000000  0.5863270000000 1.0
C      1  0.4295850000000  0.4185980000000  0.4451100000000 1.0
C      1  0.6228300000000  0.4527830000000  0.4485340000000 1.0
C      1  0.4686160000000  0.5610390000000  0.5922750000000 1.0
C      1  0.5742180000000  0.5568300000000  0.4521090000000 1.0
C      1  0.3856440000000  0.5216440000000  0.4489190000000 1.0
C      1  0.6470840000000  0.3630630000000  0.3541060000000 1.0
C      1  0.5444540000000  0.3694030000000  0.6793630000000 1.0
C      1  0.3092470000000  0.3627760000000  0.4373300000000 1.0
C      1  0.3551970000000  0.6263180000000  0.3738920000000 1.0
C      1  0.4536800000000  0.6381540000000  0.6984540000000 1.0
C      1  0.6929880000000  0.6157930000000  0.4523430000000 1.0
C      1  0.3529160000000  0.6369370000000  0.6458940000000 1.0
C      1  0.4555460000000  0.6305970000000  0.3206370000000 1.0
C      1  0.6907530000000  0.6372240000000  0.5626700000000 1.0
C      1  0.6448030000000  0.3736820000000  0.6261080000000 1.0
C      1  0.5463200000000  0.3618460000000  0.3015460000000 1.0
C      1  0.3070120000000  0.3842070000000  0.5476570000000 1.0
C      1  0.5394830000000  0.6806260000000  0.3684070000000 1.0
C      1  0.6095030000000  0.6957810000000  0.6107880000000 1.0
C      1  0.3707840000000  0.6903560000000  0.5490080000000 1.0
C      1  0.4618150000000  0.3075690000000  0.3480990000000 1.0
C      1  0.3884380000000  0.3231800000000  0.5926760000000 1.0
C      1  0.6339210000000  0.3170910000000  0.5325870000000 1.0
C      1  0.4605170000000  0.3193740000000  0.6315940000000 1.0
C      1  0.3904970000000  0.3042190000000  0.3892120000000 1.0
C      1  0.6292160000000  0.3096440000000  0.4509920000000 1.0
C      1  0.5381850000000  0.6924310000000  0.6519010000000 1.0
C      1  0.6115620000000  0.6768200000000  0.4073240000000 1.0
C      1  0.3660790000000  0.6829090000000  0.4674130000000 1.0
C      1  0.3153450000000  0.5272660000000  0.3344200000000 1.0
C      1  0.7414020000000  0.5127220000000  0.4494110000000 1.0
C      1  0.4112950000000  0.5358380000000  0.7097290000000 1.0
C      1  0.6879770000000  0.4645860000000  0.3214980000000 1.0
C      1  0.2660130000000  0.4635520000000  0.4492380000000 1.0
C      1  0.5867740000000  0.4677720000000  0.7026390000000 1.0
C      1  0.6846550000000  0.4727340000000  0.6655800000000 1.0
C      1  0.2585980000000  0.4872780000000  0.5505890000000 1.0
C      1  0.5887050000000  0.4641620000000  0.2902710000000 1.0
C      1  0.3120230000000  0.5354140000000  0.6785010000000 1.0
C      1  0.7339870000000  0.5364480000000  0.5507620000000 1.0
C      1  0.4132260000000  0.5322280000000  0.2973610000000 1.0
END
