TITL C-986978-6805-753 2.70570852396992e-06 3375 -344.761330843344 0 0 60 (C1) n - 1
REM
REM in /home/bkarasulu/work/CARBON/AIRSS/Generating-Clusters/REBO/Higher-Symm/Only-C60
REM
REM
REM
REM
REM
REM ./C.cell (a2850807a9bf4ad07a5b6933b78d9264)
REM AIRSS Version 0.9.1 bugfix July 2018 build 013d7b7c2542+ Fri, 06 Jul 2018 19:26:36 +0100
REM compiler GCC version 9.2.1 20190827 (Red Hat 9.2.1-1)
REM options -cpp -mtune=generic -march=x86-64 -g -O0 -fpre-include=/usr/include/finclude/math-vector-fortran.h
REM seed -639754892 -689793741 -1973808215 -547671971 -1662941861 56839312 -1286993893 -855036572 -1953685828 843782679 82217116 -522704353 -1592208785 -1302768463 -639471934 1980387297 238768572 -521954909 1658406015 -934045427 -1500129563 -322992572 -1347309376 1947859663 -1805086998 1356904883 1056825109 1676809487 1222023415 -511735281 -1625898398 231459503 -2118652030
REM
CELL 1.54180   15.00000   15.00000   15.00000   90.00000   90.00000   90.00000
LATT -1
SFAC C  
C      1  0.5262300000000  0.5511550000000  0.7650250000000 1.0
C      1  0.5213190000000  0.4752000000000  0.5913360000000 1.0
C      1  0.3007110000000  0.4676960000000  0.4472980000000 1.0
C      1  0.4262990000000  0.4836160000000  0.6063810000000 1.0
C      1  0.2565580000000  0.5552190000000  0.4998080000000 1.0
C      1  0.5344940000000  0.3997680000000  0.5281230000000 1.0
C      1  0.5369130000000  0.4416450000000  0.7528320000000 1.0
C      1  0.4559890000000  0.2592420000000  0.4963070000000 1.0
C      1  0.4309170000000  0.5805140000000  0.7243190000000 1.0
C      1  0.4791700000000  0.3446370000000  0.6360170000000 1.0
C      1  0.3133150000000  0.6056080000000  0.4156320000000 1.0
C      1  0.6843340000000  0.3983830000000  0.4850010000000 1.0
C      1  0.5885830000000  0.5181060000000  0.3952970000000 1.0
C      1  0.5581770000000  0.2697630000000  0.5008650000000 1.0
C      1  0.5870270000000  0.5058260000000  0.6786530000000 1.0
C      1  0.5811330000000  0.3218840000000  0.5917550000000 1.0
C      1  0.7102570000000  0.4614670000000  0.4064300000000 1.0
C      1  0.2777060000000  0.5530490000000  0.5939410000000 1.0
C      1  0.3802200000000  0.6913970000000  0.3991500000000 1.0
C      1  0.5098690000000  0.3620030000000  0.3424590000000 1.0
C      1  0.4601100000000  0.4015170000000  0.7102630000000 1.0
C      1  0.7338790000000  0.4132600000000  0.6337240000000 1.0
C      1  0.5421440000000  0.4321400000000  0.2589170000000 1.0
C      1  0.4570950000000  0.6148680000000  0.2573680000000 1.0
C      1  0.7302220000000  0.5963790000000  0.5053920000000 1.0
C      1  0.4986770000000  0.5646930000000  0.4122860000000 1.0
C      1  0.5563950000000  0.5712680000000  0.5683470000000 1.0
C      1  0.6882200000000  0.5579060000000  0.4321520000000 1.0
C      1  0.7252740000000  0.5790520000000  0.5979310000000 1.0
C      1  0.3938790000000  0.6014490000000  0.4960630000000 1.0
C      1  0.7640710000000  0.4999570000000  0.6327880000000 1.0
C      1  0.4490680000000  0.6854190000000  0.3335850000000 1.0
C      1  0.4744990000000  0.7283450000000  0.5671340000000 1.0
C      1  0.5394990000000  0.7138380000000  0.4750980000000 1.0
C      1  0.4085460000000  0.5637720000000  0.3696460000000 1.0
C      1  0.3764690000000  0.5038250000000  0.5196330000000 1.0
C      1  0.3816490000000  0.4792450000000  0.7086240000000 1.0
C      1  0.4734040000000  0.3551300000000  0.4436790000000 1.0
C      1  0.4038340000000  0.3241200000000  0.5675070000000 1.0
C      1  0.6194010000000  0.3516680000000  0.3314380000000 1.0
C      1  0.5444330000000  0.6947250000000  0.3759060000000 1.0
C      1  0.4343440000000  0.4246980000000  0.2852330000000 1.0
C      1  0.3761730000000  0.5842680000000  0.6267400000000 1.0
C      1  0.5488280000000  0.6311280000000  0.6928270000000 1.0
C      1  0.3974750000000  0.5252850000000  0.2646790000000 1.0
C      1  0.6367170000000  0.5973570000000  0.6353460000000 1.0
C      1  0.5536970000000  0.6122220000000  0.2986770000000 1.0
C      1  0.4581140000000  0.6611840000000  0.6446030000000 1.0
C      1  0.3427810000000  0.3749630000000  0.4864160000000 1.0
C      1  0.2994250000000  0.4656480000000  0.6416050000000 1.0
C      1  0.5035940000000  0.6174900000000  0.5001250000000 1.0
C      1  0.5987410000000  0.3128020000000  0.4280860000000 1.0
C      1  0.5860640000000  0.4257980000000  0.4365660000000 1.0
C      1  0.3114620000000  0.3853510000000  0.5915800000000 1.0
C      1  0.3867970000000  0.3897370000000  0.3829380000000 1.0
C      1  0.6771090000000  0.3686140000000  0.5736050000000 1.0
C      1  0.6005670000000  0.5156310000000  0.2871980000000 1.0
C      1  0.3343740000000  0.4830950000000  0.3495190000000 1.0
C      1  0.6653120000000  0.4347580000000  0.3252030000000 1.0
C      1  0.4084390000000  0.7112190000000  0.4949410000000 1.0
END
