TITL C-986978-6805-925 1.06358414361382e-05 3375 -342.049190735882 0 0 60 (C1) n - 1
REM
REM in /home/bkarasulu/work/CARBON/AIRSS/Generating-Clusters/REBO/Higher-Symm/Only-C60
REM
REM
REM
REM
REM
REM ./C.cell (a2850807a9bf4ad07a5b6933b78d9264)
REM AIRSS Version 0.9.1 bugfix July 2018 build 013d7b7c2542+ Fri, 06 Jul 2018 19:26:36 +0100
REM compiler GCC version 9.2.1 20190827 (Red Hat 9.2.1-1)
REM options -cpp -mtune=generic -march=x86-64 -g -O0 -fpre-include=/usr/include/finclude/math-vector-fortran.h
REM seed 9627368 1562063824 615345124 -1792334408 -576908643 1346588743 1250705102 -897949638 -1616032346 -1667753598 -658943654 -582841319 1051975127 -1361477461 1037330389 1096723957 -686123894 -1931469526 -2138811091 1478301859 78830985 1059397937 1892478598 -386699500 1046395461 84001697 96512581 -1579794769 779587467 1158018135 1960939977 -1650913791 1977166321
REM
CELL 1.54180   15.00000   15.00000   15.00000   90.00000   90.00000   90.00000
LATT -1
SFAC C  
C      1  0.3970510000000  0.5829310000000  0.3668120000000 1.0
C      1  0.7031460000000  0.6163810000000  0.4730270000000 1.0
C      1  0.3066970000000  0.4738080000000  0.6071050000000 1.0
C      1  0.6447130000000  0.4509460000000  0.4378330000000 1.0
C      1  0.2234010000000  0.4762960000000  0.5317270000000 1.0
C      1  0.5277600000000  0.5632610000000  0.6701320000000 1.0
C      1  0.7715330000000  0.4632460000000  0.3360980000000 1.0
C      1  0.6345600000000  0.5453030000000  0.3846670000000 1.0
C      1  0.6744580000000  0.6754910000000  0.4042860000000 1.0
C      1  0.7015240000000  0.4034530000000  0.3660370000000 1.0
C      1  0.8498130000000  0.4416060000000  0.2974440000000 1.0
C      1  0.7344830000000  0.5513730000000  0.3495170000000 1.0
C      1  0.6170510000000  0.5778280000000  0.6952430000000 1.0
C      1  0.4570670000000  0.5668050000000  0.2756450000000 1.0
C      1  0.6470460000000  0.4765050000000  0.5465050000000 1.0
C      1  0.3051280000000  0.4085340000000  0.4909860000000 1.0
C      1  0.4806670000000  0.4696690000000  0.4580830000000 1.0
C      1  0.4005250000000  0.5965320000000  0.6867930000000 1.0
C      1  0.4167990000000  0.4650430000000  0.3089020000000 1.0
C      1  0.5986890000000  0.5638630000000  0.4904350000000 1.0
C      1  0.5544420000000  0.3236330000000  0.4949820000000 1.0
C      1  0.6665850000000  0.6277380000000  0.6293210000000 1.0
C      1  0.4769060000000  0.6578520000000  0.3466720000000 1.0
C      1  0.2310830000000  0.5583880000000  0.6093350000000 1.0
C      1  0.6535760000000  0.4210620000000  0.7024910000000 1.0
C      1  0.5633850000000  0.5643140000000  0.3085650000000 1.0
C      1  0.3480470000000  0.6559580000000  0.5023460000000 1.0
C      1  0.3413320000000  0.5733800000000  0.4447000000000 1.0
C      1  0.6481380000000  0.3606520000000  0.3012130000000 1.0
C      1  0.6168740000000  0.6977860000000  0.5832850000000 1.0
C      1  0.4031020000000  0.2686500000000  0.4871900000000 1.0
C      1  0.5632110000000  0.6963410000000  0.4106650000000 1.0
C      1  0.4428540000000  0.3204280000000  0.3714560000000 1.0
C      1  0.4133460000000  0.2676330000000  0.5820760000000 1.0
C      1  0.3721230000000  0.6658260000000  0.6080240000000 1.0
C      1  0.3475860000000  0.3409720000000  0.4211110000000 1.0
C      1  0.5628770000000  0.3315080000000  0.5908660000000 1.0
C      1  0.6126280000000  0.6577210000000  0.3170780000000 1.0
C      1  0.4803620000000  0.3103490000000  0.6365660000000 1.0
C      1  0.6239200000000  0.4029940000000  0.6149010000000 1.0
C      1  0.3885270000000  0.4789310000000  0.4857780000000 1.0
C      1  0.4742300000000  0.3865730000000  0.3096310000000 1.0
C      1  0.4947790000000  0.2689470000000  0.4430070000000 1.0
C      1  0.7081920000000  0.5699880000000  0.5638020000000 1.0
C      1  0.3893980000000  0.4564500000000  0.6339860000000 1.0
C      1  0.4825300000000  0.4864680000000  0.6762930000000 1.0
C      1  0.2670540000000  0.6475440000000  0.5790160000000 1.0
C      1  0.4965860000000  0.5369290000000  0.3960030000000 1.0
C      1  0.5536850000000  0.4117710000000  0.4616390000000 1.0
C      1  0.2681360000000  0.4990290000000  0.4324970000000 1.0
C      1  0.2575200000000  0.5360520000000  0.7138360000000 1.0
C      1  0.6586140000000  0.5049400000000  0.7397080000000 1.0
C      1  0.4784580000000  0.6339490000000  0.6111090000000 1.0
C      1  0.4463840000000  0.3817450000000  0.6964570000000 1.0
C      1  0.3912310000000  0.4520710000000  0.7667140000000 1.0
C      1  0.5613170000000  0.3732180000000  0.2777010000000 1.0
C      1  0.3400710000000  0.4413820000000  0.3673970000000 1.0
C      1  0.5360590000000  0.6555240000000  0.5158320000000 1.0
C      1  0.3513370000000  0.5342120000000  0.7353090000000 1.0
C      1  0.4414060000000  0.6722160000000  0.4541620000000 1.0
END
