TITL C-986973-6940-211 5.00174601861865e-06 3375 -343.120684213469 0 0 60 (C1) n - 1
REM
REM in /home/bkarasulu/work/CARBON/AIRSS/Generating-Clusters/REBO/Higher-Symm/Only-C60
REM
REM
REM
REM
REM
REM ./C.cell (a2850807a9bf4ad07a5b6933b78d9264)
REM AIRSS Version 0.9.1 bugfix July 2018 build 013d7b7c2542+ Fri, 06 Jul 2018 19:26:36 +0100
REM compiler GCC version 9.2.1 20190827 (Red Hat 9.2.1-1)
REM options -cpp -mtune=generic -march=x86-64 -g -O0 -fpre-include=/usr/include/finclude/math-vector-fortran.h
REM seed -1951171315 1557869198 -523864659 -1286810047 -1812736783 -370507529 1434878221 1041540519 -397749870 -1551847556 746422019 -989207615 1896304148 1360917592 -1879162599 -913791903 2131531670 -167054431 2106957242 -273317259 1983492170 -6520554 -785181704 443391486 -678518160 -666577073 1394134728 1810667221 -1590660151 364828133 -1133792277 543981947 -2122714431
REM
CELL 1.54180   15.00000   15.00000   15.00000   90.00000   90.00000   90.00000
LATT -1
SFAC C  
C      1  0.4596580000000  0.3151570000000  0.5249020000000 1.0
C      1  0.4731700000000  0.3419740000000  0.3188830000000 1.0
C      1  0.6921930000000  0.4185440000000  0.6144470000000 1.0
C      1  0.5895560000000  0.2767850000000  0.4172060000000 1.0
C      1  0.3567480000000  0.5585970000000  0.4225120000000 1.0
C      1  0.4794760000000  0.3671150000000  0.2236860000000 1.0
C      1  0.4099310000000  0.7287960000000  0.4721040000000 1.0
C      1  0.5106800000000  0.4803420000000  0.4103850000000 1.0
C      1  0.5818760000000  0.4683750000000  0.3229170000000 1.0
C      1  0.6873870000000  0.6704490000000  0.5929330000000 1.0
C      1  0.6750540000000  0.6025700000000  0.3447990000000 1.0
C      1  0.5609530000000  0.3670540000000  0.3694000000000 1.0
C      1  0.3676990000000  0.3443870000000  0.6166340000000 1.0
C      1  0.3337640000000  0.5139200000000  0.5797100000000 1.0
C      1  0.4085320000000  0.6700040000000  0.3111030000000 1.0
C      1  0.5241070000000  0.5909830000000  0.3842080000000 1.0
C      1  0.6105330000000  0.6397840000000  0.3992800000000 1.0
C      1  0.6979600000000  0.5257730000000  0.6467200000000 1.0
C      1  0.6337250000000  0.6578540000000  0.4926260000000 1.0
C      1  0.5531190000000  0.4489800000000  0.6773800000000 1.0
C      1  0.4851380000000  0.7122590000000  0.6174020000000 1.0
C      1  0.5953510000000  0.5063400000000  0.5089810000000 1.0
C      1  0.3885250000000  0.3771450000000  0.3503320000000 1.0
C      1  0.4548650000000  0.5578970000000  0.6123790000000 1.0
C      1  0.3041380000000  0.5149740000000  0.3310030000000 1.0
C      1  0.3687190000000  0.6097640000000  0.5942100000000 1.0
C      1  0.6876170000000  0.4823750000000  0.4413040000000 1.0
C      1  0.3522940000000  0.3208860000000  0.5108030000000 1.0
C      1  0.5408870000000  0.4063630000000  0.5770920000000 1.0
C      1  0.6202810000000  0.6082370000000  0.6621040000000 1.0
C      1  0.6745880000000  0.5665380000000  0.5480280000000 1.0
C      1  0.5811810000000  0.3020340000000  0.5772330000000 1.0
C      1  0.5747090000000  0.6827930000000  0.5866590000000 1.0
C      1  0.4722910000000  0.5074050000000  0.7001690000000 1.0
C      1  0.4627110000000  0.2907550000000  0.6330060000000 1.0
C      1  0.4826980000000  0.6101530000000  0.2932770000000 1.0
C      1  0.5486310000000  0.2586680000000  0.4957570000000 1.0
C      1  0.4420760000000  0.4593710000000  0.2256450000000 1.0
C      1  0.3352930000000  0.3877850000000  0.4396390000000 1.0
C      1  0.5086250000000  0.5216030000000  0.2583880000000 1.0
C      1  0.5303090000000  0.3428550000000  0.6934170000000 1.0
C      1  0.5278030000000  0.5998600000000  0.7156830000000 1.0
C      1  0.4144900000000  0.7096860000000  0.7679730000000 1.0
C      1  0.6323360000000  0.4800040000000  0.7161660000000 1.0
C      1  0.4638080000000  0.4256540000000  0.4952670000000 1.0
C      1  0.6367450000000  0.3494380000000  0.6514560000000 1.0
C      1  0.3314620000000  0.6192240000000  0.3320880000000 1.0
C      1  0.4746940000000  0.6798790000000  0.7078260000000 1.0
C      1  0.4534460000000  0.5857980000000  0.4597140000000 1.0
C      1  0.6720460000000  0.5077350000000  0.3522360000000 1.0
C      1  0.3395550000000  0.4470360000000  0.6460690000000 1.0
C      1  0.2580570000000  0.4608420000000  0.4131070000000 1.0
C      1  0.3654270000000  0.4487350000000  0.2869690000000 1.0
C      1  0.4310610000000  0.4014710000000  0.6953400000000 1.0
C      1  0.4228220000000  0.7342650000000  0.3816190000000 1.0
C      1  0.6920870000000  0.4154660000000  0.5202720000000 1.0
C      1  0.5026730000000  0.5470440000000  0.5343640000000 1.0
C      1  0.5915470000000  0.3972620000000  0.4742860000000 1.0
C      1  0.4079490000000  0.6960260000000  0.5609070000000 1.0
C      1  0.3649470000000  0.4809340000000  0.4899920000000 1.0
END
