TITL C-986976-6631-1084 -1.53360488275617e-05 3375 -345.470340827251 0 0 60 (C1) n - 1
REM
REM in /home/bkarasulu/work/CARBON/AIRSS/Generating-Clusters/REBO/Higher-Symm/Only-C60
REM
REM
REM
REM
REM
REM ./C.cell (a2850807a9bf4ad07a5b6933b78d9264)
REM AIRSS Version 0.9.1 bugfix July 2018 build 013d7b7c2542+ Fri, 06 Jul 2018 19:26:36 +0100
REM compiler GCC version 9.2.1 20190827 (Red Hat 9.2.1-1)
REM options -cpp -mtune=generic -march=x86-64 -g -O0 -fpre-include=/usr/include/finclude/math-vector-fortran.h
REM seed -1201726650 -777028240 539732476 853289699 -1321430504 -340770671 -59097276 935994211 -1109486230 963287788 -229916516 1943868413 -1682978757 -2056028070 178962483 944014723 110217589 -1039933236 -997593220 1106131756 616425567 199062845 -1814929147 -1737518365 -338574875 433515411 -22120272 -1446931965 -2139670734 1107065711 -1593507261 -26513594 -1645463749
REM
CELL 1.54180   15.00000   15.00000   15.00000   90.00000   90.00000   90.00000
LATT -1
SFAC C  
C      1  0.7382990000000  0.6803820000000  0.4654490000000 1.0
C      1  0.6959030000000  0.4194900000000  0.3713380000000 1.0
C      1  0.6847790000000  0.4174930000000  0.6799440000000 1.0
C      1  0.4942070000000  0.5102780000000  0.6114390000000 1.0
C      1  0.5085440000000  0.6094090000000  0.4149590000000 1.0
C      1  0.5164900000000  0.3753990000000  0.4530550000000 1.0
C      1  0.3383540000000  0.4129330000000  0.6278230000000 1.0
C      1  0.3208760000000  0.6619200000000  0.5140620000000 1.0
C      1  0.3460170000000  0.4367500000000  0.3605070000000 1.0
C      1  0.3561990000000  0.7161880000000  0.4470180000000 1.0
C      1  0.3794550000000  0.3495890000000  0.3675650000000 1.0
C      1  0.3671310000000  0.4633680000000  0.7007800000000 1.0
C      1  0.6251830000000  0.5740290000000  0.6865570000000 1.0
C      1  0.6066760000000  0.6977760000000  0.3207760000000 1.0
C      1  0.6264150000000  0.2845170000000  0.4596040000000 1.0
C      1  0.5398930000000  0.2508290000000  0.4879620000000 1.0
C      1  0.5369900000000  0.6059510000000  0.6922360000000 1.0
C      1  0.5179800000000  0.6710820000000  0.2984680000000 1.0
C      1  0.3834620000000  0.3423770000000  0.5711140000000 1.0
C      1  0.3678790000000  0.6418480000000  0.6005250000000 1.0
C      1  0.3780720000000  0.5277850000000  0.3241120000000 1.0
C      1  0.5171000000000  0.6948900000000  0.4815130000000 1.0
C      1  0.5083080000000  0.3692520000000  0.3431880000000 1.0
C      1  0.4886160000000  0.4163130000000  0.6749470000000 1.0
C      1  0.4601840000000  0.5754800000000  0.3180360000000 1.0
C      1  0.4722960000000  0.3221420000000  0.5446440000000 1.0
C      1  0.4582350000000  0.6187460000000  0.6156530000000 1.0
C      1  0.5820700000000  0.5457130000000  0.4364610000000 1.0
C      1  0.5949510000000  0.4123550000000  0.5197390000000 1.0
C      1  0.5689120000000  0.5099820000000  0.5406880000000 1.0
C      1  0.5353850000000  0.3408030000000  0.6601060000000 1.0
C      1  0.5762640000000  0.6802120000000  0.5513810000000 1.0
C      1  0.5494490000000  0.4381480000000  0.2992710000000 1.0
C      1  0.4532200000000  0.5360150000000  0.7179270000000 1.0
C      1  0.4388630000000  0.6928610000000  0.3743330000000 1.0
C      1  0.4520860000000  0.2798410000000  0.4220660000000 1.0
C      1  0.6254660000000  0.6003690000000  0.5523090000000 1.0
C      1  0.6138950000000  0.4766410000000  0.3524380000000 1.0
C      1  0.6210480000000  0.3550670000000  0.6099470000000 1.0
C      1  0.3007100000000  0.5890420000000  0.6488570000000 1.0
C      1  0.3003380000000  0.5858690000000  0.3430760000000 1.0
C      1  0.3148900000000  0.3238240000000  0.5027420000000 1.0
C      1  0.7340960000000  0.3438630000000  0.6143900000000 1.0
C      1  0.7222020000000  0.6072760000000  0.5270770000000 1.0
C      1  0.7390660000000  0.5090150000000  0.3843420000000 1.0
C      1  0.2662990000000  0.4543660000000  0.4159960000000 1.0
C      1  0.2608670000000  0.4476170000000  0.5781410000000 1.0
C      1  0.2513250000000  0.5935320000000  0.5010880000000 1.0
C      1  0.4503650000000  0.2894050000000  0.3089920000000 1.0
C      1  0.4467110000000  0.4356320000000  0.7703250000000 1.0
C      1  0.4492730000000  0.7646210000000  0.4621630000000 1.0
C      1  0.6789890000000  0.6767810000000  0.3791180000000 1.0
C      1  0.6879450000000  0.3566760000000  0.4430870000000 1.0
C      1  0.6884920000000  0.5098580000000  0.6562530000000 1.0
C      1  0.2453530000000  0.5414690000000  0.5845930000000 1.0
C      1  0.2478690000000  0.5499950000000  0.4159620000000 1.0
C      1  0.2557330000000  0.3999910000000  0.4933780000000 1.0
C      1  0.6790000000000  0.5789080000000  0.4043480000000 1.0
C      1  0.7093560000000  0.4138010000000  0.5302510000000 1.0
C      1  0.7259690000000  0.5142380000000  0.5658770000000 1.0
END
