TITL C-986975-4297-376 0.0215862477618335 3375 -334.726184502849 0 0 60 (C1) n - 1
REM
REM in /home/bkarasulu/work/CARBON/AIRSS/Generating-Clusters/REBO/Higher-Symm/Only-C60
REM
REM
REM
REM
REM
REM ./C.cell (a2850807a9bf4ad07a5b6933b78d9264)
REM AIRSS Version 0.9.1 bugfix July 2018 build 013d7b7c2542+ Fri, 06 Jul 2018 19:26:36 +0100
REM compiler GCC version 9.2.1 20190827 (Red Hat 9.2.1-1)
REM options -cpp -mtune=generic -march=x86-64 -g -O0 -fpre-include=/usr/include/finclude/math-vector-fortran.h
REM seed 370864706 679058720 -1884127412 792989825 1465511947 -1028065446 1351548847 704249937 1958105489 -659438542 -770840646 2081579909 -1033601941 -511902985 -178030291 -404205116 -1463973112 1498548201 1070671438 1447854940 -581694845 1902179202 2031610203 -689397938 1331731947 107033160 1660238991 322691210 -772127876 -983604680 -785451176 -589618124 -1877596008
REM
CELL 1.54180   15.00000   15.00000   15.00000   90.00000   90.00000   90.00000
LATT -1
SFAC C  
C      1  0.7537540000000  0.6078150000000  0.4367880000000 1.0
C      1  0.7604590000000  0.6118720000000  0.5693440000000 1.0
C      1  0.3820780000000  0.2380620000000  0.4154200000000 1.0
C      1  0.3771610000000  0.2401300000000  0.5799010000000 1.0
C      1  0.4654950000000  0.7711740000000  0.7570650000000 1.0
C      1  0.4493260000000  0.7714600000000  0.2520330000000 1.0
C      1  0.1994110000000  0.5735640000000  0.4483550000000 1.0
C      1  0.2007120000000  0.5730050000000  0.5527030000000 1.0
C      1  0.3751280000000  0.6055130000000  0.6335710000000 1.0
C      1  0.3703910000000  0.6060450000000  0.3653050000000 1.0
C      1  0.3990020000000  0.2591660000000  0.7560210000000 1.0
C      1  0.4062640000000  0.2560460000000  0.2394370000000 1.0
C      1  0.5512030000000  0.7542130000000  0.7576620000000 1.0
C      1  0.5339760000000  0.7498770000000  0.2530240000000 1.0
C      1  0.3025020000000  0.4508950000000  0.3997540000000 1.0
C      1  0.3087530000000  0.4523980000000  0.5914530000000 1.0
C      1  0.2192960000000  0.4975420000000  0.5984570000000 1.0
C      1  0.2141040000000  0.4991500000000  0.3996990000000 1.0
C      1  0.4205950000000  0.4276850000000  0.4025240000000 1.0
C      1  0.4277530000000  0.4403590000000  0.5757710000000 1.0
C      1  0.4263150000000  0.2773140000000  0.8385510000000 1.0
C      1  0.4325310000000  0.2749480000000  0.1567490000000 1.0
C      1  0.3872870000000  0.2421250000000  0.3251120000000 1.0
C      1  0.3800320000000  0.2453200000000  0.6703090000000 1.0
C      1  0.6833640000000  0.7174080000000  0.6746510000000 1.0
C      1  0.6644330000000  0.7083850000000  0.3369370000000 1.0
C      1  0.6241340000000  0.7260530000000  0.2547040000000 1.0
C      1  0.6425250000000  0.7350620000000  0.7566790000000 1.0
C      1  0.3766720000000  0.5177200000000  0.3544710000000 1.0
C      1  0.3832110000000  0.5163450000000  0.6408030000000 1.0
C      1  0.4608890000000  0.2951940000000  0.0766356000000 1.0
C      1  0.4560210000000  0.2965760000000  0.9184230000000 1.0
C      1  0.6958600000000  0.6820390000000  0.4193880000000 1.0
C      1  0.7070040000000  0.6894040000000  0.5900470000000 1.0
C      1  0.3577180000000  0.6622680000000  0.5649620000000 1.0
C      1  0.3550030000000  0.6632280000000  0.4339020000000 1.0
C      1  0.6711710000000  0.7180720000000  0.1773750000000 1.0
C      1  0.6897150000000  0.7310740000000  0.8341850000000 1.0
C      1  0.3781270000000  0.3175370000000  0.4966600000000 1.0
C      1  0.5405730000000  0.5565500000000  0.4749350000000 1.0
C      1  0.3910770000000  0.5003710000000  0.4859580000000 1.0
C      1  0.5676510000000  0.4665620000000  0.4839090000000 1.0
C      1  0.5382110000000  0.7200860000000  0.5058300000000 1.0
C      1  0.2710810000000  0.6440620000000  0.5005840000000 1.0
C      1  0.6220290000000  0.1877170000000  0.5071810000000 1.0
C      1  0.4909410000000  0.3018280000000  0.4967210000000 1.0
C      1  0.8390230000000  0.6256350000000  0.4977470000000 1.0
C      1  0.4834300000000  0.4051360000000  0.4888500000000 1.0
C      1  0.5940260000000  0.2944110000000  0.5026030000000 1.0
C      1  0.6978690000000  0.2703390000000  0.5089270000000 1.0
C      1  0.4174440000000  0.1910130000000  0.4993600000000 1.0
C      1  0.4485820000000  0.5799130000000  0.4787270000000 1.0
C      1  0.3293110000000  0.4025690000000  0.4954590000000 1.0
C      1  0.5920070000000  0.6294200000000  0.4889630000000 1.0
C      1  0.5176240000000  0.1887040000000  0.5025320000000 1.0
C      1  0.6608400000000  0.4540800000000  0.4981180000000 1.0
C      1  0.4410810000000  0.6897450000000  0.4986330000000 1.0
C      1  0.7157890000000  0.5329260000000  0.5049970000000 1.0
C      1  0.6519220000000  0.7178630000000  0.5089900000000 1.0
C      1  0.7034610000000  0.3701270000000  0.5057210000000 1.0
END
