TITL C-986973-6940-517 7.9313270108332e-06 3375 -345.083983643492 0 0 60 (Ci) n - 1
REM
REM in /home/bkarasulu/work/CARBON/AIRSS/Generating-Clusters/REBO/Higher-Symm/Only-C60
REM
REM
REM
REM
REM
REM ./C.cell (a2850807a9bf4ad07a5b6933b78d9264)
REM AIRSS Version 0.9.1 bugfix July 2018 build 013d7b7c2542+ Fri, 06 Jul 2018 19:26:36 +0100
REM compiler GCC version 9.2.1 20190827 (Red Hat 9.2.1-1)
REM options -cpp -mtune=generic -march=x86-64 -g -O0 -fpre-include=/usr/include/finclude/math-vector-fortran.h
REM seed -753914522 -711857661 -645129848 -1732604322 -1674817767 -1147487602 -2131639795 -775469002 252546578 -1345822035 2032238850 1166132944 -582566424 718770633 2119074047 105915753 -1378186134 1114034852 1670900416 -741585120 1874563577 1451934505 -2113274542 28709285 -225671580 1326978092 1293615761 53640152 299491452 604841013 1817249458 487426581 648128596
REM
CELL 1.54180   15.00000   15.00000   15.00000   90.00000   90.00000   90.00000
LATT -1
SFAC C  
C      1  0.3778970000000  0.5337190000000  0.6756060000000 1.0
C      1  0.6221030000000  0.4662810000000  0.3243940000000 1.0
C      1  0.6945710000000  0.4275200000000  0.6472490000000 1.0
C      1  0.3054290000000  0.5724800000000  0.3527510000000 1.0
C      1  0.4247130000000  0.4317550000000  0.3620790000000 1.0
C      1  0.5752870000000  0.5682450000000  0.6379210000000 1.0
C      1  0.3527130000000  0.6729130000000  0.5156420000000 1.0
C      1  0.6472870000000  0.3270870000000  0.4843580000000 1.0
C      1  0.5188200000000  0.4873600000000  0.3311830000000 1.0
C      1  0.4811800000000  0.5126400000000  0.6688170000000 1.0
C      1  0.4447560000000  0.6941690000000  0.3836400000000 1.0
C      1  0.5552440000000  0.3058310000000  0.6163600000000 1.0
C      1  0.5987930000000  0.3662360000000  0.3024220000000 1.0
C      1  0.4012070000000  0.6337640000000  0.6975780000000 1.0
C      1  0.4477560000000  0.6934730000000  0.6651180000000 1.0
C      1  0.5522440000000  0.3065270000000  0.3348820000000 1.0
C      1  0.7180820000000  0.6371010000000  0.4205210000000 1.0
C      1  0.2819180000000  0.3628990000000  0.5794790000000 1.0
C      1  0.5791700000000  0.4768420000000  0.4844950000000 1.0
C      1  0.4208300000000  0.5231580000000  0.5155050000000 1.0
C      1  0.5142510000000  0.5149930000000  0.5633190000000 1.0
C      1  0.4857490000000  0.4850070000000  0.4366810000000 1.0
C      1  0.6421900000000  0.4126400000000  0.4443600000000 1.0
C      1  0.3578100000000  0.5873600000000  0.5556400000000 1.0
C      1  0.3543430000000  0.6696040000000  0.3562500000000 1.0
C      1  0.6456570000000  0.3303960000000  0.6437500000000 1.0
C      1  0.2928300000000  0.3635180000000  0.4031030000000 1.0
C      1  0.7071700000000  0.6364820000000  0.5968970000000 1.0
C      1  0.7154250000000  0.4670810000000  0.3905270000000 1.0
C      1  0.2845750000000  0.5329190000000  0.6094730000000 1.0
C      1  0.3255040000000  0.4366590000000  0.6495090000000 1.0
C      1  0.6744960000000  0.5633410000000  0.3504920000000 1.0
C      1  0.4751450000000  0.3687500000000  0.4995750000000 1.0
C      1  0.5248550000000  0.6312490000000  0.5004250000000 1.0
C      1  0.6143400000000  0.5741430000000  0.4985580000000 1.0
C      1  0.3856600000000  0.4258570000000  0.5014420000000 1.0
C      1  0.6102050000000  0.6500180000000  0.3873140000000 1.0
C      1  0.3897950000000  0.3499820000000  0.6126860000000 1.0
C      1  0.6434600000000  0.6856630000000  0.4912200000000 1.0
C      1  0.3565400000000  0.3143370000000  0.5087800000000 1.0
C      1  0.7585960000000  0.4833760000000  0.4895070000000 1.0
C      1  0.2414040000000  0.5166240000000  0.5104930000000 1.0
C      1  0.2919320000000  0.6702860000000  0.4410790000000 1.0
C      1  0.7080680000000  0.3297140000000  0.5589210000000 1.0
C      1  0.5026830000000  0.5812550000000  0.2917720000000 1.0
C      1  0.4973170000000  0.4187450000000  0.7082280000000 1.0
C      1  0.4801730000000  0.3467830000000  0.6537810000000 1.0
C      1  0.5198270000000  0.6532170000000  0.3462190000000 1.0
C      1  0.2421570000000  0.5786280000000  0.4392980000000 1.0
C      1  0.7578430000000  0.4213720000000  0.5607020000000 1.0
C      1  0.5541040000000  0.2930560000000  0.5115050000000 1.0
C      1  0.4458960000000  0.7069440000000  0.4884950000000 1.0
C      1  0.3921850000000  0.3360860000000  0.4023010000000 1.0
C      1  0.6078150000000  0.6639140000000  0.5976990000000 1.0
C      1  0.3445510000000  0.4900610000000  0.3301860000000 1.0
C      1  0.6554490000000  0.5099390000000  0.6698140000000 1.0
C      1  0.7275640000000  0.5780740000000  0.5109950000000 1.0
C      1  0.2724360000000  0.4219260000000  0.4890050000000 1.0
C      1  0.5075260000000  0.7068330000000  0.5836640000000 1.0
C      1  0.4924740000000  0.2931670000000  0.4163360000000 1.0
END
