TITL C-986975-4297-946 -9.17768703268379e-06 3375 -348.537548808125 0 0 60 (C10) n - 1
REM
REM in /home/bkarasulu/work/CARBON/AIRSS/Generating-Clusters/REBO/Higher-Symm/Only-C60
REM
REM
REM
REM
REM
REM ./C.cell (a2850807a9bf4ad07a5b6933b78d9264)
REM AIRSS Version 0.9.1 bugfix July 2018 build 013d7b7c2542+ Fri, 06 Jul 2018 19:26:36 +0100
REM compiler GCC version 9.2.1 20190827 (Red Hat 9.2.1-1)
REM options -cpp -mtune=generic -march=x86-64 -g -O0 -fpre-include=/usr/include/finclude/math-vector-fortran.h
REM seed -1261741133 431691719 -1346626331 1101052019 1156778303 -1519295958 -1717210141 -161896048 1911275280 1324196424 -817995950 1416131175 -2108441594 739106079 31747755 -1798622874 1381046142 -1436125160 1322879327 -778619393 1426779128 1172027688 181693668 1575541024 -11012472 874548598 -1797057556 -360952132 1457237819 784986361 1120853480 222257019 -1664498539
REM
CELL 1.54180   15.00000   15.00000   15.00000   90.00000   90.00000   90.00000
LATT -1
SFAC C  
C      1  0.6298340000000  0.3673460000000  0.3785760000000 1.0
C      1  0.6298340000000  0.3213100000000  0.4797380000000 1.0
C      1  0.6298340000000  0.3435270000000  0.5886400000000 1.0
C      1  0.6298340000000  0.4255120000000  0.6636830000000 1.0
C      1  0.6298340000000  0.5359480000000  0.6762060000000 1.0
C      1  0.6298340000000  0.6326540000000  0.6214240000000 1.0
C      1  0.6298340000000  0.6786900000000  0.5202620000000 1.0
C      1  0.6298340000000  0.6564730000000  0.4113600000000 1.0
C      1  0.6298340000000  0.5744880000000  0.3363170000000 1.0
C      1  0.6298340000000  0.4640520000000  0.3237940000000 1.0
C      1  0.3701660000000  0.5744830000000  0.3363150000000 1.0
C      1  0.3701660000000  0.4640460000000  0.3237950000000 1.0
C      1  0.3701660000000  0.3673420000000  0.3785810000000 1.0
C      1  0.3701660000000  0.3213090000000  0.4797440000000 1.0
C      1  0.3701660000000  0.3435300000000  0.5886440000000 1.0
C      1  0.3701660000000  0.4255170000000  0.6636850000000 1.0
C      1  0.3701660000000  0.5359540000000  0.6762050000000 1.0
C      1  0.3701660000000  0.6326580000000  0.6214190000000 1.0
C      1  0.3701660000000  0.6786910000000  0.5202560000000 1.0
C      1  0.3701660000000  0.6564700000000  0.4113560000000 1.0
C      1  0.4592360000000  0.3289030000000  0.3392650000000 1.0
C      1  0.4592360000000  0.2671020000000  0.4705310000000 1.0
C      1  0.4592360000000  0.2942610000000  0.6130530000000 1.0
C      1  0.4592360000000  0.4000040000000  0.7123920000000 1.0
C      1  0.4592360000000  0.5439430000000  0.7306050000000 1.0
C      1  0.4592360000000  0.6710970000000  0.6607350000000 1.0
C      1  0.4592360000000  0.7328980000000  0.5294690000000 1.0
C      1  0.4592360000000  0.7057390000000  0.3869470000000 1.0
C      1  0.4592360000000  0.5999960000000  0.2876080000000 1.0
C      1  0.4592360000000  0.4560570000000  0.2693950000000 1.0
C      1  0.2625880000000  0.4968680000000  0.3398850000000 1.0
C      1  0.2625880000000  0.4033530000000  0.3723060000000 1.0
C      1  0.2625880000000  0.3467540000000  0.4535010000000 1.0
C      1  0.2625880000000  0.3486900000000  0.5524570000000 1.0
C      1  0.2625880000000  0.4084210000000  0.6313770000000 1.0
C      1  0.2625880000000  0.5031320000000  0.6601150000000 1.0
C      1  0.2625880000000  0.5966470000000  0.6276940000000 1.0
C      1  0.2625880000000  0.6532460000000  0.5464990000000 1.0
C      1  0.2625880000000  0.6513100000000  0.4475430000000 1.0
C      1  0.2625880000000  0.5915790000000  0.3686230000000 1.0
C      1  0.5407640000000  0.7057400000000  0.3869490000000 1.0
C      1  0.5407640000000  0.5999980000000  0.2876080000000 1.0
C      1  0.5407640000000  0.4560590000000  0.2693940000000 1.0
C      1  0.5407640000000  0.3289040000000  0.3392640000000 1.0
C      1  0.5407640000000  0.2671020000000  0.4705290000000 1.0
C      1  0.5407640000000  0.2942600000000  0.6130510000000 1.0
C      1  0.5407640000000  0.4000020000000  0.7123920000000 1.0
C      1  0.5407640000000  0.5439410000000  0.7306060000000 1.0
C      1  0.5407640000000  0.6710960000000  0.6607360000000 1.0
C      1  0.5407640000000  0.7328980000000  0.5294710000000 1.0
C      1  0.7374120000000  0.3467560000000  0.4534960000000 1.0
C      1  0.7374120000000  0.3486880000000  0.5524530000000 1.0
C      1  0.7374120000000  0.4084170000000  0.6313740000000 1.0
C      1  0.7374120000000  0.5031280000000  0.6601150000000 1.0
C      1  0.7374120000000  0.5966430000000  0.6276970000000 1.0
C      1  0.7374120000000  0.6532440000000  0.5465040000000 1.0
C      1  0.7374120000000  0.6513120000000  0.4475470000000 1.0
C      1  0.7374120000000  0.5915830000000  0.3686260000000 1.0
C      1  0.7374120000000  0.4968720000000  0.3398850000000 1.0
C      1  0.7374120000000  0.4033570000000  0.3723030000000 1.0
END
