TITL C-986975-4297-836 1.18509936194003e-06 3375 -330.9447207118 0 0 60 (C1) n - 1
REM
REM in /home/bkarasulu/work/CARBON/AIRSS/Generating-Clusters/REBO/Higher-Symm/Only-C60
REM
REM
REM
REM
REM
REM ./C.cell (a2850807a9bf4ad07a5b6933b78d9264)
REM AIRSS Version 0.9.1 bugfix July 2018 build 013d7b7c2542+ Fri, 06 Jul 2018 19:26:36 +0100
REM compiler GCC version 9.2.1 20190827 (Red Hat 9.2.1-1)
REM options -cpp -mtune=generic -march=x86-64 -g -O0 -fpre-include=/usr/include/finclude/math-vector-fortran.h
REM seed 493022060 1609414895 181370884 -469956014 -988304628 1022836288 817964658 497783339 838454516 -288749780 1796653314 -184742299 -2083943338 -1967455300 1872475955 815221490 -874366338 421076762 -940428248 -428707777 75372494 235654950 -2082865128 -1403119996 165322042 139703069 1810820851 -930422762 78297439 -744999617 -135455783 66793790 -1737630355
REM
CELL 1.54180   15.00000   15.00000   15.00000   90.00000   90.00000   90.00000
LATT -1
SFAC C  
C      1  0.5804180000000  0.6696780000000  0.4210190000000 1.0
C      1  0.3949050000000  0.6591560000000  0.4748160000000 1.0
C      1  0.5269770000000  0.6728490000000  0.6054010000000 1.0
C      1  0.6687050000000  0.5230350000000  0.5453810000000 1.0
C      1  0.4619320000000  0.5077040000000  0.3490930000000 1.0
C      1  0.3802000000000  0.5209670000000  0.6220140000000 1.0
C      1  0.4949850000000  0.5197650000000  0.7003950000000 1.0
C      1  0.6800900000000  0.5159070000000  0.4130790000000 1.0
C      1  0.3348680000000  0.5065160000000  0.3903830000000 1.0
C      1  0.5023960000000  0.3889790000000  0.6773770000000 1.0
C      1  0.6576430000000  0.3741630000000  0.4216420000000 1.0
C      1  0.3459110000000  0.3752200000000  0.4084670000000 1.0
C      1  0.4995420000000  0.3523080000000  0.2987400000000 1.0
C      1  0.3248670000000  0.3539380000000  0.6115630000000 1.0
C      1  0.6893320000000  0.3627680000000  0.5931320000000 1.0
C      1  0.5462330000000  0.7539550000000  0.4609810000000 1.0
C      1  0.4417910000000  0.7466150000000  0.4715970000000 1.0
C      1  0.5025250000000  0.7561470000000  0.5566790000000 1.0
C      1  0.3025460000000  0.5201580000000  0.5505480000000 1.0
C      1  0.6461370000000  0.5322910000000  0.6474230000000 1.0
C      1  0.5601590000000  0.5181930000000  0.3141280000000 1.0
C      1  0.4399530000000  0.6675430000000  0.2954310000000 1.0
C      1  0.3511710000000  0.6701070000000  0.6567070000000 1.0
C      1  0.7074670000000  0.6797420000000  0.5455580000000 1.0
C      1  0.5612900000000  0.3751630000000  0.5591540000000 1.0
C      1  0.5429550000000  0.3635860000000  0.4240130000000 1.0
C      1  0.4007370000000  0.3548620000000  0.5275750000000 1.0
C      1  0.2810870000000  0.6070280000000  0.5166200000000 1.0
C      1  0.6241900000000  0.6199390000000  0.6774480000000 1.0
C      1  0.5955660000000  0.6059390000000  0.3063360000000 1.0
C      1  0.6755540000000  0.6230190000000  0.3802770000000 1.0
C      1  0.3130160000000  0.6145760000000  0.4101810000000 1.0
C      1  0.5173250000000  0.6287740000000  0.7093700000000 1.0
C      1  0.7224860000000  0.5989970000000  0.4804930000000 1.0
C      1  0.3842400000000  0.5871170000000  0.3260170000000 1.0
C      1  0.4088840000000  0.5954030000000  0.7034290000000 1.0
C      1  0.4892400000000  0.4563880000000  0.5838240000000 1.0
C      1  0.5737310000000  0.4567960000000  0.4814650000000 1.0
C      1  0.4279110000000  0.4396680000000  0.4579610000000 1.0
C      1  0.4495380000000  0.2617320000000  0.5236520000000 1.0
C      1  0.5505980000000  0.2809690000000  0.5282270000000 1.0
C      1  0.4671620000000  0.2999000000000  0.4264470000000 1.0
C      1  0.5979230000000  0.3511440000000  0.3261190000000 1.0
C      1  0.2897000000000  0.3470080000000  0.5039320000000 1.0
C      1  0.6120830000000  0.3645690000000  0.6577360000000 1.0
C      1  0.6793730000000  0.4194970000000  0.5165660000000 1.0
C      1  0.4373870000000  0.4042320000000  0.3491370000000 1.0
C      1  0.4006230000000  0.4183210000000  0.6447570000000 1.0
C      1  0.4123190000000  0.1858270000000  0.5579750000000 1.0
C      1  0.6142290000000  0.2242780000000  0.5084840000000 1.0
C      1  0.4148830000000  0.2711620000000  0.3616850000000 1.0
C      1  0.6335860000000  0.4532010000000  0.3435680000000 1.0
C      1  0.2964190000000  0.4536770000000  0.4748850000000 1.0
C      1  0.5858030000000  0.4647980000000  0.6927480000000 1.0
C      1  0.6400450000000  0.6856530000000  0.6047130000000 1.0
C      1  0.5259100000000  0.6749360000000  0.3211240000000 1.0
C      1  0.3328480000000  0.6742700000000  0.5689210000000 1.0
C      1  0.4247470000000  0.5529530000000  0.4476650000000 1.0
C      1  0.4818040000000  0.5689700000000  0.5961240000000 1.0
C      1  0.5940560000000  0.5679430000000  0.4698170000000 1.0
END
