TITL C-986975-4297-570 -3.11176718377047e-06 3375 -333.051005312789 0 0 60 (Cs) n - 1
REM
REM in /home/bkarasulu/work/CARBON/AIRSS/Generating-Clusters/REBO/Higher-Symm/Only-C60
REM
REM
REM
REM
REM
REM ./C.cell (a2850807a9bf4ad07a5b6933b78d9264)
REM AIRSS Version 0.9.1 bugfix July 2018 build 013d7b7c2542+ Fri, 06 Jul 2018 19:26:36 +0100
REM compiler GCC version 9.2.1 20190827 (Red Hat 9.2.1-1)
REM options -cpp -mtune=generic -march=x86-64 -g -O0 -fpre-include=/usr/include/finclude/math-vector-fortran.h
REM seed 842871746 -347466511 1010448042 72595350 502720432 1644309237 -2055701254 331605009 -602174258 2098381216 -531751626 2043433726 -1122793838 -359155551 -471544225 -810172546 1308428901 -416007818 1172352607 -1868893940 -1987064426 2024167794 -1722863901 -727921838 1032694967 171839027 -196907960 -1313171587 -1782589634 -605350326 2134429227 1437092145 84696249
REM
CELL 1.54180   15.00000   15.00000   15.00000   90.00000   90.00000   90.00000
LATT -1
SFAC C  
C      1  0.3193290000000  0.5480940000000  0.3245490000000 1.0
C      1  0.6899000000000  0.5537380000000  0.6586100000000 1.0
C      1  0.3193490000000  0.5480840000000  0.6761060000000 1.0
C      1  0.6898820000000  0.5537460000000  0.3420010000000 1.0
C      1  0.5784310000000  0.3798370000000  0.6078370000000 1.0
C      1  0.4063790000000  0.3710560000000  0.4058420000000 1.0
C      1  0.5784190000000  0.3798420000000  0.3927790000000 1.0
C      1  0.4063900000000  0.3710510000000  0.5947930000000 1.0
C      1  0.6154920000000  0.4416030000000  0.7200830000000 1.0
C      1  0.4109620000000  0.4341360000000  0.2905220000000 1.0
C      1  0.6154660000000  0.4416140000000  0.2805320000000 1.0
C      1  0.4109860000000  0.4341250000000  0.7101160000000 1.0
C      1  0.5528360000000  0.5151420000000  0.2773800000000 1.0
C      1  0.4611210000000  0.5183470000000  0.7281500000000 1.0
C      1  0.5528620000000  0.5151300000000  0.7232460000000 1.0
C      1  0.4610940000000  0.5183590000000  0.2724870000000 1.0
C      1  0.5901200000000  0.5919340000000  0.3416810000000 1.0
C      1  0.4154910000000  0.5937320000000  0.6637860000000 1.0
C      1  0.5901380000000  0.5919260000000  0.6589440000000 1.0
C      1  0.4154720000000  0.5937410000000  0.3368600000000 1.0
C      1  0.6842950000000  0.4597770000000  0.6526710000000 1.0
C      1  0.3274060000000  0.4556790000000  0.3392110000000 1.0
C      1  0.6842780000000  0.4597850000000  0.3479370000000 1.0
C      1  0.3274250000000  0.4556710000000  0.6614380000000 1.0
C      1  0.5786710000000  0.2802970000000  0.4454140000000 1.0
C      1  0.4049900000000  0.2686090000000  0.5540940000000 1.0
C      1  0.5786770000000  0.2802940000000  0.5551960000000 1.0
C      1  0.4049840000000  0.2686120000000  0.4465360000000 1.0
C      1  0.4468410000000  0.7432270000000  0.4223230000000 1.0
C      1  0.5451050000000  0.7444360000000  0.5782890000000 1.0
C      1  0.4468510000000  0.7432220000000  0.5783270000000 1.0
C      1  0.5450960000000  0.7444400000000  0.4223500000000 1.0
C      1  0.6071860000000  0.2879720000000  0.6578960000000 1.0
C      1  0.3759370000000  0.2854550000000  0.3455410000000 1.0
C      1  0.6071680000000  0.2879800000000  0.3427110000000 1.0
C      1  0.3759550000000  0.2854470000000  0.6550930000000 1.0
C      1  0.6541780000000  0.4325520000000  0.4436250000000 1.0
C      1  0.3330530000000  0.4343550000000  0.5562290000000 1.0
C      1  0.6541840000000  0.4325490000000  0.5569850000000 1.0
C      1  0.3330470000000  0.4343580000000  0.4444180000000 1.0
C      1  0.5874630000000  0.6602540000000  0.5846480000000 1.0
C      1  0.4068600000000  0.6578260000000  0.4151320000000 1.0
C      1  0.5874530000000  0.6602580000000  0.4159820000000 1.0
C      1  0.4068700000000  0.6578210000000  0.5855180000000 1.0
C      1  0.4936220000000  0.4344070000000  0.6299850000000 1.0
C      1  0.4936070000000  0.4344140000000  0.3706430000000 1.0
C      1  0.3954110000000  0.5084570000000  0.5003220000000 1.0
C      1  0.6011640000000  0.5115600000000  0.5003100000000 1.0
C      1  0.3661540000000  0.6111700000000  0.5003260000000 1.0
C      1  0.6283590000000  0.6151410000000  0.5003110000000 1.0
C      1  0.5006870000000  0.5454700000000  0.3966710000000 1.0
C      1  0.5006990000000  0.5454640000000  0.6039620000000 1.0
C      1  0.2713770000000  0.6183750000000  0.5003320000000 1.0
C      1  0.7230480000000  0.6238500000000  0.5003060000000 1.0
C      1  0.4146660000000  0.7904070000000  0.5003280000000 1.0
C      1  0.5757860000000  0.7928530000000  0.5003190000000 1.0
C      1  0.5001650000000  0.3728330000000  0.5003120000000 1.0
C      1  0.4974410000000  0.5922470000000  0.5003180000000 1.0
C      1  0.4944700000000  0.2400440000000  0.5003090000000 1.0
C      1  0.4988650000000  0.4620060000000  0.5003150000000 1.0
END
