TITL C-986978-6805-1043 -0.0676085492401206 3375 -349.756527089337 0 0 60 (D2) n - 1
REM
REM in /home/bkarasulu/work/CARBON/AIRSS/Generating-Clusters/REBO/Higher-Symm/Only-C60
REM
REM
REM
REM
REM
REM ./C.cell (a2850807a9bf4ad07a5b6933b78d9264)
REM AIRSS Version 0.9.1 bugfix July 2018 build 013d7b7c2542+ Fri, 06 Jul 2018 19:26:36 +0100
REM compiler GCC version 9.2.1 20190827 (Red Hat 9.2.1-1)
REM options -cpp -mtune=generic -march=x86-64 -g -O0 -fpre-include=/usr/include/finclude/math-vector-fortran.h
REM seed 1355337755 1103194910 1224546953 2080453944 294672802 -1574606671 235250072 -1655063832 1506872741 1144438907 -1249919530 -2054588872 1583878865 927427182 173760716 -642126354 -535737809 -1102608736 -1067172362 -649911298 -1167031672 814451324 55016552 1492027988 -89457617 -997560987 -505646503 1031873997 -203049305 -1771612307 1419362489 -964735991 672920941
REM
CELL 1.54180   15.00000   15.00000   15.00000   90.00000   90.00000   90.00000
LATT -1
SFAC C  
C      1  0.3855460000000  0.4243910000000  0.4888200000000 1.0
C      1  0.3855460000000  0.5756060000000  0.5111840000000 1.0
C      1  0.6144780000000  0.4243780000000  0.5111850000000 1.0
C      1  0.6144480000000  0.5756010000000  0.4888260000000 1.0
C      1  0.3227560000000  0.4553740000000  0.3686090000000 1.0
C      1  0.3227530000000  0.5446300000000  0.6313920000000 1.0
C      1  0.6772490000000  0.4553820000000  0.6313880000000 1.0
C      1  0.6772470000000  0.5446130000000  0.3686120000000 1.0
C      1  0.4417210000000  0.6653140000000  0.3818500000000 1.0
C      1  0.4417200000000  0.3346820000000  0.6181490000000 1.0
C      1  0.5582760000000  0.6653200000000  0.6181510000000 1.0
C      1  0.5582780000000  0.3346810000000  0.3818460000000 1.0
C      1  0.4768960000000  0.4664060000000  0.2854560000000 1.0
C      1  0.4768980000000  0.5335960000000  0.7145440000000 1.0
C      1  0.5231080000000  0.4664050000000  0.7145430000000 1.0
C      1  0.5231090000000  0.5335990000000  0.2854600000000 1.0
C      1  0.6786970000000  0.6898050000000  0.5089140000000 1.0
C      1  0.6786930000000  0.3102040000000  0.4910860000000 1.0
C      1  0.3213000000000  0.6897990000000  0.4910780000000 1.0
C      1  0.3213000000000  0.3102000000000  0.5089140000000 1.0
C      1  0.2813170000000  0.4561850000000  0.4950370000000 1.0
C      1  0.2813200000000  0.5438120000000  0.5049610000000 1.0
C      1  0.7186850000000  0.4561880000000  0.5049610000000 1.0
C      1  0.7186890000000  0.5438150000000  0.4950420000000 1.0
C      1  0.6827380000000  0.4523290000000  0.3768600000000 1.0
C      1  0.6827350000000  0.5476710000000  0.6231380000000 1.0
C      1  0.3172680000000  0.4523400000000  0.6231350000000 1.0
C      1  0.3172640000000  0.5476620000000  0.3768610000000 1.0
C      1  0.4464410000000  0.5672190000000  0.4256310000000 1.0
C      1  0.4464410000000  0.4327730000000  0.5743750000000 1.0
C      1  0.5535600000000  0.5672260000000  0.5743820000000 1.0
C      1  0.5535640000000  0.4327780000000  0.4256220000000 1.0
C      1  0.4743340000000  0.2531320000000  0.5507290000000 1.0
C      1  0.4743330000000  0.7468630000000  0.4492740000000 1.0
C      1  0.5256630000000  0.2531350000000  0.4492720000000 1.0
C      1  0.5256620000000  0.7468710000000  0.5507300000000 1.0
C      1  0.3981450000000  0.2659210000000  0.4758170000000 1.0
C      1  0.3981450000000  0.7340730000000  0.5241800000000 1.0
C      1  0.6018510000000  0.2659200000000  0.5241820000000 1.0
C      1  0.6018520000000  0.7340810000000  0.4758170000000 1.0
C      1  0.6624480000000  0.6399660000000  0.5952050000000 1.0
C      1  0.6624450000000  0.3600350000000  0.4047970000000 1.0
C      1  0.3375500000000  0.6399580000000  0.4047920000000 1.0
C      1  0.3375500000000  0.3600430000000  0.5952030000000 1.0
C      1  0.2879630000000  0.3719470000000  0.4345110000000 1.0
C      1  0.2879630000000  0.6280510000000  0.5654800000000 1.0
C      1  0.7120140000000  0.3719600000000  0.5654700000000 1.0
C      1  0.7120370000000  0.6280550000000  0.4345100000000 1.0
C      1  0.5514080000000  0.6950460000000  0.3819300000000 1.0
C      1  0.5514090000000  0.3049500000000  0.6180720000000 1.0
C      1  0.4485880000000  0.6950510000000  0.6180730000000 1.0
C      1  0.4485880000000  0.3049540000000  0.3819290000000 1.0
C      1  0.5892400000000  0.3966730000000  0.6659550000000 1.0
C      1  0.5892430000000  0.6033270000000  0.3340510000000 1.0
C      1  0.4107620000000  0.3966790000000  0.3340430000000 1.0
C      1  0.4107620000000  0.6033250000000  0.6659610000000 1.0
C      1  0.5526200000000  0.4597800000000  0.5847070000000 1.0
C      1  0.5526200000000  0.5402210000000  0.4152990000000 1.0
C      1  0.4473820000000  0.4597810000000  0.4152930000000 1.0
C      1  0.4473810000000  0.5402180000000  0.5847100000000 1.0
END
