TITL C-986979-5873-931 -7.10814213701645e-06 3375 -337.64442275087 0 0 60 (C5) n - 1
REM
REM in /home/bkarasulu/work/CARBON/AIRSS/Generating-Clusters/REBO/Higher-Symm/Only-C60
REM
REM
REM
REM
REM
REM ./C.cell (a2850807a9bf4ad07a5b6933b78d9264)
REM AIRSS Version 0.9.1 bugfix July 2018 build 013d7b7c2542+ Fri, 06 Jul 2018 19:26:36 +0100
REM compiler GCC version 9.2.1 20190827 (Red Hat 9.2.1-1)
REM options -cpp -mtune=generic -march=x86-64 -g -O0 -fpre-include=/usr/include/finclude/math-vector-fortran.h
REM seed -277248441 813446487 -1198496752 127730032 228210344 791899912 717734712 1261578477 2104503870 -375719379 1959372905 -110781816 1023094025 -1161067619 -1630682909 190864300 283045747 -496443423 -134492658 -1192248366 -347067970 -1123002834 -1017025677 -1459179203 1526612003 -247802935 -1335075696 -865807369 -1452776337 -483223014 -322486436 1160580486 102425531
REM
CELL 1.54180   15.00000   15.00000   15.00000   90.00000   90.00000   90.00000
LATT -1
SFAC C  
C      1  0.4446640000000  0.6442330000000  0.7392350000000 1.0
C      1  0.2553580000000  0.6442060000000  0.5213020000000 1.0
C      1  0.4041260000000  0.6441990000000  0.2739170000000 1.0
C      1  0.6853750000000  0.6442220000000  0.3389570000000 1.0
C      1  0.7104290000000  0.6442430000000  0.6265400000000 1.0
C      1  0.4087120000000  0.4286030000000  0.7369710000000 1.0
C      1  0.2464250000000  0.4285750000000  0.4864060000000 1.0
C      1  0.4345770000000  0.4285710000000  0.2546340000000 1.0
C      1  0.7131480000000  0.4285970000000  0.3619560000000 1.0
C      1  0.6971620000000  0.4286160000000  0.6600560000000 1.0
C      1  0.4468410000000  0.6217370000000  0.4311870000000 1.0
C      1  0.5490050000000  0.6217440000000  0.4281800000000 1.0
C      1  0.5834350000000  0.6217530000000  0.5244140000000 1.0
C      1  0.5025500000000  0.6217520000000  0.5868980000000 1.0
C      1  0.4181300000000  0.6217420000000  0.5292800000000 1.0
C      1  0.2675990000000  0.4065720000000  0.3771660000000 1.0
C      1  0.5450170000000  0.4065810000000  0.2410140000000 1.0
C      1  0.7602310000000  0.4066100000000  0.4627810000000 1.0
C      1  0.6158230000000  0.4066190000000  0.7359920000000 1.0
C      1  0.3113600000000  0.4065960000000  0.6830790000000 1.0
C      1  0.3286350000000  0.6824740000000  0.5395670000000 1.0
C      1  0.4093950000000  0.6824660000000  0.3492520000000 1.0
C      1  0.6153510000000  0.6824810000000  0.3672490000000 1.0
C      1  0.6618790000000  0.6824980000000  0.5686860000000 1.0
C      1  0.4846790000000  0.6824940000000  0.6751840000000 1.0
C      1  0.5140450000000  0.4536270000000  0.7263970000000 1.0
C      1  0.2890290000000  0.4536030000000  0.5833180000000 1.0
C      1  0.3555720000000  0.4535900000000  0.3251010000000 1.0
C      1  0.6217130000000  0.4536060000000  0.3085930000000 1.0
C      1  0.7196560000000  0.4536290000000  0.5566080000000 1.0
C      1  0.3923210000000  0.5521780000000  0.3696450000000 1.0
C      1  0.5906950000000  0.5521900000000  0.3573100000000 1.0
C      1  0.6637270000000  0.5522070000000  0.5421630000000 1.0
C      1  0.5104890000000  0.5522060000000  0.6687440000000 1.0
C      1  0.3427510000000  0.5521880000000  0.5621210000000 1.0
C      1  0.5689580000000  0.4479690000000  0.4586570000000 1.0
C      1  0.5606350000000  0.4479750000000  0.5528070000000 1.0
C      1  0.4685210000000  0.4479700000000  0.5739850000000 1.0
C      1  0.4199140000000  0.4479610000000  0.4929230000000 1.0
C      1  0.4819880000000  0.4479610000000  0.4216460000000 1.0
C      1  0.2919370000000  0.5158510000000  0.3970290000000 1.0
C      1  0.5336350000000  0.5158580000000  0.2703010000000 1.0
C      1  0.7288490000000  0.5158840000000  0.4610080000000 1.0
C      1  0.6078000000000  0.5158930000000  0.7055990000000 1.0
C      1  0.3377740000000  0.5158720000000  0.6660580000000 1.0
C      1  0.4184870000000  0.3270660000000  0.5489680000000 1.0
C      1  0.4282590000000  0.3270590000000  0.4376060000000 1.0
C      1  0.5371900000000  0.3270650000000  0.4124870000000 1.0
C      1  0.5947420000000  0.3270750000000  0.5083240000000 1.0
C      1  0.5213790000000  0.3270760000000  0.5926740000000 1.0
C      1  0.6220680000000  0.3777140000000  0.6061200000000 1.0
C      1  0.4368080000000  0.3777050000000  0.6488850000000 1.0
C      1  0.3388880000000  0.3776870000000  0.4859070000000 1.0
C      1  0.4636300000000  0.3776850000000  0.3424170000000 1.0
C      1  0.6386450000000  0.3777020000000  0.4167120000000 1.0
C      1  0.4342200000000  0.5419320000000  0.2652170000000 1.0
C      1  0.7029610000000  0.5419560000000  0.3648880000000 1.0
C      1  0.6912120000000  0.5419750000000  0.6512760000000 1.0
C      1  0.4152110000000  0.5419620000000  0.7286010000000 1.0
C      1  0.2563810000000  0.5419360000000  0.4900030000000 1.0
END
