TITL C-986976-6631-860 -2.63558078335887e-06 3375 -348.557303955999 0 0 60 (S10) n - 1
REM
REM in /home/bkarasulu/work/CARBON/AIRSS/Generating-Clusters/REBO/Higher-Symm/Only-C60
REM
REM
REM
REM
REM
REM ./C.cell (a2850807a9bf4ad07a5b6933b78d9264)
REM AIRSS Version 0.9.1 bugfix July 2018 build 013d7b7c2542+ Fri, 06 Jul 2018 19:26:36 +0100
REM compiler GCC version 9.2.1 20190827 (Red Hat 9.2.1-1)
REM options -cpp -mtune=generic -march=x86-64 -g -O0 -fpre-include=/usr/include/finclude/math-vector-fortran.h
REM seed -641732986 1082060767 -708709640 -1577026626 1201674657 677331845 1652670865 -1433135305 -254973123 1147757442 1094090264 -1512960797 959204742 1621722278 -206130880 -154814722 -1371055492 2019666128 2129992204 1118352871 1830110723 -1989432470 1939435900 -734742855 -1912698342 -2076439800 363416849 1695758798 -2137778397 -491389265 -1669416297 1401100622 1665962031
REM
CELL 1.54180   15.00000   15.00000   15.00000   90.00000   90.00000   90.00000
LATT -1
SFAC C  
C      1  0.4231770000000  0.3074760000000  0.5463950000000 1.0
C      1  0.4651200000000  0.6925290000000  0.5826790000000 1.0
C      1  0.5203780000000  0.3074760000000  0.5874010000000 1.0
C      1  0.5678610000000  0.6925270000000  0.5587210000000 1.0
C      1  0.5894140000000  0.3074730000000  0.5076290000000 1.0
C      1  0.5768230000000  0.6925240000000  0.4536050000000 1.0
C      1  0.5348800000000  0.3074710000000  0.4173210000000 1.0
C      1  0.4796220000000  0.6925240000000  0.4125990000000 1.0
C      1  0.4321390000000  0.3074730000000  0.4412790000000 1.0
C      1  0.4105860000000  0.6925270000000  0.4923710000000 1.0
C      1  0.5549840000000  0.5923660000000  0.3446100000000 1.0
C      1  0.4531470000000  0.4076260000000  0.3419730000000 1.0
C      1  0.3692090000000  0.5923690000000  0.3996880000000 1.0
C      1  0.3352260000000  0.4076320000000  0.4957280000000 1.0
C      1  0.3641840000000  0.5923740000000  0.5933910000000 1.0
C      1  0.4450160000000  0.4076340000000  0.6553900000000 1.0
C      1  0.5468530000000  0.5923740000000  0.6580270000000 1.0
C      1  0.6307910000000  0.4076310000000  0.6003120000000 1.0
C      1  0.6647740000000  0.5923680000000  0.5042720000000 1.0
C      1  0.6358160000000  0.4076260000000  0.4066090000000 1.0
C      1  0.5274660000000  0.4399030000000  0.4151850000000 1.0
C      1  0.4723680000000  0.5600920000000  0.4152360000000 1.0
C      1  0.4278220000000  0.4399050000000  0.4476700000000 1.0
C      1  0.4108480000000  0.5600950000000  0.5000860000000 1.0
C      1  0.4279250000000  0.4399080000000  0.5524750000000 1.0
C      1  0.4725340000000  0.5600970000000  0.5848150000000 1.0
C      1  0.5276320000000  0.4399080000000  0.5847640000000 1.0
C      1  0.5721780000000  0.5600950000000  0.5523300000000 1.0
C      1  0.5891520000000  0.4399050000000  0.4999140000000 1.0
C      1  0.5720750000000  0.5600920000000  0.4475250000000 1.0
C      1  0.6829730000000  0.5552950000000  0.3465040000000 1.0
C      1  0.5578050000000  0.4446920000000  0.2682740000000 1.0
C      1  0.4105600000000  0.5552970000000  0.2785490000000 1.0
C      1  0.2974760000000  0.4446980000000  0.3734170000000 1.0
C      1  0.2617510000000  0.5553050000000  0.5166300000000 1.0
C      1  0.3170270000000  0.4447050000000  0.6534960000000 1.0
C      1  0.4421950000000  0.5553080000000  0.7317260000000 1.0
C      1  0.5894400000000  0.4447030000000  0.7214510000000 1.0
C      1  0.7025240000000  0.5553020000000  0.6265830000000 1.0
C      1  0.7382490000000  0.4446950000000  0.4833700000000 1.0
C      1  0.3919200000000  0.4729840000000  0.7166280000000 1.0
C      1  0.5398920000000  0.5270280000000  0.7387820000000 1.0
C      1  0.6726260000000  0.4729800000000  0.6697320000000 1.0
C      1  0.7394230000000  0.5270200000000  0.5358480000000 1.0
C      1  0.7147680000000  0.4729720000000  0.3882740000000 1.0
C      1  0.6080800000000  0.5270160000000  0.2833720000000 1.0
C      1  0.4601080000000  0.4729720000000  0.2612180000000 1.0
C      1  0.3273740000000  0.5270200000000  0.3302680000000 1.0
C      1  0.2605770000000  0.4729800000000  0.4641520000000 1.0
C      1  0.2852320000000  0.5270280000000  0.6117260000000 1.0
C      1  0.3576150000000  0.3583500000000  0.3724280000000 1.0
C      1  0.3098240000000  0.6416500000000  0.4804770000000 1.0
C      1  0.3346680000000  0.3583560000000  0.5959950000000 1.0
C      1  0.4226690000000  0.6416540000000  0.6748340000000 1.0
C      1  0.5402020000000  0.3583560000000  0.6869050000000 1.0
C      1  0.6423850000000  0.6416500000000  0.6275720000000 1.0
C      1  0.6901760000000  0.3583500000000  0.5195230000000 1.0
C      1  0.6653320000000  0.6416440000000  0.4040050000000 1.0
C      1  0.5773310000000  0.3583460000000  0.3251660000000 1.0
C      1  0.4597980000000  0.6416440000000  0.3130950000000 1.0
END
