TITL C-986974-580-369 2.49047500887779e-05 3375 -336.305730624508 0 0 60 (Ci) n - 1
REM
REM in /home/bkarasulu/work/CARBON/AIRSS/Generating-Clusters/REBO/Higher-Symm/Only-C60
REM
REM
REM
REM
REM
REM ./C.cell (a2850807a9bf4ad07a5b6933b78d9264)
REM AIRSS Version 0.9.1 bugfix July 2018 build 013d7b7c2542+ Fri, 06 Jul 2018 19:26:36 +0100
REM compiler GCC version 9.2.1 20190827 (Red Hat 9.2.1-1)
REM options -cpp -mtune=generic -march=x86-64 -g -O0 -fpre-include=/usr/include/finclude/math-vector-fortran.h
REM seed 532965086 -193739375 1386114713 464666668 -637667913 -1509358888 553645038 1359401606 -814299168 -1549459113 884827735 1984093067 2138551479 1124735040 1360293364 1160639269 608193714 -234528086 -1908167145 1237073454 -1560719941 -1773819908 -1677875509 -691501086 783807584 1914399232 -2027743639 -161163184 1628766591 2137115204 276958309 -634238931 1976398047
REM
CELL 1.54180   15.00000   15.00000   15.00000   90.00000   90.00000   90.00000
LATT -1
SFAC C  
C      1  0.5694820000000  0.3936450000000  0.5431020000000 1.0
C      1  0.4305180000000  0.6063550000000  0.4568980000000 1.0
C      1  0.2280040000000  0.5780190000000  0.4746270000000 1.0
C      1  0.7719960000000  0.4219820000000  0.5253730000000 1.0
C      1  0.4297790000000  0.7025380000000  0.3945570000000 1.0
C      1  0.5702210000000  0.2974620000000  0.6054430000000 1.0
C      1  0.4986340000000  0.2461270000000  0.4572760000000 1.0
C      1  0.5013660000000  0.7538730000000  0.5427240000000 1.0
C      1  0.7376590000000  0.5734050000000  0.3530510000000 1.0
C      1  0.2623400000000  0.4265950000000  0.6469490000000 1.0
C      1  0.3139940000000  0.2770160000000  0.5935190000000 1.0
C      1  0.6860050000000  0.7229840000000  0.4064810000000 1.0
C      1  0.5913730000000  0.6858620000000  0.4228110000000 1.0
C      1  0.4086270000000  0.3141380000000  0.5771890000000 1.0
C      1  0.4365700000000  0.3026740000000  0.4112960000000 1.0
C      1  0.5634300000000  0.6973260000000  0.5887040000000 1.0
C      1  0.4853020000000  0.2511440000000  0.5566580000000 1.0
C      1  0.5146980000000  0.7488560000000  0.4433420000000 1.0
C      1  0.4834020000000  0.3917860000000  0.3894450000000 1.0
C      1  0.5165980000000  0.6082140000000  0.6105550000000 1.0
C      1  0.5751290000000  0.5463310000000  0.6674440000000 1.0
C      1  0.4248710000000  0.4536700000000  0.3325560000000 1.0
C      1  0.5657350000000  0.6430860000000  0.3381950000000 1.0
C      1  0.4342640000000  0.3569140000000  0.6618050000000 1.0
C      1  0.4224820000000  0.6337610000000  0.6500600000000 1.0
C      1  0.5775180000000  0.3662390000000  0.3499410000000 1.0
C      1  0.2541350000000  0.3302270000000  0.4874070000000 1.0
C      1  0.7458650000000  0.6697740000000  0.5125930000000 1.0
C      1  0.6007870000000  0.4647360000000  0.6221030000000 1.0
C      1  0.3992130000000  0.5352640000000  0.3778970000000 1.0
C      1  0.6299090000000  0.4537930000000  0.4355240000000 1.0
C      1  0.3700900000000  0.5462070000000  0.5644760000000 1.0
C      1  0.2764250000000  0.5251120000000  0.4289130000000 1.0
C      1  0.7235750000000  0.4748890000000  0.5710870000000 1.0
C      1  0.3424870000000  0.3194870000000  0.4507820000000 1.0
C      1  0.6575130000000  0.6805130000000  0.5492180000000 1.0
C      1  0.5442440000000  0.3831610000000  0.6727680000000 1.0
C      1  0.4557550000000  0.6168400000000  0.3272330000000 1.0
C      1  0.4129450000000  0.5016810000000  0.6393310000000 1.0
C      1  0.5870540000000  0.4983190000000  0.3606690000000 1.0
C      1  0.7406650000000  0.4073080000000  0.4281230000000 1.0
C      1  0.2593350000000  0.5926920000000  0.5718770000000 1.0
C      1  0.6333070000000  0.5080730000000  0.5219480000000 1.0
C      1  0.3666930000000  0.4919270000000  0.4780520000000 1.0
C      1  0.4636490000000  0.4459830000000  0.7229160000000 1.0
C      1  0.5363510000000  0.5540170000000  0.2770850000000 1.0
C      1  0.4039240000000  0.3964120000000  0.4993470000000 1.0
C      1  0.5960760000000  0.6035880000000  0.5006530000000 1.0
C      1  0.6470770000000  0.5739490000000  0.3057100000000 1.0
C      1  0.3529220000000  0.4260510000000  0.6942900000000 1.0
C      1  0.7696140000000  0.4890220000000  0.3689670000000 1.0
C      1  0.2303860000000  0.5109780000000  0.6310330000000 1.0
C      1  0.4993600000000  0.5544060000000  0.5119420000000 1.0
C      1  0.5006400000000  0.4455940000000  0.4880580000000 1.0
C      1  0.6468660000000  0.3455150000000  0.4216790000000 1.0
C      1  0.3531350000000  0.6544850000000  0.5783210000000 1.0
C      1  0.2454840000000  0.3513300000000  0.5887370000000 1.0
C      1  0.7545160000000  0.6486700000000  0.4112620000000 1.0
C      1  0.4056150000000  0.7060740000000  0.5057160000000 1.0
C      1  0.5943850000000  0.2939250000000  0.4942840000000 1.0
END
