TITL C-986975-4297-624 1.07523995023201e-06 3375 -359.177170602171 0 0 60 (C5) n - 1
REM
REM in /home/bkarasulu/work/CARBON/AIRSS/Generating-Clusters/REBO/Higher-Symm/Only-C60
REM
REM
REM
REM
REM
REM ./C.cell (a2850807a9bf4ad07a5b6933b78d9264)
REM AIRSS Version 0.9.1 bugfix July 2018 build 013d7b7c2542+ Fri, 06 Jul 2018 19:26:36 +0100
REM compiler GCC version 9.2.1 20190827 (Red Hat 9.2.1-1)
REM options -cpp -mtune=generic -march=x86-64 -g -O0 -fpre-include=/usr/include/finclude/math-vector-fortran.h
REM seed 1612738250 229894165 -1309746622 349124364 -1143246212 -1188854256 226313620 -853679018 -1694028442 -843422980 -1993944197 -1191822085 1775780072 1704091945 -1326426359 -1681200273 -359573058 1980695011 826989212 -1540668772 -989092776 -2126116250 -2022719418 -531686113 924063195 811661608 -2066993205 1735386088 1949510285 -1417687336 -469534412 -757633671 -472390444
REM
CELL 1.54180   15.00000   15.00000   15.00000   90.00000   90.00000   90.00000
LATT -1
SFAC C  
C      1  0.4922040000000  0.7044720000000  0.4171080000000 1.0
C      1  0.5764280000000  0.7044710000000  0.4669720000000 1.0
C      1  0.5550310000000  0.7044710000000  0.5624820000000 1.0
C      1  0.4575830000000  0.7044710000000  0.5716460000000 1.0
C      1  0.4187540000000  0.7044710000000  0.4818000000000 1.0
C      1  0.3414040000000  0.4935990000000  0.3920920000000 1.0
C      1  0.5536180000000  0.4936000000000  0.3158200000000 1.0
C      1  0.6917340000000  0.4935990000000  0.4940790000000 1.0
C      1  0.5648800000000  0.4935970000000  0.6805200000000 1.0
C      1  0.3483640000000  0.4935980000000  0.6174890000000 1.0
C      1  0.6597410000000  0.4704990000000  0.3314370000000 1.0
C      1  0.7096750000000  0.4704970000000  0.5998340000000 1.0
C      1  0.4698460000000  0.4704960000000  0.7302630000000 1.0
C      1  0.2716880000000  0.4704970000000  0.5424770000000 1.0
C      1  0.3890500000000  0.4704990000000  0.2959880000000 1.0
C      1  0.3587700000000  0.3222310000000  0.6210510000000 1.0
C      1  0.3412300000000  0.3222330000000  0.4030880000000 1.0
C      1  0.5431050000000  0.3222340000000  0.3190520000000 1.0
C      1  0.6854110000000  0.3222320000000  0.4850780000000 1.0
C      1  0.5714850000000  0.3222310000000  0.6717240000000 1.0
C      1  0.3940190000000  0.5508550000000  0.2488120000000 1.0
C      1  0.7061440000000  0.5508540000000  0.3215850000000 1.0
C      1  0.7333850000000  0.5508520000000  0.6409220000000 1.0
C      1  0.4380960000000  0.5508510000000  0.7655100000000 1.0
C      1  0.2283560000000  0.5508530000000  0.5231730000000 1.0
C      1  0.3218260000000  0.3179220000000  0.5157430000000 1.0
C      1  0.4299670000000  0.3179240000000  0.3354100000000 1.0
C      1  0.6348910000000  0.3179230000000  0.3825330000000 1.0
C      1  0.6534000000000  0.3179220000000  0.5919890000000 1.0
C      1  0.4599150000000  0.3179210000000  0.6743180000000 1.0
C      1  0.4788920000000  0.4130910000000  0.2943530000000 1.0
C      1  0.6890580000000  0.4130910000000  0.4163760000000 1.0
C      1  0.6379530000000  0.4130890000000  0.6539630000000 1.0
C      1  0.3962010000000  0.4130890000000  0.6787780000000 1.0
C      1  0.2978960000000  0.4130900000000  0.4565260000000 1.0
C      1  0.5720640000000  0.3681850000000  0.5477110000000 1.0
C      1  0.4768920000000  0.3681850000000  0.5832790000000 1.0
C      1  0.4136550000000  0.3681850000000  0.5037570000000 1.0
C      1  0.4697440000000  0.3681860000000  0.4190410000000 1.0
C      1  0.5676460000000  0.3681860000000  0.4462060000000 1.0
C      1  0.5045220000000  0.4775660000000  0.4078340000000 1.0
C      1  0.5890520000000  0.4775650000000  0.4758200000000 1.0
C      1  0.5505150000000  0.4775650000000  0.5772220000000 1.0
C      1  0.4421680000000  0.4775650000000  0.5719050000000 1.0
C      1  0.4137430000000  0.4775650000000  0.4672180000000 1.0
C      1  0.6096100000000  0.6555660000000  0.6239760000000 1.0
C      1  0.4159640000000  0.6555660000000  0.6425570000000 1.0
C      1  0.3384530000000  0.6555670000000  0.4641300000000 1.0
C      1  0.4841940000000  0.6555680000000  0.3352760000000 1.0
C      1  0.6517790000000  0.6555680000000  0.4340660000000 1.0
C      1  0.5630920000000  0.6013270000000  0.6870540000000 1.0
C      1  0.3415990000000  0.6013270000000  0.6178080000000 1.0
C      1  0.3390100000000  0.6013290000000  0.3857560000000 1.0
C      1  0.5589040000000  0.6013300000000  0.3115870000000 1.0
C      1  0.6973950000000  0.6013280000000  0.4977990000000 1.0
C      1  0.6484500000000  0.6246910000000  0.3428590000000 1.0
C      1  0.6953240000000  0.6246890000000  0.5926250000000 1.0
C      1  0.4722670000000  0.6246880000000  0.7143880000000 1.0
C      1  0.2875360000000  0.6246900000000  0.5398750000000 1.0
C      1  0.3964230000000  0.6246910000000  0.3102580000000 1.0
END
