TITL C-986978-6805-662 -0.00893586882647614 3375 -319.441927942541 0 0 60 (C5) n - 1
REM
REM in /home/bkarasulu/work/CARBON/AIRSS/Generating-Clusters/REBO/Higher-Symm/Only-C60
REM
REM
REM
REM
REM
REM ./C.cell (a2850807a9bf4ad07a5b6933b78d9264)
REM AIRSS Version 0.9.1 bugfix July 2018 build 013d7b7c2542+ Fri, 06 Jul 2018 19:26:36 +0100
REM compiler GCC version 9.2.1 20190827 (Red Hat 9.2.1-1)
REM options -cpp -mtune=generic -march=x86-64 -g -O0 -fpre-include=/usr/include/finclude/math-vector-fortran.h
REM seed -1128555377 -595288440 -1734996911 -370564568 -1091475750 -2125152671 -1668370535 180919484 562940385 -1885154657 -1887046840 1303697655 1872972143 1233871151 -1631711728 -506183623 482154745 1974001194 328827594 -1798749008 -1530674901 481052499 661979394 -975667104 -1415833047 -1115547396 -166833420 -1596399783 -101376017 -1132407721 1808348597 2105441539 1427287741
REM
CELL 1.54180   15.00000   15.00000   15.00000   90.00000   90.00000   90.00000
LATT -1
SFAC C  
C      1  0.4741690000000  0.2737620000000  0.4071860000000 1.0
C      1  0.4037410000000  0.2737680000000  0.4958810000000 1.0
C      1  0.4663260000000  0.2737740000000  0.5902660000000 1.0
C      1  0.5754360000000  0.2737780000000  0.5599090000000 1.0
C      1  0.5802860000000  0.2737690000000  0.4467660000000 1.0
C      1  0.3336590000000  0.6095530000000  0.6182730000000 1.0
C      1  0.5610820000000  0.6095490000000  0.6947410000000 1.0
C      1  0.7040900000000  0.6095480000000  0.5020850000000 1.0
C      1  0.5650570000000  0.6095560000000  0.3065370000000 1.0
C      1  0.3361110000000  0.6095550000000  0.3783420000000 1.0
C      1  0.5846180000000  0.4059150000000  0.5488360000000 1.0
C      1  0.5725880000000  0.4059220000000  0.4346330000000 1.0
C      1  0.4602570000000  0.4059160000000  0.4107850000000 1.0
C      1  0.4028660000000  0.4059070000000  0.5102490000000 1.0
C      1  0.4797250000000  0.4059100000000  0.5955670000000 1.0
C      1  0.4634550000000  0.5166480000000  0.4138490000000 1.0
C      1  0.4067700000000  0.5166530000000  0.5081310000000 1.0
C      1  0.4789180000000  0.5166540000000  0.5911700000000 1.0
C      1  0.5801880000000  0.5166490000000  0.5482160000000 1.0
C      1  0.5706310000000  0.5166480000000  0.4386250000000 1.0
C      1  0.5003310000000  0.6229730000000  0.4001170000000 1.0
C      1  0.4051120000000  0.6229770000000  0.4688190000000 1.0
C      1  0.4410340000000  0.6229540000000  0.5805880000000 1.0
C      1  0.5584190000000  0.6229540000000  0.5809810000000 1.0
C      1  0.5950870000000  0.6229710000000  0.4694530000000 1.0
C      1  0.4599800000000  0.7208580000000  0.3613730000000 1.0
C      1  0.3557890000000  0.7208570000000  0.4952210000000 1.0
C      1  0.4508900000000  0.7208550000000  0.6356740000000 1.0
C      1  0.6138580000000  0.7208530000000  0.5886290000000 1.0
C      1  0.6194750000000  0.7208540000000  0.4191000000000 1.0
C      1  0.3167840000000  0.4161090000000  0.6402170000000 1.0
C      1  0.5767380000000  0.4160950000000  0.7175700000000 1.0
C      1  0.7306410000000  0.4161030000000  0.4942550000000 1.0
C      1  0.5658120000000  0.4161100000000  0.2788720000000 1.0
C      1  0.3100310000000  0.4161110000000  0.3690780000000 1.0
C      1  0.3662740000000  0.3273580000000  0.5890800000000 1.0
C      1  0.5433950000000  0.3273560000000  0.6547120000000 1.0
C      1  0.6605340000000  0.3273620000000  0.5065280000000 1.0
C      1  0.5558090000000  0.3273820000000  0.3493350000000 1.0
C      1  0.3739530000000  0.3273790000000  0.4003570000000 1.0
C      1  0.7336930000000  0.5258590000000  0.5250710000000 1.0
C      1  0.5960700000000  0.5258660000000  0.2854910000000 1.0
C      1  0.3256820000000  0.5258700000000  0.3423440000000 1.0
C      1  0.2962020000000  0.5258610000000  0.6170700000000 1.0
C      1  0.5483680000000  0.5258600000000  0.7299960000000 1.0
C      1  0.2573570000000  0.4489020000000  0.5518080000000 1.0
C      1  0.4742980000000  0.4489010000000  0.7467920000000 1.0
C      1  0.7267830000000  0.4489040000000  0.6007080000000 1.0
C      1  0.6658610000000  0.4489040000000  0.3154510000000 1.0
C      1  0.3757520000000  0.4489030000000  0.2852380000000 1.0
C      1  0.3502640000000  0.7191110000000  0.5935160000000 1.0
C      1  0.5426660000000  0.7191060000000  0.6713020000000 1.0
C      1  0.6760940000000  0.7190980000000  0.5123500000000 1.0
C      1  0.5661600000000  0.7191030000000  0.3363370000000 1.0
C      1  0.3647930000000  0.7191070000000  0.3865020000000 1.0
C      1  0.6462920000000  0.4129560000000  0.6400180000000 1.0
C      1  0.6783600000000  0.4129510000000  0.4041460000000 1.0
C      1  0.4639650000000  0.4129440000000  0.3007650000000 1.0
C      1  0.2993780000000  0.4129420000000  0.4727040000000 1.0
C      1  0.4120410000000  0.4129480000000  0.6823890000000 1.0
END
