TITL C-986975-4297-308 -1.76689238368057e-05 3375 -356.723475801423 0 0 60 (C5) n - 1
REM
REM in /home/bkarasulu/work/CARBON/AIRSS/Generating-Clusters/REBO/Higher-Symm/Only-C60
REM
REM
REM
REM
REM
REM ./C.cell (a2850807a9bf4ad07a5b6933b78d9264)
REM AIRSS Version 0.9.1 bugfix July 2018 build 013d7b7c2542+ Fri, 06 Jul 2018 19:26:36 +0100
REM compiler GCC version 9.2.1 20190827 (Red Hat 9.2.1-1)
REM options -cpp -mtune=generic -march=x86-64 -g -O0 -fpre-include=/usr/include/finclude/math-vector-fortran.h
REM seed 643319973 1405021637 -1816934978 -856530874 -1508528711 1699476999 -969666458 1318562128 -888935421 -248832583 1016480025 -152932659 428654345 1677938638 1298815659 1464357281 -817548377 -973123241 -473770785 1886784620 351776187 2066001859 -1955449257 406299930 1700996599 1814164490 -675038289 1968142081 -447882509 1878455335 -644765869 1507388725 537961237
REM
CELL 1.54180   15.00000   15.00000   15.00000   90.00000   90.00000   90.00000
LATT -1
SFAC C  
C      1  0.5880650000000  0.5305900000000  0.4248930000000 1.0
C      1  0.5880240000000  0.4379630000000  0.4477650000000 1.0
C      1  0.5880140000000  0.4310860000000  0.5429160000000 1.0
C      1  0.5880510000000  0.5194550000000  0.5788720000000 1.0
C      1  0.5880820000000  0.5809650000000  0.5059300000000 1.0
C      1  0.5053810000000  0.7178470000000  0.5665840000000 1.0
C      1  0.5053480000000  0.6306890000000  0.3133580000000 1.0
C      1  0.5053350000000  0.3628810000000  0.3180150000000 1.0
C      1  0.5053590000000  0.2845970000000  0.5741670000000 1.0
C      1  0.5053880000000  0.5039920000000  0.7277390000000 1.0
C      1  0.6779240000000  0.5992930000000  0.6357570000000 1.0
C      1  0.6778740000000  0.6597790000000  0.4475040000000 1.0
C      1  0.6778530000000  0.4994510000000  0.3318510000000 1.0
C      1  0.6778910000000  0.3399250000000  0.4485440000000 1.0
C      1  0.6779350000000  0.4015730000000  0.6363560000000 1.0
C      1  0.4954830000000  0.4070770000000  0.6749490000000 1.0
C      1  0.4954770000000  0.6376890000000  0.6424390000000 1.0
C      1  0.4954760000000  0.6780520000000  0.4130490000000 1.0
C      1  0.4954820000000  0.4723360000000  0.3037800000000 1.0
C      1  0.4954860000000  0.3048690000000  0.4656740000000 1.0
C      1  0.7227560000000  0.4192900000000  0.4756840000000 1.0
C      1  0.7227660000000  0.4519470000000  0.5692570000000 1.0
C      1  0.7227540000000  0.5510390000000  0.5671120000000 1.0
C      1  0.7227370000000  0.5796130000000  0.4722040000000 1.0
C      1  0.7227390000000  0.4981850000000  0.4157070000000 1.0
C      1  0.4015850000000  0.5690820000000  0.5435210000000 1.0
C      1  0.4015850000000  0.5627430000000  0.4477340000000 1.0
C      1  0.4015810000000  0.4696840000000  0.4241630000000 1.0
C      1  0.4015790000000  0.4185120000000  0.5053830000000 1.0
C      1  0.4015810000000  0.4799420000000  0.5791490000000 1.0
C      1  0.5997490000000  0.6648140000000  0.3797410000000 1.0
C      1  0.5997480000000  0.4365450000000  0.3060950000000 1.0
C      1  0.5997540000000  0.2960170000000  0.5003980000000 1.0
C      1  0.5997590000000  0.4373210000000  0.6940890000000 1.0
C      1  0.5997560000000  0.6652480000000  0.6195930000000 1.0
C      1  0.4493120000000  0.5783060000000  0.6877450000000 1.0
C      1  0.4493140000000  0.7027770000000  0.4835320000000 1.0
C      1  0.4493110000000  0.5470000000000  0.3020450000000 1.0
C      1  0.4493080000000  0.3262740000000  0.3941310000000 1.0
C      1  0.4493080000000  0.3456410000000  0.6324880000000 1.0
C      1  0.2763530000000  0.5236550000000  0.5898030000000 1.0
C      1  0.2763560000000  0.5927260000000  0.5052430000000 1.0
C      1  0.2763550000000  0.5336480000000  0.4134210000000 1.0
C      1  0.2763500000000  0.4280640000000  0.4412340000000 1.0
C      1  0.2763490000000  0.4218900000000  0.5502440000000 1.0
C      1  0.3308030000000  0.4575160000000  0.6653300000000 1.0
C      1  0.3308100000000  0.6441160000000  0.5914840000000 1.0
C      1  0.3308120000000  0.6315470000000  0.3911960000000 1.0
C      1  0.3308050000000  0.4371760000000  0.3412580000000 1.0
C      1  0.3308000000000  0.3296200000000  0.5106830000000 1.0
C      1  0.3513560000000  0.5439020000000  0.3257500000000 1.0
C      1  0.3513480000000  0.3478500000000  0.4043900000000 1.0
C      1  0.3513460000000  0.3620580000000  0.6151450000000 1.0
C      1  0.3513530000000  0.5668870000000  0.6667610000000 1.0
C      1  0.3513590000000  0.6792750000000  0.4879070000000 1.0
C      1  0.6013080000000  0.3351440000000  0.6018310000000 1.0
C      1  0.6013920000000  0.5458740000000  0.6883160000000 1.0
C      1  0.6013580000000  0.6932300000000  0.5145580000000 1.0
C      1  0.6012530000000  0.5734860000000  0.3207840000000 1.0
C      1  0.6012230000000  0.3522500000000  0.3747520000000 1.0
END
