TITL C-986975-4297-503 0.00871646493058833 3375 -336.063714883167 0 0 60 (C1) n - 1
REM
REM in /home/bkarasulu/work/CARBON/AIRSS/Generating-Clusters/REBO/Higher-Symm/Only-C60
REM
REM
REM
REM
REM
REM ./C.cell (a2850807a9bf4ad07a5b6933b78d9264)
REM AIRSS Version 0.9.1 bugfix July 2018 build 013d7b7c2542+ Fri, 06 Jul 2018 19:26:36 +0100
REM compiler GCC version 9.2.1 20190827 (Red Hat 9.2.1-1)
REM options -cpp -mtune=generic -march=x86-64 -g -O0 -fpre-include=/usr/include/finclude/math-vector-fortran.h
REM seed 301336629 1360893285 -868765736 -83523635 1536675316 1294992345 -1805780469 1075606445 229730564 -569971123 1767077739 1686039011 -1581924971 -1990390174 292884664 -715014220 576245223 -1800534386 1965779905 796988455 595443519 351225841 -1188705817 -972387270 2147020564 1293396386 -444858795 1448816792 2112051455 883504980 -1718020314 -1203513725 -309973191
REM
CELL 1.54180   15.00000   15.00000   15.00000   90.00000   90.00000   90.00000
LATT -1
SFAC C  
C      1  0.6142750000000  0.6144240000000  0.6277910000000 1.0
C      1  0.6198530000000  0.6127870000000  0.3580100000000 1.0
C      1  0.7623940000000  0.4563250000000  0.3848970000000 1.0
C      1  0.7491210000000  0.4613830000000  0.6101900000000 1.0
C      1  0.4541070000000  0.4419690000000  0.4510390000000 1.0
C      1  0.4341540000000  0.4356750000000  0.5516540000000 1.0
C      1  0.5248730000000  0.7312640000000  0.5484210000000 1.0
C      1  0.5411270000000  0.7334650000000  0.4459370000000 1.0
C      1  0.5010400000000  0.5593910000000  0.5557380000000 1.0
C      1  0.5241840000000  0.5540900000000  0.4448470000000 1.0
C      1  0.2287140000000  0.5554510000000  0.4361080000000 1.0
C      1  0.2207430000000  0.5399960000000  0.5366790000000 1.0
C      1  0.3084640000000  0.4840120000000  0.4537970000000 1.0
C      1  0.2972280000000  0.4704400000000  0.5647950000000 1.0
C      1  0.3667770000000  0.6366120000000  0.4599280000000 1.0
C      1  0.3428750000000  0.6311220000000  0.5706290000000 1.0
C      1  0.5559810000000  0.6822040000000  0.3575830000000 1.0
C      1  0.5526220000000  0.6849250000000  0.6368400000000 1.0
C      1  0.5321190000000  0.3950030000000  0.5475360000000 1.0
C      1  0.5436870000000  0.3929420000000  0.4451930000000 1.0
C      1  0.6668100000000  0.4154360000000  0.4006850000000 1.0
C      1  0.6542800000000  0.4230930000000  0.5925940000000 1.0
C      1  0.4091480000000  0.5368330000000  0.4250500000000 1.0
C      1  0.3955140000000  0.5311040000000  0.5886220000000 1.0
C      1  0.5976340000000  0.5102300000000  0.5469180000000 1.0
C      1  0.6193220000000  0.5078860000000  0.4395840000000 1.0
C      1  0.4810920000000  0.4079990000000  0.7815970000000 1.0
C      1  0.4851270000000  0.3971690000000  0.2134310000000 1.0
C      1  0.7623440000000  0.5415460000000  0.5859150000000 1.0
C      1  0.7746450000000  0.5386480000000  0.4010670000000 1.0
C      1  0.5087510000000  0.3903970000000  0.3036640000000 1.0
C      1  0.5047750000000  0.3945360000000  0.6938470000000 1.0
C      1  0.4844400000000  0.6661200000000  0.2961310000000 1.0
C      1  0.4854360000000  0.6635700000000  0.7032580000000 1.0
C      1  0.3696120000000  0.3664710000000  0.4580960000000 1.0
C      1  0.3568740000000  0.3531470000000  0.5622920000000 1.0
C      1  0.4375080000000  0.3375060000000  0.6402380000000 1.0
C      1  0.4314060000000  0.3461880000000  0.3632470000000 1.0
C      1  0.4709860000000  0.2815280000000  0.4482360000000 1.0
C      1  0.4660020000000  0.2799130000000  0.5443390000000 1.0
C      1  0.4447680000000  0.6529520000000  0.5662570000000 1.0
C      1  0.4757570000000  0.6473470000000  0.4581490000000 1.0
C      1  0.6920390000000  0.5944200000000  0.4349830000000 1.0
C      1  0.6790880000000  0.5901080000000  0.5435210000000 1.0
C      1  0.3549280000000  0.4313780000000  0.3642660000000 1.0
C      1  0.3517430000000  0.4230680000000  0.6530970000000 1.0
C      1  0.6492500000000  0.3321450000000  0.5489540000000 1.0
C      1  0.6577160000000  0.3267520000000  0.4543810000000 1.0
C      1  0.5912310000000  0.5385100000000  0.6810530000000 1.0
C      1  0.5958760000000  0.5334740000000  0.3102990000000 1.0
C      1  0.5780660000000  0.4460820000000  0.6619340000000 1.0
C      1  0.5876030000000  0.4400340000000  0.3295600000000 1.0
C      1  0.2718060000000  0.6356960000000  0.4131090000000 1.0
C      1  0.2422950000000  0.6184480000000  0.5844500000000 1.0
C      1  0.5691850000000  0.2954550000000  0.4097390000000 1.0
C      1  0.5596390000000  0.3013970000000  0.5908630000000 1.0
C      1  0.3988710000000  0.5172610000000  0.6960020000000 1.0
C      1  0.3963400000000  0.5262140000000  0.3171380000000 1.0
C      1  0.4376250000000  0.5903820000000  0.7339170000000 1.0
C      1  0.4301280000000  0.5960760000000  0.2719080000000 1.0
END
