TITL C-986973-6940-459 -0.0147652514365991 3375 -347.092745288584 0 0 60 (C1) n - 1
REM
REM in /home/bkarasulu/work/CARBON/AIRSS/Generating-Clusters/REBO/Higher-Symm/Only-C60
REM
REM
REM
REM
REM
REM ./C.cell (a2850807a9bf4ad07a5b6933b78d9264)
REM AIRSS Version 0.9.1 bugfix July 2018 build 013d7b7c2542+ Fri, 06 Jul 2018 19:26:36 +0100
REM compiler GCC version 9.2.1 20190827 (Red Hat 9.2.1-1)
REM options -cpp -mtune=generic -march=x86-64 -g -O0 -fpre-include=/usr/include/finclude/math-vector-fortran.h
REM seed 2051083452 -685602082 406245446 620294321 206446562 204186652 -719995880 -1154303002 1048779133 -427309374 1666785667 -29878643 1980266538 -2120821499 -111568425 -1766968487 -839852723 2033560847 811165590 649228500 1683895905 -1137085337 -468720904 1638482571 -621313853 2029363561 -196448481 -1207978175 -1852017786 1507128872 178282256 -151739248 -148424797
REM
CELL 1.54180   15.00000   15.00000   15.00000   90.00000   90.00000   90.00000
LATT -1
SFAC C  
C      1  0.4412390000000  0.6574830000000  0.3268480000000 1.0
C      1  0.6297290000000  0.6748490000000  0.3892520000000 1.0
C      1  0.6428020000000  0.6660890000000  0.5946620000000 1.0
C      1  0.4433470000000  0.6498630000000  0.6699070000000 1.0
C      1  0.3344800000000  0.6674170000000  0.5068900000000 1.0
C      1  0.4359950000000  0.3433560000000  0.3300000000000 1.0
C      1  0.6289820000000  0.3422180000000  0.3832200000000 1.0
C      1  0.6475700000000  0.3499310000000  0.5915370000000 1.0
C      1  0.4554670000000  0.3471700000000  0.6853720000000 1.0
C      1  0.3238630000000  0.3388110000000  0.5106900000000 1.0
C      1  0.5984890000000  0.5757190000000  0.5073090000000 1.0
C      1  0.5324210000000  0.5807180000000  0.5846330000000 1.0
C      1  0.4399400000000  0.5937100000000  0.5439560000000 1.0
C      1  0.4476920000000  0.5952410000000  0.4444000000000 1.0
C      1  0.5464220000000  0.5764180000000  0.4209730000000 1.0
C      1  0.5749280000000  0.4113620000000  0.4984620000000 1.0
C      1  0.5129000000000  0.4132330000000  0.5747660000000 1.0
C      1  0.4184180000000  0.4279890000000  0.5380300000000 1.0
C      1  0.4236500000000  0.4281160000000  0.4370520000000 1.0
C      1  0.5224080000000  0.4160790000000  0.4133540000000 1.0
C      1  0.4390480000000  0.4157210000000  0.2658850000000 1.0
C      1  0.6898380000000  0.4241960000000  0.3728960000000 1.0
C      1  0.6745950000000  0.4261140000000  0.6529200000000 1.0
C      1  0.4197280000000  0.4141340000000  0.7598560000000 1.0
C      1  0.2762510000000  0.4236120000000  0.4812880000000 1.0
C      1  0.4435030000000  0.5846960000000  0.2629850000000 1.0
C      1  0.6871420000000  0.5903040000000  0.3782230000000 1.0
C      1  0.6685540000000  0.5882450000000  0.6536470000000 1.0
C      1  0.4065900000000  0.5717230000000  0.7154360000000 1.0
C      1  0.2779900000000  0.5872890000000  0.4814320000000 1.0
C      1  0.5328920000000  0.4452240000000  0.2595020000000 1.0
C      1  0.7429530000000  0.4452830000000  0.4680300000000 1.0
C      1  0.5958560000000  0.4465660000000  0.7263190000000 1.0
C      1  0.3465550000000  0.4204290000000  0.6860400000000 1.0
C      1  0.3044500000000  0.4509300000000  0.3821110000000 1.0
C      1  0.5353940000000  0.5491890000000  0.2587230000000 1.0
C      1  0.7259450000000  0.5577070000000  0.4737750000000 1.0
C      1  0.5862850000000  0.5589010000000  0.7160630000000 1.0
C      1  0.3510530000000  0.5137330000000  0.6565740000000 1.0
C      1  0.2903410000000  0.5633950000000  0.3736060000000 1.0
C      1  0.3551560000000  0.3511980000000  0.4019890000000 1.0
C      1  0.5317550000000  0.3228550000000  0.3618220000000 1.0
C      1  0.6732850000000  0.3573190000000  0.4868830000000 1.0
C      1  0.5585210000000  0.3612900000000  0.6614460000000 1.0
C      1  0.3765870000000  0.3492470000000  0.6037850000000 1.0
C      1  0.3600350000000  0.6499140000000  0.3974280000000 1.0
C      1  0.5287830000000  0.6701290000000  0.3674640000000 1.0
C      1  0.6714480000000  0.6556980000000  0.4931530000000 1.0
C      1  0.5529870000000  0.6538330000000  0.6634770000000 1.0
C      1  0.3945520000000  0.6803800000000  0.5854640000000 1.0
C      1  0.2556430000000  0.5056480000000  0.5275760000000 1.0
C      1  0.3878450000000  0.5013000000000  0.2569830000000 1.0
C      1  0.6847640000000  0.5087760000000  0.3248140000000 1.0
C      1  0.7181310000000  0.5090060000000  0.6315940000000 1.0
C      1  0.4417390000000  0.5075020000000  0.7818180000000 1.0
C      1  0.5346620000000  0.4903620000000  0.6407650000000 1.0
C      1  0.5565200000000  0.4975690000000  0.3577140000000 1.0
C      1  0.6477330000000  0.4849060000000  0.5123430000000 1.0
C      1  0.3820480000000  0.5163120000000  0.5684820000000 1.0
C      1  0.3921010000000  0.5209560000000  0.3983750000000 1.0
END
