TITL C-986974-580-853 0.0010321613041685 3375 -341.563309660842 0 0 60 (C3) n - 1
REM
REM in /home/bkarasulu/work/CARBON/AIRSS/Generating-Clusters/REBO/Higher-Symm/Only-C60
REM
REM
REM
REM
REM
REM ./C.cell (a2850807a9bf4ad07a5b6933b78d9264)
REM AIRSS Version 0.9.1 bugfix July 2018 build 013d7b7c2542+ Fri, 06 Jul 2018 19:26:36 +0100
REM compiler GCC version 9.2.1 20190827 (Red Hat 9.2.1-1)
REM options -cpp -mtune=generic -march=x86-64 -g -O0 -fpre-include=/usr/include/finclude/math-vector-fortran.h
REM seed -1127162527 1330866194 -169946388 1544896866 -1426304846 -1676949006 -647364771 1040181984 -1190788492 746167971 1088840793 2041519489 1323394577 -607308187 615176765 -54624392 -135679791 -1013994045 1732265387 1945325707 2029849788 1138597213 -773713872 1653192477 1635984507 765154714 -40555417 1611132484 1697522847 -547255438 -1644509660 898594005 -1164647035
REM
CELL 1.54180   15.00000   15.00000   15.00000   90.00000   90.00000   90.00000
LATT -1
SFAC C  
C      1  0.6152910000000  0.6439130000000  0.6083310000000 1.0
C      1  0.5669640000000  0.3282220000000  0.6083310000000 1.0
C      1  0.3177310000000  0.5278860000000  0.6083330000000 1.0
C      1  0.2711200000000  0.3974400000000  0.4847240000000 1.0
C      1  0.5256250000000  0.7494830000000  0.4847260000000 1.0
C      1  0.7032320000000  0.3530690000000  0.4847330000000 1.0
C      1  0.2743560000000  0.3710660000000  0.5768950000000 1.0
C      1  0.5011670000000  0.7598820000000  0.5768940000000 1.0
C      1  0.7244660000000  0.3690410000000  0.5769020000000 1.0
C      1  0.6079980000000  0.3036800000000  0.4506800000000 1.0
C      1  0.2760030000000  0.5046140000000  0.4506940000000 1.0
C      1  0.6160090000000  0.6916860000000  0.4506830000000 1.0
C      1  0.4882840000000  0.5971090000000  0.4814770000000 1.0
C      1  0.5899690000000  0.4616010000000  0.4814700000000 1.0
C      1  0.4217710000000  0.4412970000000  0.4814800000000 1.0
C      1  0.6662840000000  0.3682890000000  0.3777480000000 1.0
C      1  0.3027940000000  0.4218440000000  0.3777470000000 1.0
C      1  0.5309200000000  0.7098620000000  0.3777450000000 1.0
C      1  0.5483740000000  0.4150010000000  0.3229790000000 1.0
C      1  0.4022060000000  0.5006080000000  0.3229820000000 1.0
C      1  0.5494230000000  0.5843920000000  0.3229770000000 1.0
C      1  0.4019960000000  0.5880500000000  0.6958230000000 1.0
C      1  0.6252460000000  0.5408470000000  0.6958210000000 1.0
C      1  0.4727430000000  0.3711080000000  0.6958280000000 1.0
C      1  0.3050600000000  0.5374680000000  0.3538250000000 1.0
C      1  0.6299210000000  0.6500900000000  0.3538150000000 1.0
C      1  0.5650200000000  0.3124380000000  0.3538130000000 1.0
C      1  0.4134540000000  0.5935010000000  0.5369510000000 1.0
C      1  0.6242580000000  0.5282100000000  0.5369450000000 1.0
C      1  0.4623170000000  0.3782970000000  0.5369530000000 1.0
C      1  0.3756340000000  0.6261170000000  0.3506500000000 1.0
C      1  0.6714050000000  0.5446460000000  0.3506360000000 1.0
C      1  0.4529610000000  0.3292380000000  0.3506440000000 1.0
C      1  0.5837420000000  0.6184670000000  0.5149080000000 1.0
C      1  0.5607400000000  0.3682590000000  0.5148970000000 1.0
C      1  0.3555470000000  0.5132860000000  0.5149130000000 1.0
C      1  0.5655090000000  0.7295540000000  0.6420440000000 1.0
C      1  0.6660240000000  0.3284830000000  0.6420470000000 1.0
C      1  0.2684520000000  0.4419540000000  0.6420440000000 1.0
C      1  0.4423940000000  0.4678990000000  0.7342470000000 1.0
C      1  0.5009930000000  0.5659390000000  0.7342450000000 1.0
C      1  0.5565990000000  0.4661710000000  0.7342480000000 1.0
C      1  0.4576990000000  0.6804510000000  0.3136230000000 1.0
C      1  0.6774270000000  0.4464030000000  0.3136200000000 1.0
C      1  0.3648760000000  0.3731430000000  0.3136220000000 1.0
C      1  0.5765800000000  0.4931580000000  0.3863630000000 1.0
C      1  0.4557880000000  0.4371050000000  0.3863680000000 1.0
C      1  0.4676400000000  0.5697400000000  0.3863690000000 1.0
C      1  0.4997920000000  0.6327710000000  0.2355730000000 1.0
C      1  0.6150860000000  0.4337850000000  0.2355710000000 1.0
C      1  0.3851200000000  0.4334410000000  0.2355750000000 1.0
C      1  0.6737570000000  0.5184850000000  0.6166520000000 1.0
C      1  0.4291390000000  0.3402790000000  0.6166500000000 1.0
C      1  0.3971100000000  0.6412380000000  0.6166500000000 1.0
C      1  0.4134430000000  0.7344930000000  0.6056330000000 1.0
C      1  0.7463460000000  0.4577040000000  0.6056450000000 1.0
C      1  0.3402120000000  0.3077930000000  0.6056280000000 1.0
C      1  0.5731450000000  0.6392640000000  0.7108700000000 1.0
C      1  0.5840220000000  0.3670200000000  0.7108800000000 1.0
C      1  0.3428150000000  0.4937190000000  0.7108770000000 1.0
END
