TITL C-986975-4297-351 9.45269712109681e-06 3375 -363.332997210262 0 0 60 (C3) n - 1
REM
REM in /home/bkarasulu/work/CARBON/AIRSS/Generating-Clusters/REBO/Higher-Symm/Only-C60
REM
REM
REM
REM
REM
REM ./C.cell (a2850807a9bf4ad07a5b6933b78d9264)
REM AIRSS Version 0.9.1 bugfix July 2018 build 013d7b7c2542+ Fri, 06 Jul 2018 19:26:36 +0100
REM compiler GCC version 9.2.1 20190827 (Red Hat 9.2.1-1)
REM options -cpp -mtune=generic -march=x86-64 -g -O0 -fpre-include=/usr/include/finclude/math-vector-fortran.h
REM seed 1175650583 933112732 425645944 -2127264634 -1729434910 1526556506 -2030385865 445908669 -1252126115 147631604 761647410 -936713453 865748995 384547333 -32338846 1954861842 -1344538608 1278550668 -1176590757 1378604203 -1641419642 -102552108 -1723551067 204785164 506408244 353891771 -1702846490 1932273107 -458784381 -1133758416 -955030098 -494939128 582748993
REM
CELL 1.54180   15.00000   15.00000   15.00000   90.00000   90.00000   90.00000
LATT -1
SFAC C  
C      1  0.6324150000000  0.6872250000000  0.5465680000000 1.0
C      1  0.4741230000000  0.6872210000000  0.3620350000000 1.0
C      1  0.3934590000000  0.6872240000000  0.5913870000000 1.0
C      1  0.6343310000000  0.3143470000000  0.5407000000000 1.0
C      1  0.4680800000000  0.3143430000000  0.3633210000000 1.0
C      1  0.3975920000000  0.3143460000000  0.5959880000000 1.0
C      1  0.6178250000000  0.6408300000000  0.2862530000000 1.0
C      1  0.2559780000000  0.6408320000000  0.5048300000000 1.0
C      1  0.6261960000000  0.6408380000000  0.7089110000000 1.0
C      1  0.6079060000000  0.3557560000000  0.2815770000000 1.0
C      1  0.2568860000000  0.3557580000000  0.5157660000000 1.0
C      1  0.6352100000000  0.3557630000000  0.7026640000000 1.0
C      1  0.7425370000000  0.5556110000000  0.5363740000000 1.0
C      1  0.4102330000000  0.5556050000000  0.2717670000000 1.0
C      1  0.3472290000000  0.5556120000000  0.6918550000000 1.0
C      1  0.7385860000000  0.4535260000000  0.5273560000000 1.0
C      1  0.4043970000000  0.4535200000000  0.2797010000000 1.0
C      1  0.3570160000000  0.4535270000000  0.6929450000000 1.0
C      1  0.5854280000000  0.6947750000000  0.6356630000000 1.0
C      1  0.5747740000000  0.6947700000000  0.3581810000000 1.0
C      1  0.3397950000000  0.6947710000000  0.5061470000000 1.0
C      1  0.5912340000000  0.3034700000000  0.6309160000000 1.0
C      1  0.5677580000000  0.3034650000000  0.3555370000000 1.0
C      1  0.3410110000000  0.3034660000000  0.5135570000000 1.0
C      1  0.4946710000000  0.5961310000000  0.3058220000000 1.0
C      1  0.3345030000000  0.5961350000000  0.6017010000000 1.0
C      1  0.6708250000000  0.5961370000000  0.5924720000000 1.0
C      1  0.4889560000000  0.4079160000000  0.3086360000000 1.0
C      1  0.3397950000000  0.4079200000000  0.6052480000000 1.0
C      1  0.6712500000000  0.4079220000000  0.5861200000000 1.0
C      1  0.3661420000000  0.5466750000000  0.5078360000000 1.0
C      1  0.5737170000000  0.5466780000000  0.6120070000000 1.0
C      1  0.5601410000000  0.5466740000000  0.3801550000000 1.0
C      1  0.3663090000000  0.4545350000000  0.5095580000000 1.0
C      1  0.5751230000000  0.4545370000000  0.6110040000000 1.0
C      1  0.5585690000000  0.4545330000000  0.3794410000000 1.0
C      1  0.6762020000000  0.5474410000000  0.6960450000000 1.0
C      1  0.5816790000000  0.5474330000000  0.2493820000000 1.0
C      1  0.2421190000000  0.5474360000000  0.5545710000000 1.0
C      1  0.6796080000000  0.4509020000000  0.6924680000000 1.0
C      1  0.5768780000000  0.4508940000000  0.2482230000000 1.0
C      1  0.2435160000000  0.4508980000000  0.5593110000000 1.0
C      1  0.4457310000000  0.5483890000000  0.7194830000000 1.0
C      1  0.7172110000000  0.5483860000000  0.4372550000000 1.0
C      1  0.3370550000000  0.5483820000000  0.3432600000000 1.0
C      1  0.4543430000000  0.4459850000000  0.7254780000000 1.0
C      1  0.7180960000000  0.4459810000000  0.4268030000000 1.0
C      1  0.3275610000000  0.4459780000000  0.3477220000000 1.0
C      1  0.5135770000000  0.4060610000000  0.6637510000000 1.0
C      1  0.6350220000000  0.4060580000000  0.4063700000000 1.0
C      1  0.3514020000000  0.4060560000000  0.4298840000000 1.0
C      1  0.5061160000000  0.5912060000000  0.6605540000000 1.0
C      1  0.6359850000000  0.5912020000000  0.4144250000000 1.0
C      1  0.3578980000000  0.5912010000000  0.4250180000000 1.0
C      1  0.4862750000000  0.3148470000000  0.6277540000000 1.0
C      1  0.6174980000000  0.3148450000000  0.4480150000000 1.0
C      1  0.3962290000000  0.3148430000000  0.4242410000000 1.0
C      1  0.4806550000000  0.6843940000000  0.6271830000000 1.0
C      1  0.6198160000000  0.6843920000000  0.4531570000000 1.0
C      1  0.3995250000000  0.6843900000000  0.4196520000000 1.0
END
