TITL C-986974-580-946 -0.0493085501726559 3375 -337.451873022727 0 0 60 (C1) n - 1
REM
REM in /home/bkarasulu/work/CARBON/AIRSS/Generating-Clusters/REBO/Higher-Symm/Only-C60
REM
REM
REM
REM
REM
REM ./C.cell (a2850807a9bf4ad07a5b6933b78d9264)
REM AIRSS Version 0.9.1 bugfix July 2018 build 013d7b7c2542+ Fri, 06 Jul 2018 19:26:36 +0100
REM compiler GCC version 9.2.1 20190827 (Red Hat 9.2.1-1)
REM options -cpp -mtune=generic -march=x86-64 -g -O0 -fpre-include=/usr/include/finclude/math-vector-fortran.h
REM seed 883944694 1211478198 -356349264 915231345 65623253 -306364411 1919944346 538065228 -1382176447 889749653 2090918880 1186279744 329769978 -1524589827 -215022106 -1276104 -505373795 -247377182 -93146857 1969406665 1416019651 -1819258993 -27837880 1343968909 -1270375592 630599045 707365135 1767273711 -1098507822 -743663751 593836964 -1645471835 -1625037469
REM
CELL 1.54180   15.00000   15.00000   15.00000   90.00000   90.00000   90.00000
LATT -1
SFAC C  
C      1  0.2643470000000  0.4565400000000  0.4919280000000 1.0
C      1  0.5819380000000  0.7277270000000  0.4828950000000 1.0
C      1  0.6653760000000  0.3193510000000  0.4895130000000 1.0
C      1  0.4145800000000  0.5376870000000  0.2883580000000 1.0
C      1  0.5775140000000  0.5552400000000  0.2787440000000 1.0
C      1  0.5104570000000  0.4067780000000  0.2917760000000 1.0
C      1  0.5371860000000  0.4319950000000  0.6539420000000 1.0
C      1  0.4201660000000  0.5016770000000  0.6554860000000 1.0
C      1  0.5292120000000  0.5545590000000  0.6225080000000 1.0
C      1  0.4522320000000  0.6664640000000  0.4060190000000 1.0
C      1  0.6624790000000  0.4630640000000  0.4148700000000 1.0
C      1  0.3883980000000  0.3844230000000  0.4207800000000 1.0
C      1  0.5208730000000  0.4300530000000  0.7655560000000 1.0
C      1  0.4258970000000  0.4893260000000  0.7709450000000 1.0
C      1  0.5210590000000  0.5376450000000  0.7345590000000 1.0
C      1  0.5876360000000  0.4594590000000  0.2735620000000 1.0
C      1  0.4227480000000  0.4433780000000  0.2781600000000 1.0
C      1  0.4903080000000  0.5940090000000  0.2701720000000 1.0
C      1  0.3666790000000  0.5680780000000  0.3781520000000 1.0
C      1  0.6339890000000  0.5887430000000  0.3681910000000 1.0
C      1  0.5140400000000  0.3595260000000  0.3850540000000 1.0
C      1  0.3613560000000  0.3947700000000  0.3314580000000 1.0
C      1  0.4779860000000  0.6759390000000  0.3163640000000 1.0
C      1  0.6624500000000  0.4331200000000  0.3256800000000 1.0
C      1  0.3272160000000  0.4773640000000  0.7216120000000 1.0
C      1  0.5317830000000  0.6390210000000  0.7004470000000 1.0
C      1  0.5947660000000  0.3582570000000  0.7221170000000 1.0
C      1  0.5330040000000  0.4269500000000  0.5404440000000 1.0
C      1  0.4239190000000  0.5184040000000  0.5433800000000 1.0
C      1  0.5486080000000  0.5580610000000  0.5199140000000 1.0
C      1  0.5590000000000  0.2895640000000  0.4623500000000 1.0
C      1  0.2925130000000  0.5633550000000  0.4642380000000 1.0
C      1  0.6643560000000  0.6543270000000  0.4558210000000 1.0
C      1  0.6476620000000  0.6355420000000  0.5613100000000 1.0
C      1  0.5479660000000  0.2987480000000  0.5693420000000 1.0
C      1  0.3010160000000  0.5568300000000  0.5716000000000 1.0
C      1  0.3896860000000  0.6156240000000  0.5938870000000 1.0
C      1  0.6482340000000  0.5305300000000  0.5693370000000 1.0
C      1  0.4580840000000  0.3526800000000  0.5822420000000 1.0
C      1  0.3832020000000  0.4001660000000  0.6120460000000 1.0
C      1  0.4632450000000  0.6693590000000  0.6150180000000 1.0
C      1  0.6432560000000  0.4473290000000  0.6121360000000 1.0
C      1  0.3999780000000  0.7451350000000  0.4990130000000 1.0
C      1  0.7751580000000  0.4687470000000  0.4843810000000 1.0
C      1  0.3429930000000  0.2869730000000  0.4981690000000 1.0
C      1  0.5043260000000  0.4459830000000  0.4422080000000 1.0
C      1  0.4463840000000  0.5374750000000  0.4373350000000 1.0
C      1  0.5528130000000  0.5379340000000  0.4081640000000 1.0
C      1  0.5182040000000  0.6487530000000  0.4715090000000 1.0
C      1  0.6251210000000  0.4128390000000  0.4851880000000 1.0
C      1  0.3658450000000  0.4456220000000  0.4881970000000 1.0
C      1  0.5759960000000  0.6779620000000  0.6057140000000 1.0
C      1  0.6226080000000  0.3360620000000  0.6212730000000 1.0
C      1  0.2958920000000  0.4720200000000  0.6200580000000 1.0
C      1  0.4454400000000  0.2945260000000  0.4493900000000 1.0
C      1  0.3491020000000  0.6601730000000  0.4432950000000 1.0
C      1  0.7177890000000  0.5550970000000  0.4378820000000 1.0
C      1  0.7531830000000  0.3782580000000  0.4919750000000 1.0
C      1  0.2740510000000  0.3504970000000  0.5010430000000 1.0
C      1  0.4886960000000  0.7742860000000  0.5032920000000 1.0
END
