TITL C-986976-6631-130 -6.11133508556486e-06 3375 -337.77642852761 0 0 60 (C2) n - 1
REM
REM in /home/bkarasulu/work/CARBON/AIRSS/Generating-Clusters/REBO/Higher-Symm/Only-C60
REM
REM
REM
REM
REM
REM ./C.cell (a2850807a9bf4ad07a5b6933b78d9264)
REM AIRSS Version 0.9.1 bugfix July 2018 build 013d7b7c2542+ Fri, 06 Jul 2018 19:26:36 +0100
REM compiler GCC version 9.2.1 20190827 (Red Hat 9.2.1-1)
REM options -cpp -mtune=generic -march=x86-64 -g -O0 -fpre-include=/usr/include/finclude/math-vector-fortran.h
REM seed 754254417 1577835680 -1121230890 -771426888 768128872 -763517105 -506769929 1443435200 756916323 -1703044357 -1653565708 1598409855 -284802108 -1760662835 1616317821 1217286400 261912999 1833673254 -109734539 390748510 -565391780 -1540177086 1824556757 -1222315518 -2020801829 -1025369023 -293134007 -755746304 476486626 -1074085878 -422481315 -2037405717 -794840616
REM
CELL 1.54180   15.00000   15.00000   15.00000   90.00000   90.00000   90.00000
LATT -1
SFAC C  
C      1  0.3637000000000  0.3009990000000  0.4289920000000 1.0
C      1  0.3637040000000  0.6579320000000  0.3632920000000 1.0
C      1  0.3651200000000  0.5407030000000  0.7060560000000 1.0
C      1  0.6363000000000  0.6990010000000  0.4289920000000 1.0
C      1  0.6362960000000  0.3420680000000  0.3632920000000 1.0
C      1  0.6348800000000  0.4592970000000  0.7060560000000 1.0
C      1  0.6956400000000  0.3857490000000  0.5878320000000 1.0
C      1  0.6988410000000  0.4862640000000  0.3588230000000 1.0
C      1  0.7008440000000  0.6292960000000  0.5558250000000 1.0
C      1  0.3043600000000  0.6142510000000  0.5878320000000 1.0
C      1  0.3011590000000  0.5137360000000  0.3588230000000 1.0
C      1  0.2991560000000  0.3707040000000  0.5558250000000 1.0
C      1  0.4508200000000  0.3184930000000  0.5733080000000 1.0
C      1  0.4534810000000  0.5268000000000  0.3052570000000 1.0
C      1  0.4570060000000  0.6538360000000  0.6200050000000 1.0
C      1  0.5491800000000  0.6815070000000  0.5733080000000 1.0
C      1  0.5465180000000  0.4732000000000  0.3052570000000 1.0
C      1  0.5429940000000  0.3461640000000  0.6200050000000 1.0
C      1  0.5636360000000  0.3687910000000  0.3101130000000 1.0
C      1  0.5639100000000  0.7299740000000  0.4802510000000 1.0
C      1  0.5611980000000  0.4010700000000  0.7083660000000 1.0
C      1  0.4363640000000  0.6312090000000  0.3101130000000 1.0
C      1  0.4360900000000  0.2700260000000  0.4802510000000 1.0
C      1  0.4388020000000  0.5989300000000  0.7083660000000 1.0
C      1  0.6311010000000  0.3201090000000  0.5717900000000 1.0
C      1  0.6339880000000  0.5294600000000  0.3072400000000 1.0
C      1  0.6372210000000  0.6527290000000  0.6207300000000 1.0
C      1  0.3688990000000  0.6798910000000  0.5717900000000 1.0
C      1  0.3660120000000  0.4705400000000  0.3072400000000 1.0
C      1  0.3627790000000  0.3472710000000  0.6207300000000 1.0
C      1  0.3102740000000  0.4227920000000  0.4804090000000 1.0
C      1  0.3090200000000  0.5507130000000  0.4428790000000 1.0
C      1  0.3132460000000  0.5226730000000  0.5837810000000 1.0
C      1  0.6897260000000  0.5772080000000  0.4804090000000 1.0
C      1  0.6909800000000  0.4492870000000  0.4428790000000 1.0
C      1  0.6867540000000  0.4773270000000  0.5837810000000 1.0
C      1  0.5320810000000  0.6017650000000  0.4935050000000 1.0
C      1  0.5359740000000  0.4554710000000  0.5898230000000 1.0
C      1  0.5361500000000  0.4454000000000  0.4150610000000 1.0
C      1  0.4679190000000  0.3982350000000  0.4935050000000 1.0
C      1  0.4640260000000  0.5445290000000  0.5898230000000 1.0
C      1  0.4638500000000  0.5546000000000  0.4150610000000 1.0
C      1  0.4864970000000  0.4535540000000  0.7302760000000 1.0
C      1  0.4880540000000  0.3242000000000  0.3441040000000 1.0
C      1  0.4873910000000  0.7213500000000  0.4259190000000 1.0
C      1  0.5135030000000  0.5464460000000  0.7302760000000 1.0
C      1  0.5119460000000  0.6758000000000  0.3441040000000 1.0
C      1  0.5126090000000  0.2786500000000  0.4259190000000 1.0
C      1  0.3928260000000  0.4358640000000  0.6780150000000 1.0
C      1  0.3947010000000  0.3769610000000  0.3529260000000 1.0
C      1  0.3945070000000  0.6850610000000  0.4671880000000 1.0
C      1  0.6071740000000  0.5641360000000  0.6780160000000 1.0
C      1  0.6052990000000  0.6230390000000  0.3529260000000 1.0
C      1  0.6054930000000  0.3149390000000  0.4671880000000 1.0
C      1  0.5981500000000  0.4254600000000  0.4993170000000 1.0
C      1  0.5952140000000  0.5410240000000  0.4329010000000 1.0
C      1  0.5948030000000  0.5407560000000  0.5660170000000 1.0
C      1  0.4018500000000  0.5745400000000  0.4993170000000 1.0
C      1  0.4047860000000  0.4589760000000  0.4329010000000 1.0
C      1  0.4051970000000  0.4592440000000  0.5660170000000 1.0
END
