TITL C-986976-6631-51 -0.00628197664556728 3375 -359.13399870823 0 0 60 (C3) n - 1
REM
REM in /home/bkarasulu/work/CARBON/AIRSS/Generating-Clusters/REBO/Higher-Symm/Only-C60
REM
REM
REM
REM
REM
REM ./C.cell (a2850807a9bf4ad07a5b6933b78d9264)
REM AIRSS Version 0.9.1 bugfix July 2018 build 013d7b7c2542+ Fri, 06 Jul 2018 19:26:36 +0100
REM compiler GCC version 9.2.1 20190827 (Red Hat 9.2.1-1)
REM options -cpp -mtune=generic -march=x86-64 -g -O0 -fpre-include=/usr/include/finclude/math-vector-fortran.h
REM seed 382674079 -459674483 -2049400067 1735639594 1094000177 1517254045 906630065 -786460222 -1239926409 -511533821 -1228987506 872449766 -1673424604 -1283411690 -1963902047 -1356793339 1049697070 -200474492 -1120528368 -1351228629 -1230349656 670908906 686626870 1280837448 -1362958054 -2101462981 -2124263581 736672574 -264496745 -95429246 -1568563002 809884612 1967522290
REM
CELL 1.54180   15.00000   15.00000   15.00000   90.00000   90.00000   90.00000
LATT -1
SFAC C  
C      1  0.2903140000000  0.6097400000000  0.6156230000000 1.0
C      1  0.7049720000000  0.6099660000000  0.6240070000000 1.0
C      1  0.5046620000000  0.6095830000000  0.2606780000000 1.0
C      1  0.4069860000000  0.5342040000000  0.6398510000000 1.0
C      1  0.6677110000000  0.5341390000000  0.5105480000000 1.0
C      1  0.4253700000000  0.5341470000000  0.3494320000000 1.0
C      1  0.5384090000000  0.4497770000000  0.5836750000000 1.0
C      1  0.5533020000000  0.4496200000000  0.4247530000000 1.0
C      1  0.4082650000000  0.4497650000000  0.4913480000000 1.0
C      1  0.4829230000000  0.5387090000000  0.5628720000000 1.0
C      1  0.5630450000000  0.5386990000000  0.4833180000000 1.0
C      1  0.4540640000000  0.5386940000000  0.4537230000000 1.0
C      1  0.3640130000000  0.6626080000000  0.6320160000000 1.0
C      1  0.6823110000000  0.6626740000000  0.5518830000000 1.0
C      1  0.4536780000000  0.6624640000000  0.3163470000000 1.0
C      1  0.6220620000000  0.6188100000000  0.3698730000000 1.0
C      1  0.3263130000000  0.6188880000000  0.4593970000000 1.0
C      1  0.5516290000000  0.6190100000000  0.6708690000000 1.0
C      1  0.6342020000000  0.3604300000000  0.6075980000000 1.0
C      1  0.5260960000000  0.3604420000000  0.3300610000000 1.0
C      1  0.3396970000000  0.3604150000000  0.5623930000000 1.0
C      1  0.3854590000000  0.3799370000000  0.4128500000000 1.0
C      1  0.4818130000000  0.3799840000000  0.6426960000000 1.0
C      1  0.6327380000000  0.3798970000000  0.4443410000000 1.0
C      1  0.2451750000000  0.4872950000000  0.4957300000000 1.0
C      1  0.6236990000000  0.4873770000000  0.7228240000000 1.0
C      1  0.6310970000000  0.4871970000000  0.2814270000000 1.0
C      1  0.5327400000000  0.4830230000000  0.7558220000000 1.0
C      1  0.7052150000000  0.4829030000000  0.3436380000000 1.0
C      1  0.2620510000000  0.4830040000000  0.4004500000000 1.0
C      1  0.5870980000000  0.4022640000000  0.2697540000000 1.0
C      1  0.2570690000000  0.4023530000000  0.5396570000000 1.0
C      1  0.6558160000000  0.4024650000000  0.6904860000000 1.0
C      1  0.4930370000000  0.4014680000000  0.7417240000000 1.0
C      1  0.7128920000000  0.4013620000000  0.3850970000000 1.0
C      1  0.2940940000000  0.4014610000000  0.3730480000000 1.0
C      1  0.4047530000000  0.4373800000000  0.5984590000000 1.0
C      1  0.6329360000000  0.4373270000000  0.5331650000000 1.0
C      1  0.4623580000000  0.4372900000000  0.3682440000000 1.0
C      1  0.7664580000000  0.5750750000000  0.4976490000000 1.0
C      1  0.3647060000000  0.5748890000000  0.2703920000000 1.0
C      1  0.3687070000000  0.5748780000000  0.7319100000000 1.0
C      1  0.5867790000000  0.5739510000000  0.2911550000000 1.0
C      1  0.2757280000000  0.5740530000000  0.5292740000000 1.0
C      1  0.6374620000000  0.5742100000000  0.6797560000000 1.0
C      1  0.4339320000000  0.6756290000000  0.5692220000000 1.0
C      1  0.5929590000000  0.6755950000000  0.5226820000000 1.0
C      1  0.4731690000000  0.6755280000000  0.4082660000000 1.0
C      1  0.4066460000000  0.2881240000000  0.5363610000000 1.0
C      1  0.5781500000000  0.2881300000000  0.5626300000000 1.0
C      1  0.5151400000000  0.2880690000000  0.4009790000000 1.0
C      1  0.4072920000000  0.6663640000000  0.4770010000000 1.0
C      1  0.5264040000000  0.6664440000000  0.5918940000000 1.0
C      1  0.5663770000000  0.6662930000000  0.4312650000000 1.0
C      1  0.5880630000000  0.2914710000000  0.4653240000000 1.0
C      1  0.4259210000000  0.2914820000000  0.4410320000000 1.0
C      1  0.4859570000000  0.2915170000000  0.5935860000000 1.0
C      1  0.6996270000000  0.5637770000000  0.4066230000000 1.0
C      1  0.3194650000000  0.5638570000000  0.3738350000000 1.0
C      1  0.4809960000000  0.5638870000000  0.7194870000000 1.0
END
