TITL C-986979-5873-466 0.0121369238709869 3375 -338.206708613578 0 0 60 (C2) n - 1
REM
REM in /home/bkarasulu/work/CARBON/AIRSS/Generating-Clusters/REBO/Higher-Symm/Only-C60
REM
REM
REM
REM
REM
REM ./C.cell (a2850807a9bf4ad07a5b6933b78d9264)
REM AIRSS Version 0.9.1 bugfix July 2018 build 013d7b7c2542+ Fri, 06 Jul 2018 19:26:36 +0100
REM compiler GCC version 9.2.1 20190827 (Red Hat 9.2.1-1)
REM options -cpp -mtune=generic -march=x86-64 -g -O0 -fpre-include=/usr/include/finclude/math-vector-fortran.h
REM seed -1566717496 1482279378 1242645776 -1080700192 470029955 535663640 1996049265 1268822788 -786057907 -401957477 846849392 -1637974890 -360730016 224938305 1344690230 513257308 367564487 -657540565 197246460 -957224498 -1314969033 -1164297543 -2019814364 -684308047 -1521578601 570175322 48058728 1082285879 1241179088 -584224506 124804876 -1110214212 1003479526
REM
CELL 1.54180   15.00000   15.00000   15.00000   90.00000   90.00000   90.00000
LATT -1
SFAC C  
C      1  0.6119040000000  0.5496620000000  0.3348270000000 1.0
C      1  0.3880300000000  0.4502110000000  0.3348080000000 1.0
C      1  0.6115900000000  0.4500850000000  0.3353910000000 1.0
C      1  0.3883800000000  0.5497870000000  0.3354960000000 1.0
C      1  0.6788910000000  0.6005690000000  0.5936740000000 1.0
C      1  0.3210660000000  0.3994530000000  0.5936860000000 1.0
C      1  0.6766560000000  0.3953810000000  0.5952910000000 1.0
C      1  0.3234200000000  0.6046210000000  0.5952930000000 1.0
C      1  0.4489790000000  0.2428130000000  0.5143880000000 1.0
C      1  0.5510260000000  0.7572370000000  0.5142860000000 1.0
C      1  0.4492230000000  0.7576360000000  0.5146360000000 1.0
C      1  0.5507550000000  0.2424740000000  0.5147110000000 1.0
C      1  0.4424360000000  0.7039150000000  0.6032320000000 1.0
C      1  0.5574890000000  0.2963910000000  0.6030840000000 1.0
C      1  0.4394640000000  0.2960700000000  0.6027740000000 1.0
C      1  0.5603440000000  0.7040720000000  0.6028570000000 1.0
C      1  0.7018380000000  0.4424420000000  0.5015900000000 1.0
C      1  0.2981280000000  0.5575910000000  0.5017640000000 1.0
C      1  0.7080220000000  0.5538520000000  0.4995210000000 1.0
C      1  0.2921030000000  0.4464560000000  0.4993090000000 1.0
C      1  0.5949150000000  0.5540880000000  0.5015380000000 1.0
C      1  0.4052020000000  0.4459770000000  0.5013650000000 1.0
C      1  0.5922340000000  0.4453120000000  0.5017540000000 1.0
C      1  0.4076640000000  0.5548110000000  0.5020050000000 1.0
C      1  0.3702350000000  0.3505350000000  0.3472100000000 1.0
C      1  0.6297260000000  0.6493150000000  0.3472180000000 1.0
C      1  0.3703230000000  0.6492490000000  0.3482520000000 1.0
C      1  0.6297050000000  0.3506330000000  0.3482270000000 1.0
C      1  0.5465650000000  0.5685700000000  0.4119230000000 1.0
C      1  0.4533690000000  0.4313320000000  0.4118790000000 1.0
C      1  0.5454380000000  0.4310010000000  0.4120130000000 1.0
C      1  0.4544850000000  0.5688510000000  0.4121440000000 1.0
C      1  0.3724550000000  0.5503870000000  0.6596270000000 1.0
C      1  0.6276400000000  0.4494810000000  0.6597800000000 1.0
C      1  0.3716020000000  0.4514450000000  0.6589520000000 1.0
C      1  0.6283920000000  0.5484460000000  0.6589930000000 1.0
C      1  0.5467340000000  0.5831680000000  0.7007550000000 1.0
C      1  0.4532680000000  0.4166950000000  0.7007170000000 1.0
C      1  0.5455900000000  0.4163710000000  0.7014850000000 1.0
C      1  0.4544220000000  0.5834670000000  0.7014730000000 1.0
C      1  0.3850900000000  0.7147910000000  0.4403240000000 1.0
C      1  0.6149650000000  0.2851700000000  0.4403600000000 1.0
C      1  0.3850190000000  0.2862700000000  0.4401720000000 1.0
C      1  0.6149310000000  0.7136420000000  0.4401360000000 1.0
C      1  0.7988840000000  0.5548870000000  0.4324140000000 1.0
C      1  0.2011380000000  0.4452230000000  0.4321890000000 1.0
C      1  0.7863880000000  0.4635910000000  0.4406510000000 1.0
C      1  0.2136140000000  0.5366130000000  0.4408250000000 1.0
C      1  0.3325870000000  0.3234200000000  0.5295790000000 1.0
C      1  0.6674370000000  0.6763480000000  0.5296650000000 1.0
C      1  0.3325530000000  0.6821110000000  0.5323690000000 1.0
C      1  0.6675400000000  0.3179900000000  0.5323620000000 1.0
C      1  0.4550330000000  0.2872980000000  0.3524700000000 1.0
C      1  0.5449700000000  0.7126120000000  0.3524360000000 1.0
C      1  0.4549970000000  0.7127270000000  0.3525730000000 1.0
C      1  0.5450100000000  0.2871830000000  0.3526130000000 1.0
C      1  0.4537020000000  0.6068620000000  0.5705770000000 1.0
C      1  0.5463640000000  0.3934170000000  0.5705100000000 1.0
C      1  0.4512860000000  0.3928930000000  0.5698940000000 1.0
C      1  0.5487830000000  0.6071010000000  0.5699540000000 1.0
END
