TITL C-986978-6805-794 9.39727820163215e-06 3375 -348.216914565951 0 0 60 (C1) n - 1
REM
REM in /home/bkarasulu/work/CARBON/AIRSS/Generating-Clusters/REBO/Higher-Symm/Only-C60
REM
REM
REM
REM
REM
REM ./C.cell (a2850807a9bf4ad07a5b6933b78d9264)
REM AIRSS Version 0.9.1 bugfix July 2018 build 013d7b7c2542+ Fri, 06 Jul 2018 19:26:36 +0100
REM compiler GCC version 9.2.1 20190827 (Red Hat 9.2.1-1)
REM options -cpp -mtune=generic -march=x86-64 -g -O0 -fpre-include=/usr/include/finclude/math-vector-fortran.h
REM seed 420919450 -1709637983 437759827 -303266416 -1560024571 -1534669207 -202615787 1690453191 -1159491662 -751432273 -1381317684 -781471713 -1263237681 1987060640 -1983035570 -1307452601 -301285442 1279654468 -1939527997 -1365977491 -240460936 648197950 -272512562 -948682696 230788382 -2115924736 784023700 453143260 1686559837 1641070766 1305968658 275679097 1992847771
REM
CELL 1.54180   15.00000   15.00000   15.00000   90.00000   90.00000   90.00000
LATT -1
SFAC C  
C      1  0.5953420000000  0.3487830000000  0.4883160000000 1.0
C      1  0.3743640000000  0.6240690000000  0.5964410000000 1.0
C      1  0.6623120000000  0.6643640000000  0.5201100000000 1.0
C      1  0.5109620000000  0.5716150000000  0.5768070000000 1.0
C      1  0.5477440000000  0.4666520000000  0.5730030000000 1.0
C      1  0.5215220000000  0.3462790000000  0.7183510000000 1.0
C      1  0.4476900000000  0.4453550000000  0.4521850000000 1.0
C      1  0.4902700000000  0.4463240000000  0.7603030000000 1.0
C      1  0.4542470000000  0.6093350000000  0.6676060000000 1.0
C      1  0.4125640000000  0.3561250000000  0.7007380000000 1.0
C      1  0.3027130000000  0.4842560000000  0.3902880000000 1.0
C      1  0.4381580000000  0.5037830000000  0.2950480000000 1.0
C      1  0.3170890000000  0.6808340000000  0.3902150000000 1.0
C      1  0.3765450000000  0.6977160000000  0.5361540000000 1.0
C      1  0.3425900000000  0.5348340000000  0.5517110000000 1.0
C      1  0.6717710000000  0.5459280000000  0.6382710000000 1.0
C      1  0.3978130000000  0.6435060000000  0.3676360000000 1.0
C      1  0.5917580000000  0.5102030000000  0.4907460000000 1.0
C      1  0.4906330000000  0.2493080000000  0.5577670000000 1.0
C      1  0.5103350000000  0.5699000000000  0.2816270000000 1.0
C      1  0.6973200000000  0.4320650000000  0.4686010000000 1.0
C      1  0.6073500000000  0.4113020000000  0.4028280000000 1.0
C      1  0.6229880000000  0.4472640000000  0.6416150000000 1.0
C      1  0.3051190000000  0.7109380000000  0.4757400000000 1.0
C      1  0.3535840000000  0.4068550000000  0.4191450000000 1.0
C      1  0.4889820000000  0.3729980000000  0.5099920000000 1.0
C      1  0.5119140000000  0.6808250000000  0.4255050000000 1.0
C      1  0.3587260000000  0.3151430000000  0.4500450000000 1.0
C      1  0.4647510000000  0.7270240000000  0.5094220000000 1.0
C      1  0.4727810000000  0.5740660000000  0.4179250000000 1.0
C      1  0.6867560000000  0.5784720000000  0.3366970000000 1.0
C      1  0.5016550000000  0.2707300000000  0.3889260000000 1.0
C      1  0.5519150000000  0.5097060000000  0.3930690000000 1.0
C      1  0.6041040000000  0.5404770000000  0.3054670000000 1.0
C      1  0.7153770000000  0.4620590000000  0.5764050000000 1.0
C      1  0.6157390000000  0.6894540000000  0.4314880000000 1.0
C      1  0.5309170000000  0.3550640000000  0.3489050000000 1.0
C      1  0.4037520000000  0.3119390000000  0.5466780000000 1.0
C      1  0.6718670000000  0.3592980000000  0.5562540000000 1.0
C      1  0.6154600000000  0.3420410000000  0.6537060000000 1.0
C      1  0.2649950000000  0.5244850000000  0.4692160000000 1.0
C      1  0.2330050000000  0.4610910000000  0.5429270000000 1.0
C      1  0.7319660000000  0.7205650000000  0.5449620000000 1.0
C      1  0.3622460000000  0.3613640000000  0.6246470000000 1.0
C      1  0.3121800000000  0.4376380000000  0.6029620000000 1.0
C      1  0.6123670000000  0.6170980000000  0.5993520000000 1.0
C      1  0.6698010000000  0.6714290000000  0.3583890000000 1.0
C      1  0.7234270000000  0.5283980000000  0.4131790000000 1.0
C      1  0.5363120000000  0.2658320000000  0.6397430000000 1.0
C      1  0.5435200000000  0.2570360000000  0.4764130000000 1.0
C      1  0.4863550000000  0.6576330000000  0.3161420000000 1.0
C      1  0.5383770000000  0.6810000000000  0.6447430000000 1.0
C      1  0.4621120000000  0.4250910000000  0.3447380000000 1.0
C      1  0.4064560000000  0.2571320000000  0.3902540000000 1.0
C      1  0.6741200000000  0.5599900000000  0.4960770000000 1.0
C      1  0.4525650000000  0.5048530000000  0.6993180000000 1.0
C      1  0.4384490000000  0.5352490000000  0.5075380000000 1.0
C      1  0.3459300000000  0.5279660000000  0.3150790000000 1.0
C      1  0.5171880000000  0.7493540000000  0.5859600000000 1.0
C      1  0.4511500000000  0.4599060000000  0.6166250000000 1.0
END
