TITL C-986976-6631-1196 2.59645654920852e-05 3375 -340.755253275655 0 0 60 (D4) n - 1
REM
REM in /home/bkarasulu/work/CARBON/AIRSS/Generating-Clusters/REBO/Higher-Symm/Only-C60
REM
REM
REM
REM
REM
REM ./C.cell (a2850807a9bf4ad07a5b6933b78d9264)
REM AIRSS Version 0.9.1 bugfix July 2018 build 013d7b7c2542+ Fri, 06 Jul 2018 19:26:36 +0100
REM compiler GCC version 9.2.1 20190827 (Red Hat 9.2.1-1)
REM options -cpp -mtune=generic -march=x86-64 -g -O0 -fpre-include=/usr/include/finclude/math-vector-fortran.h
REM seed 1202756636 1483957081 1588077524 18905686 66011885 -1590321718 -1004331684 -2105913469 1771512325 268214695 -210767631 -571831081 1953151754 1163013110 -316802968 -464969638 294112696 -2141936635 481714530 1764421648 -1078480788 1991083709 -1837803714 1803267277 1610473437 -525953748 332270378 -1890144796 -728924885 438495353 -1561357612 -1900622632 1297387933
REM
CELL 1.54180   15.00000   15.00000   15.00000   90.00000   90.00000   90.00000
LATT -1
SFAC C  
C      1  0.4795330000000  0.3038060000000  0.4213300000000 1.0
C      1  0.5786700000000  0.3038060000000  0.4795330000000 1.0
C      1  0.5204670000000  0.3038060000000  0.5786700000000 1.0
C      1  0.4213300000000  0.3038060000000  0.5204670000000 1.0
C      1  0.5204670000000  0.6945850000000  0.4213300000000 1.0
C      1  0.4213300000000  0.6945850000000  0.4795330000000 1.0
C      1  0.4795330000000  0.6945850000000  0.5786700000000 1.0
C      1  0.5786700000000  0.6945850000000  0.5204670000000 1.0
C      1  0.3529290000000  0.5987980000000  0.3135180000000 1.0
C      1  0.6864820000000  0.5987980000000  0.3529290000000 1.0
C      1  0.6470710000000  0.5987980000000  0.6864820000000 1.0
C      1  0.3135180000000  0.5987980000000  0.6470710000000 1.0
C      1  0.6470700000000  0.3995930000000  0.3135170000000 1.0
C      1  0.3135170000000  0.3995930000000  0.3529300000000 1.0
C      1  0.3529300000000  0.3995930000000  0.6864830000000 1.0
C      1  0.6864830000000  0.3995930000000  0.6470700000000 1.0
C      1  0.4131320000000  0.3538400000000  0.3439760000000 1.0
C      1  0.6560240000000  0.3538400000000  0.4131320000000 1.0
C      1  0.5868680000000  0.3538400000000  0.6560240000000 1.0
C      1  0.3439760000000  0.3538400000000  0.5868680000000 1.0
C      1  0.5868680000000  0.6445510000000  0.3439760000000 1.0
C      1  0.3439760000000  0.6445510000000  0.4131320000000 1.0
C      1  0.4131320000000  0.6445510000000  0.6560240000000 1.0
C      1  0.6560240000000  0.6445510000000  0.5868680000000 1.0
C      1  0.3674900000000  0.4626640000000  0.4221350000000 1.0
C      1  0.5778650000000  0.4626640000000  0.3674900000000 1.0
C      1  0.6325100000000  0.4626640000000  0.5778650000000 1.0
C      1  0.4221350000000  0.4626640000000  0.6325100000000 1.0
C      1  0.6325100000000  0.5357280000000  0.4221350000000 1.0
C      1  0.4221350000000  0.5357280000000  0.3674900000000 1.0
C      1  0.3674900000000  0.5357280000000  0.5778650000000 1.0
C      1  0.5778650000000  0.5357280000000  0.6325100000000 1.0
C      1  0.3430390000000  0.5010730000000  0.7324530000000 1.0
C      1  0.2675470000000  0.5010730000000  0.3430390000000 1.0
C      1  0.6569610000000  0.5010730000000  0.2675470000000 1.0
C      1  0.7324530000000  0.5010730000000  0.6569610000000 1.0
C      1  0.6569610000000  0.4973180000000  0.7324530000000 1.0
C      1  0.7324530000000  0.4973180000000  0.3430390000000 1.0
C      1  0.3430390000000  0.4973180000000  0.2675470000000 1.0
C      1  0.2675470000000  0.4973180000000  0.6569610000000 1.0
C      1  0.4190110000000  0.4356160000000  0.2803850000000 1.0
C      1  0.7196150000000  0.4356160000000  0.4190110000000 1.0
C      1  0.5809890000000  0.4356160000000  0.7196150000000 1.0
C      1  0.2803850000000  0.4356160000000  0.5809890000000 1.0
C      1  0.5809880000000  0.5627750000000  0.2803850000000 1.0
C      1  0.2803850000000  0.5627750000000  0.4190120000000 1.0
C      1  0.4190120000000  0.5627750000000  0.7196150000000 1.0
C      1  0.7196150000000  0.5627750000000  0.5809880000000 1.0
C      1  0.4275540000000  0.5877120000000  0.5227230000000 1.0
C      1  0.4772770000000  0.5877120000000  0.4275540000000 1.0
C      1  0.5724460000000  0.5877120000000  0.4772770000000 1.0
C      1  0.5227230000000  0.5877120000000  0.5724460000000 1.0
C      1  0.5724470000000  0.4106790000000  0.5227230000000 1.0
C      1  0.5227230000000  0.4106790000000  0.4275530000000 1.0
C      1  0.4275530000000  0.4106790000000  0.4772770000000 1.0
C      1  0.4772770000000  0.4106790000000  0.5724470000000 1.0
C      1  0.5000000000000  0.4991960000000  0.3028130000000 1.0
C      1  0.5000000000000  0.4991960000000  0.6971870000000 1.0
C      1  0.3028130000000  0.4991960000000  0.5000000000000 1.0
C      1  0.6971870000000  0.4991960000000  0.5000000000000 1.0
END
