TITL C-986974-580-920 -0.0057232657108079 3375 -349.027238075751 0 0 60 (C1) n - 1
REM
REM in /home/bkarasulu/work/CARBON/AIRSS/Generating-Clusters/REBO/Higher-Symm/Only-C60
REM
REM
REM
REM
REM
REM ./C.cell (a2850807a9bf4ad07a5b6933b78d9264)
REM AIRSS Version 0.9.1 bugfix July 2018 build 013d7b7c2542+ Fri, 06 Jul 2018 19:26:36 +0100
REM compiler GCC version 9.2.1 20190827 (Red Hat 9.2.1-1)
REM options -cpp -mtune=generic -march=x86-64 -g -O0 -fpre-include=/usr/include/finclude/math-vector-fortran.h
REM seed -772712030 1906230110 99229672 498971970 1226156667 1438499038 1933715361 160276709 1063007921 295357035 724982657 -343142992 -167724846 -1525320155 -2067876794 1870025089 -1244734445 -1772427839 757347236 -1133101806 -1860162537 -445093962 -818587315 -1913839183 1642947447 -717130137 -583957481 -1750400566 1182417039 1371941649 -1767016032 -1402665350 1869721859
REM
CELL 1.54180   15.00000   15.00000   15.00000   90.00000   90.00000   90.00000
LATT -1
SFAC C  
C      1  0.4531670000000  0.3175090000000  0.4235730000000 1.0
C      1  0.4764470000000  0.3225890000000  0.5230670000000 1.0
C      1  0.6335920000000  0.5361290000000  0.4854590000000 1.0
C      1  0.5130040000000  0.6140300000000  0.5161980000000 1.0
C      1  0.4343140000000  0.4078170000000  0.6173600000000 1.0
C      1  0.3939300000000  0.2855060000000  0.5863670000000 1.0
C      1  0.6677190000000  0.3922390000000  0.6459690000000 1.0
C      1  0.5450970000000  0.4000390000000  0.2574510000000 1.0
C      1  0.3325150000000  0.4474760000000  0.3872670000000 1.0
C      1  0.5317950000000  0.2664180000000  0.3656050000000 1.0
C      1  0.3670760000000  0.6711920000000  0.4258650000000 1.0
C      1  0.7453010000000  0.4467730000000  0.5992680000000 1.0
C      1  0.4750820000000  0.7176880000000  0.3139820000000 1.0
C      1  0.6832630000000  0.3825570000000  0.5313170000000 1.0
C      1  0.5588120000000  0.5803070000000  0.2688240000000 1.0
C      1  0.5963620000000  0.8058120000000  0.4610810000000 1.0
C      1  0.3962000000000  0.5777000000000  0.2820660000000 1.0
C      1  0.5051880000000  0.7159100000000  0.4968050000000 1.0
C      1  0.4020490000000  0.6934410000000  0.5118710000000 1.0
C      1  0.5746190000000  0.5196740000000  0.6402870000000 1.0
C      1  0.4283820000000  0.6029530000000  0.6496250000000 1.0
C      1  0.2984690000000  0.4871160000000  0.4823250000000 1.0
C      1  0.7049340000000  0.5815940000000  0.5259390000000 1.0
C      1  0.3896060000000  0.5656660000000  0.4146850000000 1.0
C      1  0.6494720000000  0.5745280000000  0.7465820000000 1.0
C      1  0.4791500000000  0.3148570000000  0.6560590000000 1.0
C      1  0.3678300000000  0.6300890000000  0.5779160000000 1.0
C      1  0.5427920000000  0.4738950000000  0.4123430000000 1.0
C      1  0.7427890000000  0.5418150000000  0.6041540000000 1.0
C      1  0.4126350000000  0.5400770000000  0.7207690000000 1.0
C      1  0.3375990000000  0.4198600000000  0.6525480000000 1.0
C      1  0.6368620000000  0.4023080000000  0.3527400000000 1.0
C      1  0.5689420000000  0.5430010000000  0.7715100000000 1.0
C      1  0.3532350000000  0.3464860000000  0.4144520000000 1.0
C      1  0.4372190000000  0.4235800000000  0.2758510000000 1.0
C      1  0.3204710000000  0.3472640000000  0.5843060000000 1.0
C      1  0.3008490000000  0.3821340000000  0.4976780000000 1.0
C      1  0.4743640000000  0.5738580000000  0.2240830000000 1.0
C      1  0.4952590000000  0.3943850000000  0.3633970000000 1.0
C      1  0.3124970000000  0.5610560000000  0.5386420000000 1.0
C      1  0.5671230000000  0.7949710000000  0.5480550000000 1.0
C      1  0.5160970000000  0.5969860000000  0.6121000000000 1.0
C      1  0.5611210000000  0.4928680000000  0.5426950000000 1.0
C      1  0.5919820000000  0.3160660000000  0.3168000000000 1.0
C      1  0.3722980000000  0.4857600000000  0.3077050000000 1.0
C      1  0.5134680000000  0.3939680000000  0.7228070000000 1.0
C      1  0.5666730000000  0.6632680000000  0.3113740000000 1.0
C      1  0.5968670000000  0.4391860000000  0.6879570000000 1.0
C      1  0.5861310000000  0.4932570000000  0.3080320000000 1.0
C      1  0.5548580000000  0.2774450000000  0.5846190000000 1.0
C      1  0.4909520000000  0.4310740000000  0.5367240000000 1.0
C      1  0.4799570000000  0.5484220000000  0.4496260000000 1.0
C      1  0.7177520000000  0.5784040000000  0.6876430000000 1.0
C      1  0.6402220000000  0.4307560000000  0.4558430000000 1.0
C      1  0.2965220000000  0.5738310000000  0.3723730000000 1.0
C      1  0.6421300000000  0.2903060000000  0.5638650000000 1.0
C      1  0.4920010000000  0.4911770000000  0.7517620000000 1.0
C      1  0.3952990000000  0.6661040000000  0.3276310000000 1.0
C      1  0.3321640000000  0.4903950000000  0.7130910000000 1.0
C      1  0.5474930000000  0.7384290000000  0.3940120000000 1.0
END
