TITL C-986978-6805-883 -9.10931566813042e-06 3375 -347.157207403843 0 0 60 (C5) n - 1
REM
REM in /home/bkarasulu/work/CARBON/AIRSS/Generating-Clusters/REBO/Higher-Symm/Only-C60
REM
REM
REM
REM
REM
REM ./C.cell (a2850807a9bf4ad07a5b6933b78d9264)
REM AIRSS Version 0.9.1 bugfix July 2018 build 013d7b7c2542+ Fri, 06 Jul 2018 19:26:36 +0100
REM compiler GCC version 9.2.1 20190827 (Red Hat 9.2.1-1)
REM options -cpp -mtune=generic -march=x86-64 -g -O0 -fpre-include=/usr/include/finclude/math-vector-fortran.h
REM seed 81515770 -2055975924 1251608062 -49354062 650724872 -1120286868 -1913008601 2103412821 -831853529 -335577125 495893523 1492045777 -248738410 734411705 -1659294537 533664433 611907672 -1479149909 -885148232 1998810525 1220050812 1574238028 10430083 -1832805809 999288037 1377966409 418421913 112562964 -895840542 -121146924 -348636051 -1962291977 2030445320
REM
CELL 1.54180   15.00000   15.00000   15.00000   90.00000   90.00000   90.00000
LATT -1
SFAC C  
C      1  0.5258290000000  0.6415930000000  0.5449020000000 1.0
C      1  0.5258300000000  0.5864590000000  0.3792120000000 1.0
C      1  0.5258310000000  0.4118410000000  0.3804480000000 1.0
C      1  0.5258310000000  0.3590570000000  0.5469000000000 1.0
C      1  0.5258300000000  0.5010510000000  0.6485390000000 1.0
C      1  0.6116190000000  0.4843780000000  0.2653310000000 1.0
C      1  0.6116200000000  0.2719890000000  0.4423420000000 1.0
C      1  0.6116190000000  0.3747040000000  0.6990350000000 1.0
C      1  0.6116170000000  0.6505750000000  0.6806700000000 1.0
C      1  0.6116170000000  0.7183570000000  0.4126250000000 1.0
C      1  0.3430510000000  0.3191150000000  0.4841730000000 1.0
C      1  0.3430510000000  0.4290510000000  0.6671390000000 1.0
C      1  0.3430500000000  0.6370350000000  0.6191240000000 1.0
C      1  0.3430500000000  0.6556390000000  0.4064820000000 1.0
C      1  0.3430510000000  0.4591550000000  0.3230780000000 1.0
C      1  0.4350020000000  0.2572990000000  0.4644100000000 1.0
C      1  0.4350000000000  0.3911520000000  0.7198240000000 1.0
C      1  0.4349990000000  0.6754300000000  0.6714490000000 1.0
C      1  0.4349990000000  0.7172680000000  0.3861360000000 1.0
C      1  0.4350010000000  0.4588480000000  0.2581800000000 1.0
C      1  0.4542690000000  0.5840900000000  0.2982630000000 1.0
C      1  0.4542690000000  0.3341230000000  0.3576850000000 1.0
C      1  0.4542690000000  0.3133910000000  0.6137800000000 1.0
C      1  0.4542670000000  0.5505470000000  0.7126360000000 1.0
C      1  0.4542670000000  0.7178480000000  0.5176340000000 1.0
C      1  0.7333110000000  0.5460250000000  0.5706450000000 1.0
C      1  0.7333110000000  0.5814100000000  0.4780600000000 1.0
C      1  0.7333120000000  0.5042910000000  0.4157970000000 1.0
C      1  0.7333120000000  0.4212450000000  0.4699000000000 1.0
C      1  0.7333110000000  0.4470370000000  0.5656010000000 1.0
C      1  0.3623350000000  0.5393130000000  0.6689360000000 1.0
C      1  0.3623350000000  0.6728160000000  0.5148130000000 1.0
C      1  0.3623360000000  0.5674910000000  0.3402190000000 1.0
C      1  0.3623370000000  0.3688950000000  0.3864360000000 1.0
C      1  0.3623360000000  0.3514800000000  0.5895930000000 1.0
C      1  0.4350550000000  0.4400840000000  0.4356420000000 1.0
C      1  0.4350550000000  0.4202770000000  0.5370950000000 1.0
C      1  0.4350550000000  0.5106440000000  0.5872840000000 1.0
C      1  0.4350540000000  0.5863010000000  0.5168490000000 1.0
C      1  0.4350550000000  0.5426930000000  0.4231290000000 1.0
C      1  0.6687550000000  0.5875720000000  0.6374660000000 1.0
C      1  0.6687550000000  0.6577990000000  0.4591950000000 1.0
C      1  0.6687560000000  0.5099550000000  0.3373160000000 1.0
C      1  0.6687570000000  0.3483550000000  0.4402620000000 1.0
C      1  0.6687560000000  0.3963250000000  0.6257640000000 1.0
C      1  0.5231580000000  0.6641030000000  0.6455290000000 1.0
C      1  0.5231590000000  0.6891170000000  0.3889000000000 1.0
C      1  0.5231600000000  0.4527780000000  0.2858070000000 1.0
C      1  0.5231610000000  0.2816980000000  0.4787220000000 1.0
C      1  0.5231600000000  0.4123040000000  0.7010420000000 1.0
C      1  0.3005990000000  0.5692950000000  0.4581980000000 1.0
C      1  0.3005990000000  0.4816570000000  0.4211770000000 1.0
C      1  0.3006000000000  0.4193670000000  0.4930860000000 1.0
C      1  0.3006000000000  0.4685070000000  0.5745480000000 1.0
C      1  0.3005990000000  0.5611680000000  0.5529870000000 1.0
C      1  0.6070160000000  0.5089390000000  0.5905580000000 1.0
C      1  0.6070160000000  0.5888880000000  0.5194830000000 1.0
C      1  0.6070160000000  0.5459980000000  0.4214840000000 1.0
C      1  0.6070170000000  0.4395410000000  0.4319920000000 1.0
C      1  0.6070170000000  0.4166380000000  0.5364850000000 1.0
END
