TITL C-986975-4297-658 4.81573252558005e-06 3375 -342.521289866951 0 0 60 (C1) n - 1
REM
REM in /home/bkarasulu/work/CARBON/AIRSS/Generating-Clusters/REBO/Higher-Symm/Only-C60
REM
REM
REM
REM
REM
REM ./C.cell (a2850807a9bf4ad07a5b6933b78d9264)
REM AIRSS Version 0.9.1 bugfix July 2018 build 013d7b7c2542+ Fri, 06 Jul 2018 19:26:36 +0100
REM compiler GCC version 9.2.1 20190827 (Red Hat 9.2.1-1)
REM options -cpp -mtune=generic -march=x86-64 -g -O0 -fpre-include=/usr/include/finclude/math-vector-fortran.h
REM seed 468091882 1770608039 -1674688077 -743191092 906505037 -2128634280 1070487483 420746593 -1592202545 1280557606 1181430552 2091370219 -575970022 -1552963925 -996297530 -1020711829 -1113655528 -1316881215 -205341364 -710143139 444316900 214477985 -1485744054 1087894016 -1748354083 -674667216 -537722215 66401111 -492471962 -1240981203 819301233 429122691 -902987204
REM
CELL 1.54180   15.00000   15.00000   15.00000   90.00000   90.00000   90.00000
LATT -1
SFAC C  
C      1  0.5635600000000  0.4916970000000  0.3423400000000 1.0
C      1  0.2453380000000  0.5406510000000  0.5044670000000 1.0
C      1  0.5747890000000  0.5250700000000  0.5339790000000 1.0
C      1  0.4893420000000  0.4615690000000  0.4917540000000 1.0
C      1  0.4705690000000  0.5735580000000  0.6000610000000 1.0
C      1  0.5058640000000  0.4237470000000  0.3951120000000 1.0
C      1  0.6919870000000  0.6311700000000  0.4654420000000 1.0
C      1  0.5849090000000  0.3992990000000  0.4982990000000 1.0
C      1  0.7133550000000  0.3820790000000  0.5287610000000 1.0
C      1  0.4273050000000  0.2613690000000  0.5178480000000 1.0
C      1  0.7057220000000  0.3152480000000  0.4443580000000 1.0
C      1  0.3855020000000  0.4839250000000  0.4913740000000 1.0
C      1  0.5368550000000  0.6949290000000  0.4856290000000 1.0
C      1  0.3737140000000  0.3461700000000  0.5744530000000 1.0
C      1  0.5312610000000  0.6145820000000  0.7175020000000 1.0
C      1  0.5771550000000  0.6851740000000  0.6755350000000 1.0
C      1  0.4902760000000  0.4927000000000  0.7471840000000 1.0
C      1  0.4477550000000  0.5944370000000  0.3384260000000 1.0
C      1  0.3658250000000  0.6896290000000  0.4681110000000 1.0
C      1  0.4224660000000  0.5793750000000  0.7234070000000 1.0
C      1  0.6250830000000  0.3099690000000  0.5500170000000 1.0
C      1  0.6777840000000  0.4242580000000  0.3331000000000 1.0
C      1  0.3595190000000  0.6391110000000  0.5667740000000 1.0
C      1  0.6356140000000  0.7052400000000  0.6077330000000 1.0
C      1  0.5492490000000  0.3238510000000  0.3947460000000 1.0
C      1  0.6458430000000  0.4005300000000  0.6163640000000 1.0
C      1  0.4278940000000  0.6641480000000  0.6502920000000 1.0
C      1  0.6326140000000  0.6913090000000  0.5135070000000 1.0
C      1  0.5882230000000  0.5299540000000  0.7214140000000 1.0
C      1  0.6499510000000  0.3434260000000  0.3763750000000 1.0
C      1  0.4987740000000  0.5968060000000  0.5021510000000 1.0
C      1  0.6876760000000  0.5968590000000  0.3748510000000 1.0
C      1  0.3589920000000  0.5047060000000  0.6663880000000 1.0
C      1  0.3202630000000  0.4212420000000  0.6168870000000 1.0
C      1  0.4889390000000  0.4922770000000  0.6418550000000 1.0
C      1  0.3332730000000  0.5295130000000  0.3527490000000 1.0
C      1  0.3361400000000  0.5435320000000  0.5671060000000 1.0
C      1  0.5360140000000  0.4146010000000  0.6091210000000 1.0
C      1  0.4566410000000  0.7228720000000  0.4163400000000 1.0
C      1  0.2327400000000  0.4401750000000  0.4607930000000 1.0
C      1  0.6173590000000  0.4834650000000  0.4365980000000 1.0
C      1  0.4866700000000  0.3364520000000  0.5753630000000 1.0
C      1  0.4480130000000  0.3407140000000  0.3460380000000 1.0
C      1  0.7165460000000  0.5619200000000  0.6127870000000 1.0
C      1  0.3801190000000  0.4268670000000  0.3369880000000 1.0
C      1  0.3189880000000  0.5891700000000  0.4430340000000 1.0
C      1  0.4458820000000  0.7101880000000  0.5477240000000 1.0
C      1  0.7347330000000  0.5619580000000  0.5197320000000 1.0
C      1  0.7148390000000  0.4759390000000  0.4816730000000 1.0
C      1  0.3294820000000  0.4146720000000  0.4341640000000 1.0
C      1  0.5224580000000  0.5148440000000  0.2633970000000 1.0
C      1  0.6296750000000  0.5066360000000  0.6314430000000 1.0
C      1  0.4642390000000  0.6832720000000  0.3338170000000 1.0
C      1  0.2419000000000  0.4462210000000  0.5684930000000 1.0
C      1  0.4305920000000  0.5669520000000  0.4351790000000 1.0
C      1  0.3437860000000  0.3165960000000  0.4686900000000 1.0
C      1  0.6943180000000  0.5148880000000  0.3326210000000 1.0
C      1  0.4145810000000  0.5140970000000  0.2740280000000 1.0
C      1  0.3861820000000  0.2764110000000  0.3863120000000 1.0
C      1  0.5348590000000  0.2779810000000  0.4893170000000 1.0
END
