TITL C-986974-580-501 0.000209451837993417 3375 -346.97599320457 0 0 60 (C3) n - 1
REM
REM in /home/bkarasulu/work/CARBON/AIRSS/Generating-Clusters/REBO/Higher-Symm/Only-C60
REM
REM
REM
REM
REM
REM ./C.cell (a2850807a9bf4ad07a5b6933b78d9264)
REM AIRSS Version 0.9.1 bugfix July 2018 build 013d7b7c2542+ Fri, 06 Jul 2018 19:26:36 +0100
REM compiler GCC version 9.2.1 20190827 (Red Hat 9.2.1-1)
REM options -cpp -mtune=generic -march=x86-64 -g -O0 -fpre-include=/usr/include/finclude/math-vector-fortran.h
REM seed 1865896629 196234584 -1241741178 1520391359 -495086525 564021583 -682749031 -595911914 1486632217 670958580 203927285 2094654543 -1306516331 -46370443 298375752 -205292906 -348665519 204053554 486436534 799900121 -1371708298 -1062688875 -1511173160 -1954094886 1991769124 -1438580032 -928711189 -138584683 1237460624 100522541 621660134 1397946569 -1107841300
REM
CELL 1.54180   15.00000   15.00000   15.00000   90.00000   90.00000   90.00000
LATT -1
SFAC C  
C      1  0.3754420000000  0.6930770000000  0.5845180000000 1.0
C      1  0.4890840000000  0.6930770000000  0.3498710000000 1.0
C      1  0.6354730000000  0.6930770000000  0.5656120000000 1.0
C      1  0.3971030000000  0.5294350000000  0.2881990000000 1.0
C      1  0.7348740000000  0.5294350000000  0.5167890000000 1.0
C      1  0.3680230000000  0.5294350000000  0.6950120000000 1.0
C      1  0.5391050000000  0.2976970000000  0.6298250000000 1.0
C      1  0.3680150000000  0.2976970000000  0.4689530000000 1.0
C      1  0.5928800000000  0.2976970000000  0.4012210000000 1.0
C      1  0.3320110000000  0.6491950000000  0.4171950000000 1.0
C      1  0.6557060000000  0.6491950000000  0.3959200000000 1.0
C      1  0.5122830000000  0.6491940000000  0.6868850000000 1.0
C      1  0.4354900000000  0.7246780000000  0.6529730000000 1.0
C      1  0.3997770000000  0.7246790000000  0.3676460000000 1.0
C      1  0.6647330000000  0.7246790000000  0.4793820000000 1.0
C      1  0.2975810000000  0.4099050000000  0.4473550000000 1.0
C      1  0.6468010000000  0.4099050000000  0.3510220000000 1.0
C      1  0.5556180000000  0.4099050000000  0.7016220000000 1.0
C      1  0.6583680000000  0.5300920000000  0.6865330000000 1.0
C      1  0.2592730000000  0.5300930000000  0.5438840000000 1.0
C      1  0.5823580000000  0.5300930000000  0.2695830000000 1.0
C      1  0.3273550000000  0.5639150000000  0.3629000000000 1.0
C      1  0.7050540000000  0.5639150000000  0.4190350000000 1.0
C      1  0.4675910000000  0.5639150000000  0.7180650000000 1.0
C      1  0.2993550000000  0.6338720000000  0.5220380000000 1.0
C      1  0.5812370000000  0.6338720000000  0.3152170000000 1.0
C      1  0.6194080000000  0.6338720000000  0.6627450000000 1.0
C      1  0.5138350000000  0.3070840000000  0.3549030000000 1.0
C      1  0.6187400000000  0.3070840000000  0.5845300000000 1.0
C      1  0.3674250000000  0.3070840000000  0.5605670000000 1.0
C      1  0.4890640000000  0.4909840000000  0.5643960000000 1.0
C      1  0.4497000000000  0.4909840000000  0.4583310000000 1.0
C      1  0.5612370000000  0.4909840000000  0.4772730000000 1.0
C      1  0.5251320000000  0.6657200000000  0.5753370000000 1.0
C      1  0.4221900000000  0.6657200000000  0.4840970000000 1.0
C      1  0.5526770000000  0.6657200000000  0.4405660000000 1.0
C      1  0.6407280000000  0.4373050000000  0.6743060000000 1.0
C      1  0.2786820000000  0.4373050000000  0.5347210000000 1.0
C      1  0.5805890000000  0.4373050000000  0.2909730000000 1.0
C      1  0.4474550000000  0.5853810000000  0.5562500000000 1.0
C      1  0.4775580000000  0.5853820000000  0.4263700000000 1.0
C      1  0.5749860000000  0.5853820000000  0.5173800000000 1.0
C      1  0.4062210000000  0.4198950000000  0.3073790000000 1.0
C      1  0.7137040000000  0.4198950000000  0.5150960000000 1.0
C      1  0.3800750000000  0.4198950000000  0.6775250000000 1.0
C      1  0.4366200000000  0.2753350000000  0.6163420000000 1.0
C      1  0.4309340000000  0.2753350000000  0.3869400000000 1.0
C      1  0.6324450000000  0.2753350000000  0.4967170000000 1.0
C      1  0.3506070000000  0.5860470000000  0.6126000000000 1.0
C      1  0.4771820000000  0.5860470000000  0.3143220000000 1.0
C      1  0.6722110000000  0.5860470000000  0.5730790000000 1.0
C      1  0.6490310000000  0.4699680000000  0.4363410000000 1.0
C      1  0.4806150000000  0.4699680000000  0.6608940000000 1.0
C      1  0.3703540000000  0.4699680000000  0.4027640000000 1.0
C      1  0.3261870000000  0.3853290000000  0.5977880000000 1.0
C      1  0.5022190000000  0.3853300000000  0.3005800000000 1.0
C      1  0.6715930000000  0.3853290000000  0.6016320000000 1.0
C      1  0.3449350000000  0.3450840000000  0.3672830000000 1.0
C      1  0.6924690000000  0.3450840000000  0.4320690000000 1.0
C      1  0.4625960000000  0.3450840000000  0.7006480000000 1.0
END
