TITL C-986978-6805-810 -6.06919345027555e-06 3375 -342.115748407361 0 0 60 (C4) n - 1
REM
REM in /home/bkarasulu/work/CARBON/AIRSS/Generating-Clusters/REBO/Higher-Symm/Only-C60
REM
REM
REM
REM
REM
REM ./C.cell (a2850807a9bf4ad07a5b6933b78d9264)
REM AIRSS Version 0.9.1 bugfix July 2018 build 013d7b7c2542+ Fri, 06 Jul 2018 19:26:36 +0100
REM compiler GCC version 9.2.1 20190827 (Red Hat 9.2.1-1)
REM options -cpp -mtune=generic -march=x86-64 -g -O0 -fpre-include=/usr/include/finclude/math-vector-fortran.h
REM seed -1468739317 429619126 1847598849 -523450147 -1708403978 -689891687 -1238326697 -1405177110 81340842 -2064707034 1516794861 1914790568 -281634968 1451747100 2071516979 -1098001646 -12144210 -44358099 -838137117 -706683057 646677581 2098718125 -363327191 1560773304 -748879455 701658152 86806811 -1347135291 674969796 1090573992 1522897450 381530045 -2018649188
REM
CELL 1.54180   15.00000   15.00000   15.00000   90.00000   90.00000   90.00000
LATT -1
SFAC C  
C      1  0.5849790000000  0.4330610000000  0.3749450000000 1.0
C      1  0.5849800000000  0.6250540000000  0.4330600000000 1.0
C      1  0.5849810000000  0.5669390000000  0.6250540000000 1.0
C      1  0.5849800000000  0.3749450000000  0.5669380000000 1.0
C      1  0.5784060000000  0.4623280000000  0.6363700000000 1.0
C      1  0.5784060000000  0.6363700000000  0.5376710000000 1.0
C      1  0.5784040000000  0.5376720000000  0.3636290000000 1.0
C      1  0.5784040000000  0.3636300000000  0.4623280000000 1.0
C      1  0.6785280000000  0.3988370000000  0.3274840000000 1.0
C      1  0.6785290000000  0.6725140000000  0.3988360000000 1.0
C      1  0.6785310000000  0.6011620000000  0.6725130000000 1.0
C      1  0.6785300000000  0.3274850000000  0.6011610000000 1.0
C      1  0.6754980000000  0.4197370000000  0.6527890000000 1.0
C      1  0.6754980000000  0.6527890000000  0.5802620000000 1.0
C      1  0.6754960000000  0.5802620000000  0.3472090000000 1.0
C      1  0.6754960000000  0.3472100000000  0.4197360000000 1.0
C      1  0.4011070000000  0.4370060000000  0.3842090000000 1.0
C      1  0.4011080000000  0.6157920000000  0.4370070000000 1.0
C      1  0.4011090000000  0.5629950000000  0.6157920000000 1.0
C      1  0.4011080000000  0.3842090000000  0.5629950000000 1.0
C      1  0.4051590000000  0.4553220000000  0.6392590000000 1.0
C      1  0.4051590000000  0.6392580000000  0.5446790000000 1.0
C      1  0.4051570000000  0.5446780000000  0.3607430000000 1.0
C      1  0.4051570000000  0.3607420000000  0.4553230000000 1.0
C      1  0.4887510000000  0.3218260000000  0.5512630000000 1.0
C      1  0.4887490000000  0.4487380000000  0.3218260000000 1.0
C      1  0.4887510000000  0.6781740000000  0.4487380000000 1.0
C      1  0.4887520000000  0.5512620000000  0.6781740000000 1.0
C      1  0.4924490000000  0.3028360000000  0.4395070000000 1.0
C      1  0.4924520000000  0.4395070000000  0.6971640000000 1.0
C      1  0.4924510000000  0.6971640000000  0.5604940000000 1.0
C      1  0.4924490000000  0.5604930000000  0.3028360000000 1.0
C      1  0.4992800000000  0.2832380000000  0.3386040000000 1.0
C      1  0.4992810000000  0.6613960000000  0.2832380000000 1.0
C      1  0.4992840000000  0.7167620000000  0.6613960000000 1.0
C      1  0.4992830000000  0.3386040000000  0.7167620000000 1.0
C      1  0.5012580000000  0.2845600000000  0.6515300000000 1.0
C      1  0.5012590000000  0.6515300000000  0.7154400000000 1.0
C      1  0.5012570000000  0.7154400000000  0.3484700000000 1.0
C      1  0.5012550000000  0.3484700000000  0.2845600000000 1.0
C      1  0.7621310000000  0.6202100000000  0.5333510000000 1.0
C      1  0.7621310000000  0.4666460000000  0.6202080000000 1.0
C      1  0.7621300000000  0.3797890000000  0.4666450000000 1.0
C      1  0.7621300000000  0.5333520000000  0.3797880000000 1.0
C      1  0.7619130000000  0.6213610000000  0.4388310000000 1.0
C      1  0.7619120000000  0.4388320000000  0.3786360000000 1.0
C      1  0.7619140000000  0.3786370000000  0.5611650000000 1.0
C      1  0.7619150000000  0.5611670000000  0.6213600000000 1.0
C      1  0.2969070000000  0.6320080000000  0.4676910000000 1.0
C      1  0.2969080000000  0.5323120000000  0.6320090000000 1.0
C      1  0.2969070000000  0.3679940000000  0.5323130000000 1.0
C      1  0.2969060000000  0.4676890000000  0.3679950000000 1.0
C      1  0.2949410000000  0.6283870000000  0.5697850000000 1.0
C      1  0.2949390000000  0.5697840000000  0.3716160000000 1.0
C      1  0.2949390000000  0.3716150000000  0.4302190000000 1.0
C      1  0.2949410000000  0.4302170000000  0.6283880000000 1.0
C      1  0.2253320000000  0.3502370000000  0.6113100000000 1.0
C      1  0.2253300000000  0.3886930000000  0.3502380000000 1.0
C      1  0.2253310000000  0.6497650000000  0.3886950000000 1.0
C      1  0.2253330000000  0.6113080000000  0.6497660000000 1.0
END
