TITL C-986978-6805-141 0.00895471837837529 3375 -341.650957099631 0 0 60 (C1) n - 1
REM
REM in /home/bkarasulu/work/CARBON/AIRSS/Generating-Clusters/REBO/Higher-Symm/Only-C60
REM
REM
REM
REM
REM
REM ./C.cell (a2850807a9bf4ad07a5b6933b78d9264)
REM AIRSS Version 0.9.1 bugfix July 2018 build 013d7b7c2542+ Fri, 06 Jul 2018 19:26:36 +0100
REM compiler GCC version 9.2.1 20190827 (Red Hat 9.2.1-1)
REM options -cpp -mtune=generic -march=x86-64 -g -O0 -fpre-include=/usr/include/finclude/math-vector-fortran.h
REM seed -170051856 362990173 -1544096351 1242276126 739929722 640680787 1031596090 -129430607 -673853328 -1741106454 -1050661495 855703145 64357137 -1093805761 1076036910 -492615621 627691281 199768810 1238324600 1427556687 -564433843 -480296588 -1364938758 -838858822 12609365 -1427256029 434213896 1951299543 1131411064 -869089896 668051709 295317502 -1631378389
REM
CELL 1.54180   15.00000   15.00000   15.00000   90.00000   90.00000   90.00000
LATT -1
SFAC C  
C      1  0.6476170000000  0.2673530000000  0.5537820000000 1.0
C      1  0.3559860000000  0.2638780000000  0.5576800000000 1.0
C      1  0.6479950000000  0.6828830000000  0.4190500000000 1.0
C      1  0.3541310000000  0.6827290000000  0.4153900000000 1.0
C      1  0.4112300000000  0.4098630000000  0.3301620000000 1.0
C      1  0.5862900000000  0.4140210000000  0.3331730000000 1.0
C      1  0.5523360000000  0.4684110000000  0.6240510000000 1.0
C      1  0.4458310000000  0.4701570000000  0.6245290000000 1.0
C      1  0.4510040000000  0.5334570000000  0.4598030000000 1.0
C      1  0.5534190000000  0.5378690000000  0.4606090000000 1.0
C      1  0.3832190000000  0.3760420000000  0.4915800000000 1.0
C      1  0.6104210000000  0.3773910000000  0.4884130000000 1.0
C      1  0.4385910000000  0.4328560000000  0.4326550000000 1.0
C      1  0.5489640000000  0.4363540000000  0.4343510000000 1.0
C      1  0.4524170000000  0.4447940000000  0.2339690000000 1.0
C      1  0.5496690000000  0.4467020000000  0.2351960000000 1.0
C      1  0.4005100000000  0.2761160000000  0.4530660000000 1.0
C      1  0.6078040000000  0.2772620000000  0.4468670000000 1.0
C      1  0.5488120000000  0.2835000000000  0.6093110000000 1.0
C      1  0.4441980000000  0.2897850000000  0.6252210000000 1.0
C      1  0.5999620000000  0.5222980000000  0.3027270000000 1.0
C      1  0.4019530000000  0.5191910000000  0.3010100000000 1.0
C      1  0.7035060000000  0.4135350000000  0.5294570000000 1.0
C      1  0.2919730000000  0.4162510000000  0.5306580000000 1.0
C      1  0.3869490000000  0.6034340000000  0.6939110000000 1.0
C      1  0.6162010000000  0.5986870000000  0.6955090000000 1.0
C      1  0.5903740000000  0.5107500000000  0.7127200000000 1.0
C      1  0.4099790000000  0.5150060000000  0.7125590000000 1.0
C      1  0.4191140000000  0.5526450000000  0.5600710000000 1.0
C      1  0.5848290000000  0.5524890000000  0.5613780000000 1.0
C      1  0.3792210000000  0.5759680000000  0.3902950000000 1.0
C      1  0.6253820000000  0.5770050000000  0.3923920000000 1.0
C      1  0.4370350000000  0.7576070000000  0.3891280000000 1.0
C      1  0.5440560000000  0.7478410000000  0.4016710000000 1.0
C      1  0.5466110000000  0.6127560000000  0.2909770000000 1.0
C      1  0.4529370000000  0.6106390000000  0.2849960000000 1.0
C      1  0.7354220000000  0.4952750000000  0.5053160000000 1.0
C      1  0.2654360000000  0.4990990000000  0.5036460000000 1.0
C      1  0.3536820000000  0.6887090000000  0.6346200000000 1.0
C      1  0.6512200000000  0.6851360000000  0.6387150000000 1.0
C      1  0.4539310000000  0.6409550000000  0.6105980000000 1.0
C      1  0.5500350000000  0.6397220000000  0.6135250000000 1.0
C      1  0.4540170000000  0.3162290000000  0.3712180000000 1.0
C      1  0.5490610000000  0.3194240000000  0.3711210000000 1.0
C      1  0.7054770000000  0.3794730000000  0.6230590000000 1.0
C      1  0.2884800000000  0.3865650000000  0.6254550000000 1.0
C      1  0.4585340000000  0.2220620000000  0.5334230000000 1.0
C      1  0.5572660000000  0.2092070000000  0.5198870000000 1.0
C      1  0.4527650000000  0.7214930000000  0.4942440000000 1.0
C      1  0.5502550000000  0.7127800000000  0.5024310000000 1.0
C      1  0.5879300000000  0.6873590000000  0.3278480000000 1.0
C      1  0.4033250000000  0.6856990000000  0.3133430000000 1.0
C      1  0.5456340000000  0.4841710000000  0.7916450000000 1.0
C      1  0.4532220000000  0.4867980000000  0.7916840000000 1.0
C      1  0.5947210000000  0.3806330000000  0.5981040000000 1.0
C      1  0.3994170000000  0.3831330000000  0.6013650000000 1.0
C      1  0.3571820000000  0.6819790000000  0.5289620000000 1.0
C      1  0.6471690000000  0.6813210000000  0.5326560000000 1.0
C      1  0.6744310000000  0.5776230000000  0.4955510000000 1.0
C      1  0.3308610000000  0.5776310000000  0.4932620000000 1.0
END
