TITL C-986978-6805-319 -1.10358011690519e-05 3375 -370.181340796753 0 0 60 (C5) n - 1
REM
REM in /home/bkarasulu/work/CARBON/AIRSS/Generating-Clusters/REBO/Higher-Symm/Only-C60
REM
REM
REM
REM
REM
REM ./C.cell (a2850807a9bf4ad07a5b6933b78d9264)
REM AIRSS Version 0.9.1 bugfix July 2018 build 013d7b7c2542+ Fri, 06 Jul 2018 19:26:36 +0100
REM compiler GCC version 9.2.1 20190827 (Red Hat 9.2.1-1)
REM options -cpp -mtune=generic -march=x86-64 -g -O0 -fpre-include=/usr/include/finclude/math-vector-fortran.h
REM seed -1875848384 265493102 1069176943 -331906791 1568529923 606151676 -1438348592 1789714741 766764808 432481595 452645816 855503687 825454461 754601048 458103793 371185537 729894090 1591791886 378496039 -812573002 1845139793 600304264 1373514770 147759798 -1811095773 -637591595 -1764288906 -1197450826 291161133 -600297343 844799353 -343053620 828449150
REM
CELL 1.54180   15.00000   15.00000   15.00000   90.00000   90.00000   90.00000
LATT -1
SFAC C  
C      1  0.3507890000000  0.3542110000000  0.3948830000000 1.0
C      1  0.5925450000000  0.3130410000000  0.3948820000000 1.0
C      1  0.7064070000000  0.5302430000000  0.3948820000000 1.0
C      1  0.5350210000000  0.7056500000000  0.3948820000000 1.0
C      1  0.3152370000000  0.5968560000000  0.3948830000000 1.0
C      1  0.6256070000000  0.6028830000000  0.6486970000000 1.0
C      1  0.4409680000000  0.6512520000000  0.6486970000000 1.0
C      1  0.3379090000000  0.4905960000000  0.6486980000000 1.0
C      1  0.4588550000000  0.3429360000000  0.6486980000000 1.0
C      1  0.6366620000000  0.4123330000000  0.6486970000000 1.0
C      1  0.6967590000000  0.4352230000000  0.3942620000000 1.0
C      1  0.6224080000000  0.6671120000000  0.3942620000000 1.0
C      1  0.3788930000000  0.6680580000000  0.3942630000000 1.0
C      1  0.3027430000000  0.4367530000000  0.3942640000000 1.0
C      1  0.4991950000000  0.2928540000000  0.3942630000000 1.0
C      1  0.7194780000000  0.3769480000000  0.4688430000000 1.0
C      1  0.6848520000000  0.6707110000000  0.4688430000000 1.0
C      1  0.3947670000000  0.7285580000000  0.4688450000000 1.0
C      1  0.2501100000000  0.4705460000000  0.4688450000000 1.0
C      1  0.4507930000000  0.2532390000000  0.4688440000000 1.0
C      1  0.6393060000000  0.5833150000000  0.3464630000000 1.0
C      1  0.4638100000000  0.6582340000000  0.3464640000000 1.0
C      1  0.3383270000000  0.5144790000000  0.3464650000000 1.0
C      1  0.4362700000000  0.3507140000000  0.3464650000000 1.0
C      1  0.6222850000000  0.3932570000000  0.3464640000000 1.0
C      1  0.7134740000000  0.5976920000000  0.5766540000000 1.0
C      1  0.4730560000000  0.7332140000000  0.5766560000000 1.0
C      1  0.2698740000000  0.5464420000000  0.5766560000000 1.0
C      1  0.3847190000000  0.2954880000000  0.5766560000000 1.0
C      1  0.6588780000000  0.3271630000000  0.5766550000000 1.0
C      1  0.3626810000000  0.7099370000000  0.5608080000000 1.0
C      1  0.2579040000000  0.4342760000000  0.5608090000000 1.0
C      1  0.4876960000000  0.2494430000000  0.5608080000000 1.0
C      1  0.7344920000000  0.4108710000000  0.5608070000000 1.0
C      1  0.6572280000000  0.6954720000000  0.5608070000000 1.0
C      1  0.2559980000000  0.5723730000000  0.4677710000000 1.0
C      1  0.3557680000000  0.2903050000000  0.4677710000000 1.0
C      1  0.6548620000000  0.2980280000000  0.4677690000000 1.0
C      1  0.7399410000000  0.5848700000000  0.4677690000000 1.0
C      1  0.4934300000000  0.7544240000000  0.4677700000000 1.0
C      1  0.4371340000000  0.5499600000000  0.5622390000000 1.0
C      1  0.4330590000000  0.4556490000000  0.5622390000000 1.0
C      1  0.5214950000000  0.4226300000000  0.5622380000000 1.0
C      1  0.5802260000000  0.4965340000000  0.5622380000000 1.0
C      1  0.5280880000000  0.5752280000000  0.5622380000000 1.0
C      1  0.6822370000000  0.4983840000000  0.5894950000000 1.0
C      1  0.5578510000000  0.6728180000000  0.5894960000000 1.0
C      1  0.3535170000000  0.6084240000000  0.5894960000000 1.0
C      1  0.3516170000000  0.3941910000000  0.5894970000000 1.0
C      1  0.5547780000000  0.3261830000000  0.5894960000000 1.0
C      1  0.5357390000000  0.4127810000000  0.6943020000000 1.0
C      1  0.5939940000000  0.5070370000000  0.6943020000000 1.0
C      1  0.5223540000000  0.5915680000000  0.6943020000000 1.0
C      1  0.4198220000000  0.5495550000000  0.6943030000000 1.0
C      1  0.4280940000000  0.4390590000000  0.6943030000000 1.0
C      1  0.5622190000000  0.4454720000000  0.2955790000000 1.0
C      1  0.5710850000000  0.5423240000000  0.2955790000000 1.0
C      1  0.4817140000000  0.5806850000000  0.2955800000000 1.0
C      1  0.4176130000000  0.5075420000000  0.2955800000000 1.0
C      1  0.4673670000000  0.4239760000000  0.2955800000000 1.0
END
