TITL C-986973-6940-817 0.000258736826458245 3375 -342.273449502108 0 0 60 (C1) n - 1
REM
REM in /home/bkarasulu/work/CARBON/AIRSS/Generating-Clusters/REBO/Higher-Symm/Only-C60
REM
REM
REM
REM
REM
REM ./C.cell (a2850807a9bf4ad07a5b6933b78d9264)
REM AIRSS Version 0.9.1 bugfix July 2018 build 013d7b7c2542+ Fri, 06 Jul 2018 19:26:36 +0100
REM compiler GCC version 9.2.1 20190827 (Red Hat 9.2.1-1)
REM options -cpp -mtune=generic -march=x86-64 -g -O0 -fpre-include=/usr/include/finclude/math-vector-fortran.h
REM seed 1064286595 1442062888 1046898283 -111305225 -1158741220 -1976017402 -1354361966 -623958621 1259941121 -894709755 875267803 -847267363 -1398035792 -1017098413 -1533051835 1285064115 -580027282 -691178352 626220262 2088036708 1623594584 962188557 -427866632 -93837129 -464364214 -1735006353 -1632577677 147383550 -526290584 -605925287 -975529497 -1834332184 -1564656162
REM
CELL 1.54180   15.00000   15.00000   15.00000   90.00000   90.00000   90.00000
LATT -1
SFAC C  
C      1  0.3237070000000  0.4823890000000  0.5198710000000 1.0
C      1  0.3508360000000  0.5574400000000  0.3221860000000 1.0
C      1  0.7377380000000  0.4285780000000  0.4699600000000 1.0
C      1  0.6495490000000  0.5520900000000  0.5254580000000 1.0
C      1  0.7451850000000  0.6520090000000  0.6175320000000 1.0
C      1  0.4019130000000  0.5605520000000  0.4440730000000 1.0
C      1  0.6570450000000  0.5305320000000  0.6896150000000 1.0
C      1  0.5204900000000  0.3672010000000  0.6061180000000 1.0
C      1  0.6541030000000  0.6255480000000  0.4438750000000 1.0
C      1  0.6309130000000  0.4960920000000  0.4276170000000 1.0
C      1  0.3537530000000  0.4362770000000  0.4452410000000 1.0
C      1  0.5237640000000  0.5573570000000  0.3194780000000 1.0
C      1  0.4266360000000  0.3824930000000  0.6115810000000 1.0
C      1  0.5685200000000  0.4883510000000  0.7336890000000 1.0
C      1  0.4505210000000  0.3687040000000  0.3235760000000 1.0
C      1  0.2717010000000  0.5631640000000  0.3921570000000 1.0
C      1  0.2816160000000  0.3473920000000  0.5132340000000 1.0
C      1  0.4321850000000  0.2892020000000  0.4758930000000 1.0
C      1  0.3978270000000  0.7549870000000  0.4602620000000 1.0
C      1  0.6621450000000  0.4409740000000  0.5439150000000 1.0
C      1  0.5146870000000  0.4334160000000  0.4444680000000 1.0
C      1  0.7123760000000  0.3492030000000  0.4138490000000 1.0
C      1  0.3153830000000  0.5420960000000  0.6685560000000 1.0
C      1  0.4608030000000  0.4901110000000  0.3868390000000 1.0
C      1  0.4738830000000  0.7457860000000  0.5439290000000 1.0
C      1  0.6145220000000  0.5743910000000  0.3532250000000 1.0
C      1  0.6782490000000  0.2703630000000  0.4530030000000 1.0
C      1  0.5139400000000  0.2543790000000  0.4373470000000 1.0
C      1  0.4281760000000  0.5757660000000  0.5375590000000 1.0
C      1  0.5725500000000  0.3952390000000  0.6804590000000 1.0
C      1  0.3809360000000  0.4503500000000  0.3159330000000 1.0
C      1  0.5276520000000  0.7365880000000  0.4475420000000 1.0
C      1  0.5909090000000  0.2833000000000  0.4857760000000 1.0
C      1  0.5207390000000  0.4685110000000  0.2699280000000 1.0
C      1  0.5834390000000  0.6585510000000  0.6490420000000 1.0
C      1  0.4498540000000  0.7122470000000  0.3823860000000 1.0
C      1  0.3725680000000  0.3354590000000  0.5457630000000 1.0
C      1  0.5564580000000  0.7385410000000  0.6146230000000 1.0
C      1  0.5186470000000  0.2821060000000  0.3444560000000 1.0
C      1  0.4158120000000  0.4545860000000  0.6717920000000 1.0
C      1  0.2794670000000  0.4547810000000  0.3673330000000 1.0
C      1  0.7682840000000  0.5037120000000  0.4197630000000 1.0
C      1  0.2338960000000  0.3797100000000  0.4395340000000 1.0
C      1  0.5728510000000  0.3806150000000  0.5184860000000 1.0
C      1  0.6646000000000  0.6036350000000  0.6166840000000 1.0
C      1  0.2992270000000  0.4654140000000  0.6092830000000 1.0
C      1  0.4551470000000  0.6550200000000  0.5937190000000 1.0
C      1  0.4497480000000  0.5501190000000  0.6384480000000 1.0
C      1  0.6148170000000  0.7168510000000  0.4512090000000 1.0
C      1  0.7263320000000  0.5739160000000  0.3789890000000 1.0
C      1  0.6580780000000  0.4393490000000  0.6484410000000 1.0
C      1  0.6379620000000  0.4106720000000  0.3835960000000 1.0
C      1  0.3807840000000  0.5229310000000  0.7486410000000 1.0
C      1  0.4828360000000  0.5371270000000  0.7662120000000 1.0
C      1  0.4036740000000  0.3642960000000  0.4193960000000 1.0
C      1  0.5632820000000  0.3833240000000  0.3221160000000 1.0
C      1  0.3028320000000  0.5863830000000  0.4940530000000 1.0
C      1  0.5228270000000  0.6088270000000  0.6985710000000 1.0
C      1  0.4370980000000  0.6163770000000  0.3526760000000 1.0
C      1  0.3045300000000  0.6146210000000  0.6010400000000 1.0
END
