TITL C-986973-6940-172 -5.48330712588269e-06 3375 -342.446034942744 0 0 60 (C3) n - 1
REM
REM in /home/bkarasulu/work/CARBON/AIRSS/Generating-Clusters/REBO/Higher-Symm/Only-C60
REM
REM
REM
REM
REM
REM ./C.cell (a2850807a9bf4ad07a5b6933b78d9264)
REM AIRSS Version 0.9.1 bugfix July 2018 build 013d7b7c2542+ Fri, 06 Jul 2018 19:26:36 +0100
REM compiler GCC version 9.2.1 20190827 (Red Hat 9.2.1-1)
REM options -cpp -mtune=generic -march=x86-64 -g -O0 -fpre-include=/usr/include/finclude/math-vector-fortran.h
REM seed 530618068 129066960 1083253323 -1555826653 -1080885969 162608196 219543362 475508798 -1065065426 807673774 1866740696 1001704729 1493157592 301572964 -1258366338 1476004518 -2094237154 -1642460815 -376561940 -875760008 1864339294 1081533341 -66145990 -1572551070 2092211088 1555119956 220625677 -1070878979 1916939464 1233034064 -1989062589 1748023587 1328435809
REM
CELL 1.54180   15.00000   15.00000   15.00000   90.00000   90.00000   90.00000
LATT -1
SFAC C  
C      1  0.3604010000000  0.7143770000000  0.5003740000000 1.0
C      1  0.5701230000000  0.7143760000000  0.6207120000000 1.0
C      1  0.5694780000000  0.7143770000000  0.3789180000000 1.0
C      1  0.5979320000000  0.5089360000000  0.7194610000000 1.0
C      1  0.6410930000000  0.5089380000000  0.3054580000000 1.0
C      1  0.2609750000000  0.5089380000000  0.4750810000000 1.0
C      1  0.5267530000000  0.4398390000000  0.7129920000000 1.0
C      1  0.6710800000000  0.4398410000000  0.3703340000000 1.0
C      1  0.3021660000000  0.4398410000000  0.4166730000000 1.0
C      1  0.5193630000000  0.5661640000000  0.6725980000000 1.0
C      1  0.6397920000000  0.5661650000000  0.3969330000000 1.0
C      1  0.3408450000000  0.5661660000000  0.4304710000000 1.0
C      1  0.5455320000000  0.3748470000000  0.6389800000000 1.0
C      1  0.5975940000000  0.3748480000000  0.3910770000000 1.0
C      1  0.3568730000000  0.3748480000000  0.4699420000000 1.0
C      1  0.7161990000000  0.5793130000000  0.4801200000000 1.0
C      1  0.3746840000000  0.5793140000000  0.3227070000000 1.0
C      1  0.4091180000000  0.5793120000000  0.6971750000000 1.0
C      1  0.6249640000000  0.3037980000000  0.6475100000000 1.0
C      1  0.5652660000000  0.3038000000000  0.3180210000000 1.0
C      1  0.3097690000000  0.3038000000000  0.5344660000000 1.0
C      1  0.6808190000000  0.5306670000000  0.6901150000000 1.0
C      1  0.5742350000000  0.5306700000000  0.2483490000000 1.0
C      1  0.2449460000000  0.5306690000000  0.5615370000000 1.0
C      1  0.6467310000000  0.2673980000000  0.5642260000000 1.0
C      1  0.4822560000000  0.2673990000000  0.3408110000000 1.0
C      1  0.3710110000000  0.2673980000000  0.5949590000000 1.0
C      1  0.5631090000000  0.2366700000000  0.5004680000000 1.0
C      1  0.4688510000000  0.2366710000000  0.4451090000000 1.0
C      1  0.4680380000000  0.2366700000000  0.5544190000000 1.0
C      1  0.4074460000000  0.4145950000000  0.5586970000000 1.0
C      1  0.5971100000000  0.4145950000000  0.5508050000000 1.0
C      1  0.4954430000000  0.4145960000000  0.3904970000000 1.0
C      1  0.4286150000000  0.3352360000000  0.4130650000000 1.0
C      1  0.4604040000000  0.3352350000000  0.6052870000000 1.0
C      1  0.6109790000000  0.3352350000000  0.4816460000000 1.0
C      1  0.6021370000000  0.6262640000000  0.6410750000000 1.0
C      1  0.5711060000000  0.6262650000000  0.3410100000000 1.0
C      1  0.3267570000000  0.6262650000000  0.5179170000000 1.0
C      1  0.4741690000000  0.7015000000000  0.6064210000000 1.0
C      1  0.6050780000000  0.7015000000000  0.4691620000000 1.0
C      1  0.4207540000000  0.7015010000000  0.4244210000000 1.0
C      1  0.3274210000000  0.5795650000000  0.6185160000000 1.0
C      1  0.6889280000000  0.5795640000000  0.5902010000000 1.0
C      1  0.4836520000000  0.5795660000000  0.2912840000000 1.0
C      1  0.4567330000000  0.5115560000000  0.5942620000000 1.0
C      1  0.6032670000000  0.5115560000000  0.4903390000000 1.0
C      1  0.4400000000000  0.5115570000000  0.4153990000000 1.0
C      1  0.4648880000000  0.6090040000000  0.4479660000000 1.0
C      1  0.4724930000000  0.6090040000000  0.5564260000000 1.0
C      1  0.5626200000000  0.6090040000000  0.4956100000000 1.0
C      1  0.7220610000000  0.4729390000000  0.4437810000000 1.0
C      1  0.3402830000000  0.4729410000000  0.3357990000000 1.0
C      1  0.4376560000000  0.4729380000000  0.7204200000000 1.0
C      1  0.6149150000000  0.7546280000000  0.5465320000000 1.0
C      1  0.4828400000000  0.7546290000000  0.3772170000000 1.0
C      1  0.4022460000000  0.7546280000000  0.5762550000000 1.0
C      1  0.6897780000000  0.4726950000000  0.5524760000000 1.0
C      1  0.4505560000000  0.4726960000000  0.3094100000000 1.0
C      1  0.3596660000000  0.4726950000000  0.6381140000000 1.0
END
