TITL C-986976-6631-1128 0.00948923823724424 3375 -347.72605012541 0 0 60 (C1) n - 1
REM
REM in /home/bkarasulu/work/CARBON/AIRSS/Generating-Clusters/REBO/Higher-Symm/Only-C60
REM
REM
REM
REM
REM
REM ./C.cell (a2850807a9bf4ad07a5b6933b78d9264)
REM AIRSS Version 0.9.1 bugfix July 2018 build 013d7b7c2542+ Fri, 06 Jul 2018 19:26:36 +0100
REM compiler GCC version 9.2.1 20190827 (Red Hat 9.2.1-1)
REM options -cpp -mtune=generic -march=x86-64 -g -O0 -fpre-include=/usr/include/finclude/math-vector-fortran.h
REM seed -1694978028 1299972373 -612868199 -746636492 1032263805 -1214277245 503277103 790690953 -1970228908 -1520292681 -1155454978 -485577596 1330722049 1002692442 1540762416 -953407672 1278875954 1711451606 -1014232462 -883509903 -848889944 -762302099 731716216 -2097369685 -1083664763 -1909540187 -887484604 1070633276 1182085840 -784160310 -55939374 1920552602 1123316717
REM
CELL 1.54180   15.00000   15.00000   15.00000   90.00000   90.00000   90.00000
LATT -1
SFAC C  
C      1  0.6906490000000  0.4850090000000  0.4512500000000 1.0
C      1  0.6933570000000  0.5137140000000  0.5505770000000 1.0
C      1  0.3060950000000  0.4850390000000  0.4506870000000 1.0
C      1  0.3085430000000  0.5161230000000  0.5488160000000 1.0
C      1  0.5430160000000  0.5607130000000  0.4559380000000 1.0
C      1  0.5501870000000  0.4402410000000  0.5464430000000 1.0
C      1  0.4510560000000  0.5611030000000  0.4519510000000 1.0
C      1  0.4581920000000  0.4400030000000  0.5443290000000 1.0
C      1  0.6858950000000  0.3162530000000  0.4245200000000 1.0
C      1  0.6943510000000  0.6799320000000  0.5838590000000 1.0
C      1  0.3064740000000  0.3180070000000  0.4201590000000 1.0
C      1  0.3148990000000  0.6851440000000  0.5708720000000 1.0
C      1  0.4065940000000  0.4781980000000  0.4146980000000 1.0
C      1  0.4105750000000  0.5207850000000  0.5833000000000 1.0
C      1  0.5887170000000  0.4786360000000  0.4169670000000 1.0
C      1  0.5927830000000  0.5226700000000  0.5870530000000 1.0
C      1  0.3916730000000  0.5727020000000  0.3220380000000 1.0
C      1  0.3950190000000  0.4243360000000  0.6737780000000 1.0
C      1  0.5964510000000  0.5814740000000  0.3328510000000 1.0
C      1  0.6003350000000  0.4204340000000  0.6719650000000 1.0
C      1  0.3136830000000  0.5623440000000  0.3705190000000 1.0
C      1  0.3166560000000  0.4372180000000  0.6267010000000 1.0
C      1  0.6776390000000  0.5686410000000  0.3762970000000 1.0
C      1  0.6816270000000  0.4329520000000  0.6285290000000 1.0
C      1  0.4511460000000  0.3846050000000  0.4105920000000 1.0
C      1  0.4564650000000  0.6148840000000  0.5868850000000 1.0
C      1  0.5430650000000  0.3849150000000  0.4109050000000 1.0
C      1  0.5483360000000  0.6155040000000  0.5904750000000 1.0
C      1  0.4075140000000  0.4155490000000  0.2456160000000 1.0
C      1  0.4063960000000  0.5809060000000  0.7536830000000 1.0
C      1  0.5936510000000  0.4258930000000  0.2449650000000 1.0
C      1  0.5924720000000  0.5761290000000  0.7575390000000 1.0
C      1  0.5888800000000  0.6390210000000  0.4566790000000 1.0
C      1  0.5992350000000  0.3639800000000  0.5497510000000 1.0
C      1  0.4054770000000  0.6388880000000  0.4428000000000 1.0
C      1  0.4161450000000  0.3600020000000  0.5478140000000 1.0
C      1  0.4594670000000  0.7482180000000  0.5026790000000 1.0
C      1  0.4445830000000  0.2458250000000  0.4854600000000 1.0
C      1  0.5590980000000  0.7563770000000  0.5209330000000 1.0
C      1  0.5454410000000  0.2507040000000  0.4934670000000 1.0
C      1  0.4614960000000  0.2695800000000  0.5951830000000 1.0
C      1  0.4440720000000  0.7307310000000  0.3936220000000 1.0
C      1  0.5749420000000  0.2652720000000  0.5977570000000 1.0
C      1  0.5559680000000  0.7358070000000  0.4118400000000 1.0
C      1  0.7412320000000  0.6027540000000  0.5704370000000 1.0
C      1  0.7343830000000  0.3934110000000  0.4316770000000 1.0
C      1  0.2655980000000  0.6082860000000  0.5666910000000 1.0
C      1  0.2592660000000  0.3952990000000  0.4318030000000 1.0
C      1  0.5482500000000  0.4869120000000  0.3118160000000 1.0
C      1  0.5499820000000  0.5135810000000  0.6903080000000 1.0
C      1  0.4466650000000  0.4822020000000  0.3105750000000 1.0
C      1  0.4483680000000  0.5156890000000  0.6888660000000 1.0
C      1  0.4001700000000  0.3063920000000  0.4270640000000 1.0
C      1  0.4090880000000  0.6936530000000  0.5640110000000 1.0
C      1  0.5917110000000  0.3059940000000  0.4300650000000 1.0
C      1  0.6008430000000  0.6930780000000  0.5777610000000 1.0
C      1  0.4422380000000  0.6500950000000  0.3154480000000 1.0
C      1  0.4470190000000  0.3476870000000  0.6765670000000 1.0
C      1  0.5403130000000  0.6570330000000  0.3341300000000 1.0
C      1  0.5465580000000  0.3434740000000  0.6700360000000 1.0
END
