TITL C-986978-6805-508 -9.40739002038511e-06 3375 -331.494975471654 0 0 60 (C3) n - 1
REM
REM in /home/bkarasulu/work/CARBON/AIRSS/Generating-Clusters/REBO/Higher-Symm/Only-C60
REM
REM
REM
REM
REM
REM ./C.cell (a2850807a9bf4ad07a5b6933b78d9264)
REM AIRSS Version 0.9.1 bugfix July 2018 build 013d7b7c2542+ Fri, 06 Jul 2018 19:26:36 +0100
REM compiler GCC version 9.2.1 20190827 (Red Hat 9.2.1-1)
REM options -cpp -mtune=generic -march=x86-64 -g -O0 -fpre-include=/usr/include/finclude/math-vector-fortran.h
REM seed -974094082 -874678125 589079406 1684575912 702782507 641682919 328162979 451411722 198865033 -856853183 -2130957771 763242018 -2122693470 -1547526645 689211529 -984656356 -1930476550 560213630 -190494661 -1631809277 2131496829 -902094323 -527120332 982947635 143950713 924156504 1742689809 -954478273 -1095996510 226279720 124175020 -1006633840 -362029295
REM
CELL 1.54180   15.00000   15.00000   15.00000   90.00000   90.00000   90.00000
LATT -1
SFAC C  
C      1  0.6744120000000  0.3848140000000  0.6115500000000 1.0
C      1  0.3130400000000  0.4065480000000  0.6115500000000 1.0
C      1  0.5125490000000  0.7086390000000  0.6115490000000 1.0
C      1  0.5238360000000  0.2631660000000  0.4566550000000 1.0
C      1  0.2829780000000  0.5977750000000  0.4566540000000 1.0
C      1  0.6931860000000  0.6390590000000  0.4566530000000 1.0
C      1  0.6180670000000  0.7054720000000  0.4884220000000 1.0
C      1  0.6189110000000  0.2950150000000  0.4884230000000 1.0
C      1  0.2630230000000  0.4995130000000  0.4884230000000 1.0
C      1  0.3437670000000  0.6158390000000  0.3653100000000 1.0
C      1  0.6784360000000  0.5773820000000  0.3653100000000 1.0
C      1  0.4777970000000  0.3067780000000  0.3653110000000 1.0
C      1  0.4615550000000  0.4165850000000  0.3673090000000 1.0
C      1  0.4469830000000  0.5750010000000  0.3673080000000 1.0
C      1  0.5914620000000  0.5084130000000  0.3673080000000 1.0
C      1  0.4889100000000  0.5644830000000  0.2628380000000 1.0
C      1  0.5613890000000  0.4773610000000  0.2628380000000 1.0
C      1  0.4497000000000  0.4581530000000  0.2628390000000 1.0
C      1  0.7245940000000  0.5172840000000  0.5178370000000 1.0
C      1  0.4026710000000  0.2968540000000  0.5178380000000 1.0
C      1  0.3727340000000  0.6858630000000  0.5178370000000 1.0
C      1  0.6113150000000  0.3149340000000  0.5889080000000 1.0
C      1  0.2840710000000  0.4961320000000  0.5889080000000 1.0
C      1  0.6046150000000  0.6889340000000  0.5889070000000 1.0
C      1  0.6138840000000  0.3979790000000  0.2966920000000 1.0
C      1  0.3547050000000  0.4523830000000  0.2966920000000 1.0
C      1  0.5314100000000  0.6496360000000  0.2966910000000 1.0
C      1  0.5114200000000  0.5758250000000  0.4553400000000 1.0
C      1  0.5599560000000  0.4521970000000  0.4553400000000 1.0
C      1  0.4286240000000  0.4719770000000  0.4553400000000 1.0
C      1  0.5287360000000  0.7299630000000  0.4578960000000 1.0
C      1  0.6847870000000  0.3601320000000  0.4578970000000 1.0
C      1  0.2864780000000  0.4099040000000  0.4578980000000 1.0
C      1  0.5791320000000  0.4767480000000  0.6258240000000 1.0
C      1  0.4402970000000  0.4430960000000  0.6258240000000 1.0
C      1  0.4805710000000  0.5801570000000  0.6258240000000 1.0
C      1  0.7090990000000  0.4239660000000  0.5285200000000 1.0
C      1  0.3296030000000  0.3569320000000  0.5285200000000 1.0
C      1  0.4612980000000  0.7191020000000  0.5285190000000 1.0
C      1  0.4625650000000  0.6772100000000  0.6914050000000 1.0
C      1  0.6721860000000  0.4438160000000  0.6914050000000 1.0
C      1  0.3652500000000  0.3789760000000  0.6914060000000 1.0
C      1  0.3803280000000  0.5108510000000  0.6794010000000 1.0
C      1  0.5692330000000  0.5982140000000  0.6794010000000 1.0
C      1  0.5504400000000  0.3909360000000  0.6794020000000 1.0
C      1  0.3965060000000  0.5998300000000  0.7082770000000 1.0
C      1  0.6382020000000  0.5397150000000  0.7082770000000 1.0
C      1  0.4652930000000  0.3604570000000  0.7082770000000 1.0
C      1  0.5757510000000  0.6203260000000  0.3773270000000 1.0
C      1  0.5663290000000  0.3742340000000  0.3773280000000 1.0
C      1  0.3579190000000  0.5054390000000  0.3773280000000 1.0
C      1  0.3225580000000  0.7014350000000  0.4308070000000 1.0
C      1  0.7631690000000  0.5529510000000  0.4308070000000 1.0
C      1  0.4142720000000  0.2456130000000  0.4308080000000 1.0
C      1  0.5057510000000  0.3217570000000  0.5523220000000 1.0
C      1  0.3427620000000  0.5841420000000  0.5523210000000 1.0
C      1  0.6514880000000  0.5941020000000  0.5523210000000 1.0
C      1  0.5727800000000  0.5245840000000  0.5373590000000 1.0
C      1  0.4849000000000  0.4246790000000  0.5373590000000 1.0
C      1  0.4423200000000  0.5507380000000  0.5373590000000 1.0
END
