TITL C-986979-5873-132 0.0274257852091309 3375 -374.544906837326 0 0 60 (C1) n - 1
REM
REM in /home/bkarasulu/work/CARBON/AIRSS/Generating-Clusters/REBO/Higher-Symm/Only-C60
REM
REM
REM
REM
REM
REM ./C.cell (a2850807a9bf4ad07a5b6933b78d9264)
REM AIRSS Version 0.9.1 bugfix July 2018 build 013d7b7c2542+ Fri, 06 Jul 2018 19:26:36 +0100
REM compiler GCC version 9.2.1 20190827 (Red Hat 9.2.1-1)
REM options -cpp -mtune=generic -march=x86-64 -g -O0 -fpre-include=/usr/include/finclude/math-vector-fortran.h
REM seed -2145784243 1587393732 -311334705 -1396715402 -1354125521 1129516841 1195559787 -671655815 -1028688615 851537057 1266708759 1458217099 107668176 1880630234 1701447737 1888666873 -1561939402 516663181 2143098078 -919618792 733049499 -289925497 1129436237 -2077471768 -1256363295 -1197352725 -878168555 238290030 682395920 -9992711 1114489912 -1090802962 703697669
REM
CELL 1.54180   15.00000   15.00000   15.00000   90.00000   90.00000   90.00000
LATT -1
SFAC C  
C      1  0.3494630000000  0.5505680000000  0.6878440000000 1.0
C      1  0.3622990000000  0.6943040000000  0.5482180000000 1.0
C      1  0.3491070000000  0.6354320000000  0.3672080000000 1.0
C      1  0.3493550000000  0.4494890000000  0.3127590000000 1.0
C      1  0.3621310000000  0.3047220000000  0.4517780000000 1.0
C      1  0.3479520000000  0.3633770000000  0.6324460000000 1.0
C      1  0.3434670000000  0.4438940000000  0.6780830000000 1.0
C      1  0.3614040000000  0.3024310000000  0.5464850000000 1.0
C      1  0.3526660000000  0.3698990000000  0.3647110000000 1.0
C      1  0.3441450000000  0.5556940000000  0.3210070000000 1.0
C      1  0.3616710000000  0.6965540000000  0.4532160000000 1.0
C      1  0.3536860000000  0.6293710000000  0.6352880000000 1.0
C      1  0.6456220000000  0.6389800000000  0.3566100000000 1.0
C      1  0.6380710000000  0.4486720000000  0.3084980000000 1.0
C      1  0.6562800000000  0.3202780000000  0.4534320000000 1.0
C      1  0.6435630000000  0.3639990000000  0.6442370000000 1.0
C      1  0.6413270000000  0.5546610000000  0.6871060000000 1.0
C      1  0.6566620000000  0.6817730000000  0.5463830000000 1.0
C      1  0.6432940000000  0.3652090000000  0.3557160000000 1.0
C      1  0.6418680000000  0.5551820000000  0.3149960000000 1.0
C      1  0.6567480000000  0.6823200000000  0.4532520000000 1.0
C      1  0.6454300000000  0.6379270000000  0.6433080000000 1.0
C      1  0.6391060000000  0.4475810000000  0.6892990000000 1.0
C      1  0.6563550000000  0.3197020000000  0.5469190000000 1.0
C      1  0.4162300000000  0.2931540000000  0.6672340000000 1.0
C      1  0.4120060000000  0.5554610000000  0.7744230000000 1.0
C      1  0.4306740000000  0.7660890000000  0.5891340000000 1.0
C      1  0.4171020000000  0.7057130000000  0.3328850000000 1.0
C      1  0.4107120000000  0.4442060000000  0.2269840000000 1.0
C      1  0.4309740000000  0.2334100000000  0.4110570000000 1.0
C      1  0.4187640000000  0.7036530000000  0.6682770000000 1.0
C      1  0.4079150000000  0.4551520000000  0.7581660000000 1.0
C      1  0.4309150000000  0.2317730000000  0.5875980000000 1.0
C      1  0.4177870000000  0.2952620000000  0.3318780000000 1.0
C      1  0.4088410000000  0.5444760000000  0.2412850000000 1.0
C      1  0.4305780000000  0.7676960000000  0.4121780000000 1.0
C      1  0.5795640000000  0.7103670000000  0.6863430000000 1.0
C      1  0.5912140000000  0.7488650000000  0.4071190000000 1.0
C      1  0.5726710000000  0.5452120000000  0.2386170000000 1.0
C      1  0.5785360000000  0.2909450000000  0.3133740000000 1.0
C      1  0.5913850000000  0.2531260000000  0.5932590000000 1.0
C      1  0.5695010000000  0.4494240000000  0.7690250000000 1.0
C      1  0.5769460000000  0.2917550000000  0.6868610000000 1.0
C      1  0.5919940000000  0.2538880000000  0.4068960000000 1.0
C      1  0.5709980000000  0.4451660000000  0.2266870000000 1.0
C      1  0.5780240000000  0.7094740000000  0.3133760000000 1.0
C      1  0.5917980000000  0.7482320000000  0.5926710000000 1.0
C      1  0.5737020000000  0.5501300000000  0.7660290000000 1.0
C      1  0.4945920000000  0.6034860000000  0.7722250000000 1.0
C      1  0.5153100000000  0.7839310000000  0.5480080000000 1.0
C      1  0.4928840000000  0.6816000000000  0.2793890000000 1.0
C      1  0.4912240000000  0.3944200000000  0.2259520000000 1.0
C      1  0.5161070000000  0.2167870000000  0.4519430000000 1.0
C      1  0.4911700000000  0.3175710000000  0.7209370000000 1.0
C      1  0.4874360000000  0.4015900000000  0.7655290000000 1.0
C      1  0.5160670000000  0.2162090000000  0.5472600000000 1.0
C      1  0.4936280000000  0.3145100000000  0.2771220000000 1.0
C      1  0.4904710000000  0.5960190000000  0.2362190000000 1.0
C      1  0.5153210000000  0.7844950000000  0.4527730000000 1.0
C      1  0.4952890000000  0.6847340000000  0.7224860000000 1.0
END
