TITL C-986979-5873-539 2.21669918493381e-06 3375 -336.845720916053 0 0 60 (C1) n - 1
REM
REM in /home/bkarasulu/work/CARBON/AIRSS/Generating-Clusters/REBO/Higher-Symm/Only-C60
REM
REM
REM
REM
REM
REM ./C.cell (a2850807a9bf4ad07a5b6933b78d9264)
REM AIRSS Version 0.9.1 bugfix July 2018 build 013d7b7c2542+ Fri, 06 Jul 2018 19:26:36 +0100
REM compiler GCC version 9.2.1 20190827 (Red Hat 9.2.1-1)
REM options -cpp -mtune=generic -march=x86-64 -g -O0 -fpre-include=/usr/include/finclude/math-vector-fortran.h
REM seed -1554831933 -63226310 -275142019 1609222116 -1993919820 1215703909 1945499812 -917104542 -1295957035 -1700251193 1602559247 1342493692 -462079226 -1280870885 1044083788 584285111 -2012785961 414764087 -1193008199 484277028 -1101978937 -1928736058 1497354937 -1548882799 1635751810 -2077868892 1541574931 785669699 641753716 1528448014 -2045142444 -2103090186 960218308
REM
CELL 1.54180   15.00000   15.00000   15.00000   90.00000   90.00000   90.00000
LATT -1
SFAC C  
C      1  0.5893010000000  0.4304140000000  0.5278230000000 1.0
C      1  0.4158060000000  0.4426800000000  0.4992070000000 1.0
C      1  0.4056460000000  0.5727070000000  0.4734270000000 1.0
C      1  0.5807170000000  0.5605700000000  0.5024730000000 1.0
C      1  0.4921280000000  0.4250910000000  0.5813850000000 1.0
C      1  0.5140620000000  0.4331950000000  0.4458800000000 1.0
C      1  0.5071350000000  0.5713850000000  0.4242590000000 1.0
C      1  0.4795420000000  0.5602550000000  0.5541760000000 1.0
C      1  0.4381610000000  0.3917900000000  0.7695890000000 1.0
C      1  0.5655440000000  0.4048190000000  0.2305870000000 1.0
C      1  0.5704170000000  0.6073170000000  0.7491660000000 1.0
C      1  0.4318890000000  0.5928150000000  0.2465200000000 1.0
C      1  0.7630680000000  0.3939050000000  0.4341710000000 1.0
C      1  0.2382320000000  0.3980240000000  0.5686620000000 1.0
C      1  0.7788240000000  0.6010130000000  0.5604240000000 1.0
C      1  0.2184340000000  0.6096250000000  0.4362230000000 1.0
C      1  0.6373350000000  0.5487220000000  0.4087530000000 1.0
C      1  0.3466620000000  0.5575810000000  0.5614670000000 1.0
C      1  0.3375960000000  0.4591140000000  0.4233650000000 1.0
C      1  0.6692370000000  0.4463370000000  0.5995720000000 1.0
C      1  0.4158660000000  0.5393600000000  0.6458040000000 1.0
C      1  0.5648010000000  0.5654070000000  0.3268120000000 1.0
C      1  0.4334410000000  0.4508050000000  0.3680480000000 1.0
C      1  0.5741320000000  0.4412730000000  0.6587410000000 1.0
C      1  0.5715740000000  0.3869330000000  0.3615330000000 1.0
C      1  0.4400810000000  0.3473260000000  0.6453480000000 1.0
C      1  0.4434090000000  0.6437300000000  0.3679350000000 1.0
C      1  0.5498630000000  0.6166850000000  0.6187050000000 1.0
C      1  0.3687580000000  0.3755240000000  0.5718270000000 1.0
C      1  0.6333870000000  0.3739950000000  0.4494240000000 1.0
C      1  0.3447330000000  0.6422560000000  0.4143120000000 1.0
C      1  0.6473120000000  0.6139140000000  0.5677400000000 1.0
C      1  0.2977390000000  0.6465110000000  0.5782680000000 1.0
C      1  0.6966200000000  0.6350960000000  0.4070040000000 1.0
C      1  0.7126730000000  0.3526970000000  0.5984020000000 1.0
C      1  0.2971500000000  0.3629740000000  0.4170670000000 1.0
C      1  0.5926650000000  0.6596190000000  0.2852170000000 1.0
C      1  0.4064260000000  0.6305570000000  0.6971860000000 1.0
C      1  0.5907190000000  0.3505310000000  0.7084970000000 1.0
C      1  0.4201930000000  0.3633720000000  0.3127300000000 1.0
C      1  0.4943960000000  0.6657850000000  0.2746390000000 1.0
C      1  0.4968910000000  0.6588430000000  0.7066600000000 1.0
C      1  0.5079790000000  0.3422450000000  0.2832240000000 1.0
C      1  0.5022350000000  0.3231990000000  0.7318440000000 1.0
C      1  0.2689080000000  0.6753320000000  0.4921880000000 1.0
C      1  0.7242820000000  0.6530300000000  0.4952720000000 1.0
C      1  0.2843580000000  0.3350770000000  0.5072510000000 1.0
C      1  0.7233720000000  0.3342940000000  0.5049500000000 1.0
C      1  0.2899650000000  0.5458450000000  0.3854640000000 1.0
C      1  0.7129870000000  0.5401520000000  0.6220810000000 1.0
C      1  0.6838160000000  0.4537910000000  0.3860280000000 1.0
C      1  0.3109720000000  0.4678000000000  0.6077400000000 1.0
C      1  0.3892520000000  0.5442380000000  0.3354040000000 1.0
C      1  0.6143910000000  0.5411450000000  0.6742920000000 1.0
C      1  0.3892700000000  0.4431570000000  0.6847750000000 1.0
C      1  0.6128160000000  0.4740070000000  0.3014670000000 1.0
C      1  0.6722530000000  0.6876340000000  0.3302290000000 1.0
C      1  0.3303220000000  0.6785740000000  0.6627200000000 1.0
C      1  0.6709590000000  0.3089540000000  0.6746510000000 1.0
C      1  0.3392960000000  0.3209720000000  0.3413910000000 1.0
END
