TITL C-986979-5873-17 0.216056481056504 3375 -342.459269348859 0 0 60 (C1) n - 1
REM
REM in /home/bkarasulu/work/CARBON/AIRSS/Generating-Clusters/REBO/Higher-Symm/Only-C60
REM
REM
REM
REM
REM
REM ./C.cell (a2850807a9bf4ad07a5b6933b78d9264)
REM AIRSS Version 0.9.1 bugfix July 2018 build 013d7b7c2542+ Fri, 06 Jul 2018 19:26:36 +0100
REM compiler GCC version 9.2.1 20190827 (Red Hat 9.2.1-1)
REM options -cpp -mtune=generic -march=x86-64 -g -O0 -fpre-include=/usr/include/finclude/math-vector-fortran.h
REM seed -2138198173 -1597358257 1618018061 -1524006004 -1116084995 848733053 1019492012 675063296 -28452782 -618888878 692206568 706477760 18464286 1741288753 1516211545 1757319590 -1370667317 1456964760 -1510541197 -2037342380 936382976 -1076947012 -1337556625 -1364488604 1546359424 -15753626 1741241639 1863420885 -2085612863 -1058657103 82935959 -1933601558 -579466968
REM
CELL 1.54180   15.00000   15.00000   15.00000   90.00000   90.00000   90.00000
LATT -1
SFAC C  
C      1  0.6169740000000  0.7078830000000  0.5595390000000 1.0
C      1  0.7203540000000  0.4528810000000  0.5642050000000 1.0
C      1  0.5273610000000  0.2608150000000  0.5583510000000 1.0
C      1  0.2964000000000  0.4071210000000  0.5643810000000 1.0
C      1  0.3460330000000  0.6757360000000  0.5620060000000 1.0
C      1  0.4125050000000  0.7412500000000  0.5587410000000 1.0
C      1  0.6954560000000  0.6575400000000  0.5610970000000 1.0
C      1  0.7078070000000  0.3611080000000  0.5606560000000 1.0
C      1  0.4341940000000  0.2528690000000  0.5589550000000 1.0
C      1  0.2537470000000  0.4899560000000  0.5638340000000 1.0
C      1  0.6331410000000  0.5017580000000  0.3870020000000 1.0
C      1  0.5411020000000  0.3744820000000  0.3882020000000 1.0
C      1  0.3943940000000  0.4204930000000  0.3878370000000 1.0
C      1  0.3910820000000  0.5767230000000  0.3873130000000 1.0
C      1  0.5395070000000  0.6251580000000  0.3894320000000 1.0
C      1  0.3855380000000  0.4981220000000  0.4488590000000 1.0
C      1  0.4619040000000  0.6080590000000  0.4489230000000 1.0
C      1  0.5931360000000  0.5681660000000  0.4511960000000 1.0
C      1  0.5943110000000  0.4341050000000  0.4470570000000 1.0
C      1  0.4657490000000  0.3905220000000  0.4535090000000 1.0
C      1  0.3773610000000  0.7097590000000  0.4342530000000 1.0
C      1  0.6617620000000  0.6808520000000  0.4338720000000 1.0
C      1  0.7228700000000  0.4027010000000  0.4350740000000 1.0
C      1  0.4764720000000  0.2602670000000  0.4325880000000 1.0
C      1  0.2628270000000  0.4486760000000  0.4356780000000 1.0
C      1  0.5264910000000  0.4182690000000  0.2985250000000 1.0
C      1  0.4307770000000  0.4490650000000  0.2987950000000 1.0
C      1  0.4300260000000  0.5501940000000  0.2984790000000 1.0
C      1  0.5261030000000  0.5818830000000  0.2992780000000 1.0
C      1  0.5858040000000  0.5005380000000  0.2982680000000 1.0
C      1  0.4086200000000  0.4832770000000  0.5480570000000 1.0
C      1  0.4564720000000  0.5765340000000  0.5455860000000 1.0
C      1  0.5630830000000  0.5624090000000  0.5526980000000 1.0
C      1  0.5772950000000  0.4593570000000  0.5418580000000 1.0
C      1  0.4826240000000  0.4108320000000  0.5585700000000 1.0
C      1  0.3792010000000  0.3906380000000  0.6406810000000 1.0
C      1  0.3650160000000  0.6036520000000  0.6442050000000 1.0
C      1  0.5507340000000  0.6856130000000  0.6440740000000 1.0
C      1  0.6552580000000  0.5069920000000  0.6387110000000 1.0
C      1  0.5665170000000  0.3162310000000  0.6448840000000 1.0
C      1  0.6782600000000  0.3320690000000  0.4329430000000 1.0
C      1  0.3953240000000  0.2804300000000  0.4345050000000 1.0
C      1  0.2578810000000  0.5322870000000  0.4351730000000 1.0
C      1  0.4554810000000  0.7400940000000  0.4326740000000 1.0
C      1  0.7157130000000  0.6168800000000  0.4355690000000 1.0
C      1  0.4791140000000  0.3809090000000  0.6675370000000 1.0
C      1  0.3595190000000  0.4973510000000  0.6438370000000 1.0
C      1  0.4716140000000  0.6093940000000  0.6503900000000 1.0
C      1  0.5803740000000  0.5794550000000  0.6635570000000 1.0
C      1  0.5812180000000  0.4259900000000  0.6469490000000 1.0
C      1  0.3131500000000  0.3515400000000  0.4666020000000 1.0
C      1  0.3007150000000  0.6324470000000  0.4667850000000 1.0
C      1  0.5649450000000  0.7332440000000  0.4618020000000 1.0
C      1  0.7380920000000  0.5103470000000  0.4676920000000 1.0
C      1  0.5853220000000  0.2733940000000  0.4615400000000 1.0
C      1  0.3644180000000  0.3147970000000  0.5612320000000 1.0
C      1  0.2876680000000  0.5769040000000  0.5648590000000 1.0
C      1  0.5057210000000  0.7393140000000  0.5584350000000 1.0
C      1  0.7147280000000  0.5668300000000  0.5635590000000 1.0
C      1  0.6347370000000  0.3038390000000  0.5591310000000 1.0
END
