TITL C-986974-580-1022 -3.81686192735208e-06 3375 -335.951199452728 0 0 60 (C1) n - 1
REM
REM in /home/bkarasulu/work/CARBON/AIRSS/Generating-Clusters/REBO/Higher-Symm/Only-C60
REM
REM
REM
REM
REM
REM ./C.cell (a2850807a9bf4ad07a5b6933b78d9264)
REM AIRSS Version 0.9.1 bugfix July 2018 build 013d7b7c2542+ Fri, 06 Jul 2018 19:26:36 +0100
REM compiler GCC version 9.2.1 20190827 (Red Hat 9.2.1-1)
REM options -cpp -mtune=generic -march=x86-64 -g -O0 -fpre-include=/usr/include/finclude/math-vector-fortran.h
REM seed 1632405603 -926738855 -420000688 -11530231 892650625 -1103123861 898295970 -993393234 779319283 555323137 -2093704680 658290873 -1483851792 -76641280 1742901320 801520902 -1994275503 -1437044928 -986849836 -1539672363 -392675698 1348528679 728418548 -1292656995 2146185038 1534420196 -359611351 -735870258 45616000 -128566436 198369941 -740588188 -465755809
REM
CELL 1.54180   15.00000   15.00000   15.00000   90.00000   90.00000   90.00000
LATT -1
SFAC C  
C      1  0.6018200000000  0.6562190000000  0.6922650000000 1.0
C      1  0.6932370000000  0.6011130000000  0.6560270000000 1.0
C      1  0.6550370000000  0.6885960000000  0.5980960000000 1.0
C      1  0.3990040000000  0.6550220000000  0.3079040000000 1.0
C      1  0.6029470000000  0.3440780000000  0.3046790000000 1.0
C      1  0.4018450000000  0.3461480000000  0.6894850000000 1.0
C      1  0.3122710000000  0.5965120000000  0.3464520000000 1.0
C      1  0.6937210000000  0.3983020000000  0.3445950000000 1.0
C      1  0.3080240000000  0.3985680000000  0.6563140000000 1.0
C      1  0.3460650000000  0.6871350000000  0.4022700000000 1.0
C      1  0.6547670000000  0.3066780000000  0.3979850000000 1.0
C      1  0.3445880000000  0.3060950000000  0.6019800000000 1.0
C      1  0.5012530000000  0.3518690000000  0.6415720000000 1.0
C      1  0.6431330000000  0.4963760000000  0.3529960000000 1.0
C      1  0.3486860000000  0.6429670000000  0.5035260000000 1.0
C      1  0.5043270000000  0.3509080000000  0.3545700000000 1.0
C      1  0.5006020000000  0.6602640000000  0.3494760000000 1.0
C      1  0.5005360000000  0.6597940000000  0.6495790000000 1.0
C      1  0.3563690000000  0.4979370000000  0.6489510000000 1.0
C      1  0.6493500000000  0.5004200000000  0.6591260000000 1.0
C      1  0.3581250000000  0.4961930000000  0.3503580000000 1.0
C      1  0.6510670000000  0.6431060000000  0.4975180000000 1.0
C      1  0.3386250000000  0.3478090000000  0.5007520000000 1.0
C      1  0.6460750000000  0.3579800000000  0.4956190000000 1.0
C      1  0.2774950000000  0.5646170000000  0.5171350000000 1.0
C      1  0.5136350000000  0.2808030000000  0.5644000000000 1.0
C      1  0.5641300000000  0.5127190000000  0.2848640000000 1.0
C      1  0.7222110000000  0.5655840000000  0.4844850000000 1.0
C      1  0.2765450000000  0.4348860000000  0.4910670000000 1.0
C      1  0.7142240000000  0.4366920000000  0.5129550000000 1.0
C      1  0.4856490000000  0.2831970000000  0.4351420000000 1.0
C      1  0.5119790000000  0.7235850000000  0.4348000000000 1.0
C      1  0.4894650000000  0.7230000000000  0.5652020000000 1.0
C      1  0.4361550000000  0.5148350000000  0.7149630000000 1.0
C      1  0.5657650000000  0.4900930000000  0.7225450000000 1.0
C      1  0.4353130000000  0.4836640000000  0.2782860000000 1.0
C      1  0.6228200000000  0.5188900000000  0.4613950000000 1.0
C      1  0.4554280000000  0.6178830000000  0.5321090000000 1.0
C      1  0.5306510000000  0.4576780000000  0.6170820000000 1.0
C      1  0.3758900000000  0.5197150000000  0.5424320000000 1.0
C      1  0.6159990000000  0.4719860000000  0.5569900000000 1.0
C      1  0.3812070000000  0.4636810000000  0.4521880000000 1.0
C      1  0.5456480000000  0.6197830000000  0.4676640000000 1.0
C      1  0.4419840000000  0.3811760000000  0.4678710000000 1.0
C      1  0.5377730000000  0.3797800000000  0.5173580000000 1.0
C      1  0.4834080000000  0.4599020000000  0.3768180000000 1.0
C      1  0.5290640000000  0.5570490000000  0.3845030000000 1.0
C      1  0.4729530000000  0.5537670000000  0.6170570000000 1.0
C      1  0.2603690000000  0.4776080000000  0.5899380000000 1.0
C      1  0.5850050000000  0.2635270000000  0.4765930000000 1.0
C      1  0.4787470000000  0.5862070000000  0.2652010000000 1.0
C      1  0.7379680000000  0.4768860000000  0.4137280000000 1.0
C      1  0.2665130000000  0.5192880000000  0.4152420000000 1.0
C      1  0.7354440000000  0.5215270000000  0.5867670000000 1.0
C      1  0.4128130000000  0.2634470000000  0.5214980000000 1.0
C      1  0.5874270000000  0.7348100000000  0.5195250000000 1.0
C      1  0.4137440000000  0.7333110000000  0.4807980000000 1.0
C      1  0.5213090000000  0.5885780000000  0.7357730000000 1.0
C      1  0.4796570000000  0.4164230000000  0.7326420000000 1.0
C      1  0.5241380000000  0.4133320000000  0.2608910000000 1.0
END
