TITL C-986975-4297-688 0.052532348240844 3375 -345.128483116841 0 0 60 (C1) n - 1
REM
REM in /home/bkarasulu/work/CARBON/AIRSS/Generating-Clusters/REBO/Higher-Symm/Only-C60
REM
REM
REM
REM
REM
REM ./C.cell (a2850807a9bf4ad07a5b6933b78d9264)
REM AIRSS Version 0.9.1 bugfix July 2018 build 013d7b7c2542+ Fri, 06 Jul 2018 19:26:36 +0100
REM compiler GCC version 9.2.1 20190827 (Red Hat 9.2.1-1)
REM options -cpp -mtune=generic -march=x86-64 -g -O0 -fpre-include=/usr/include/finclude/math-vector-fortran.h
REM seed 2053630810 1696783071 138301017 -1659745077 -889395078 -1975015306 2101428892 -1286136384 -47981714 -2093553077 -1036631673 707772687 363568930 -1188999246 -804383645 -286003710 -1064545180 1953988350 1132395770 -1866635192 396682591 -620744926 -211872884 1090565954 322898364 1145662108 1857811634 1285024319 -1732944413 -394240919 -612311120 1784086309 150995642
REM
CELL 1.54180   15.00000   15.00000   15.00000   90.00000   90.00000   90.00000
LATT -1
SFAC C  
C      1  0.5196460000000  0.4520060000000  0.7280240000000 1.0
C      1  0.6643470000000  0.5360840000000  0.5305440000000 1.0
C      1  0.7024280000000  0.6216070000000  0.3732050000000 1.0
C      1  0.3490670000000  0.3112360000000  0.5551800000000 1.0
C      1  0.4679820000000  0.5933200000000  0.5806530000000 1.0
C      1  0.6943570000000  0.3583590000000  0.5079700000000 1.0
C      1  0.4832960000000  0.4494580000000  0.3730340000000 1.0
C      1  0.4624330000000  0.2891480000000  0.4384240000000 1.0
C      1  0.5534950000000  0.3064500000000  0.5681500000000 1.0
C      1  0.2347490000000  0.5684800000000  0.5523270000000 1.0
C      1  0.4010010000000  0.6019500000000  0.4969290000000 1.0
C      1  0.5753600000000  0.6239990000000  0.6662290000000 1.0
C      1  0.6240130000000  0.6508380000000  0.3104200000000 1.0
C      1  0.5049930000000  0.7074740000000  0.4420490000000 1.0
C      1  0.6296220000000  0.4628410000000  0.7066650000000 1.0
C      1  0.6670920000000  0.5258920000000  0.3977140000000 1.0
C      1  0.7656450000000  0.4344780000000  0.3732180000000 1.0
C      1  0.4439190000000  0.4596500000000  0.2921950000000 1.0
C      1  0.5479500000000  0.2655380000000  0.4821470000000 1.0
C      1  0.3060050000000  0.3346340000000  0.7293260000000 1.0
C      1  0.7345010000000  0.4794900000000  0.4695700000000 1.0
C      1  0.6991970000000  0.3599080000000  0.4142970000000 1.0
C      1  0.3690960000000  0.4890260000000  0.2499290000000 1.0
C      1  0.5536880000000  0.5270540000000  0.4104450000000 1.0
C      1  0.3481210000000  0.3145470000000  0.6531510000000 1.0
C      1  0.5691940000000  0.5745380000000  0.2870040000000 1.0
C      1  0.6206550000000  0.4922240000000  0.3013270000000 1.0
C      1  0.3725990000000  0.5936170000000  0.6285350000000 1.0
C      1  0.5698890000000  0.5489650000000  0.7183870000000 1.0
C      1  0.7035590000000  0.6420730000000  0.5400450000000 1.0
C      1  0.4783480000000  0.5784620000000  0.3419420000000 1.0
C      1  0.6150060000000  0.3786110000000  0.5682600000000 1.0
C      1  0.4119760000000  0.4537250000000  0.6962670000000 1.0
C      1  0.3351700000000  0.6891360000000  0.4985020000000 1.0
C      1  0.4637010000000  0.3607970000000  0.7003260000000 1.0
C      1  0.7029730000000  0.4459010000000  0.6544260000000 1.0
C      1  0.3397610000000  0.3845200000000  0.4934310000000 1.0
C      1  0.4221190000000  0.2517800000000  0.5235490000000 1.0
C      1  0.4364730000000  0.3918560000000  0.4405270000000 1.0
C      1  0.5086360000000  0.4997260000000  0.5763790000000 1.0
C      1  0.2426100000000  0.5340550000000  0.4519880000000 1.0
C      1  0.3000880000000  0.5724740000000  0.3758270000000 1.0
C      1  0.5937670000000  0.6071810000000  0.4750340000000 1.0
C      1  0.2972410000000  0.5366560000000  0.2797940000000 1.0
C      1  0.3472140000000  0.6731870000000  0.3982900000000 1.0
C      1  0.4419870000000  0.6733960000000  0.3784170000000 1.0
C      1  0.5979240000000  0.4728430000000  0.5772160000000 1.0
C      1  0.2763330000000  0.4512070000000  0.5073880000000 1.0
C      1  0.6066840000000  0.6430220000000  0.5827070000000 1.0
C      1  0.6749690000000  0.4112260000000  0.3176950000000 1.0
C      1  0.7369340000000  0.4316870000000  0.5694220000000 1.0
C      1  0.3463000000000  0.5054790000000  0.6595200000000 1.0
C      1  0.6031050000000  0.7001840000000  0.4101210000000 1.0
C      1  0.3995100000000  0.5525650000000  0.4138300000000 1.0
C      1  0.4637030000000  0.2952870000000  0.6213000000000 1.0
C      1  0.4530420000000  0.4379410000000  0.5382870000000 1.0
C      1  0.3012640000000  0.6368440000000  0.5778460000000 1.0
C      1  0.2649340000000  0.4819730000000  0.6084210000000 1.0
C      1  0.4935920000000  0.6903840000000  0.5316910000000 1.0
C      1  0.7067360000000  0.6830150000000  0.4545030000000 1.0
END
