TITL C-986976-6631-469 -3.3529251853043e-05 3375 -295.635764189585 0 0 60 (C5) n - 1
REM
REM in /home/bkarasulu/work/CARBON/AIRSS/Generating-Clusters/REBO/Higher-Symm/Only-C60
REM
REM
REM
REM
REM
REM ./C.cell (a2850807a9bf4ad07a5b6933b78d9264)
REM AIRSS Version 0.9.1 bugfix July 2018 build 013d7b7c2542+ Fri, 06 Jul 2018 19:26:36 +0100
REM compiler GCC version 9.2.1 20190827 (Red Hat 9.2.1-1)
REM options -cpp -mtune=generic -march=x86-64 -g -O0 -fpre-include=/usr/include/finclude/math-vector-fortran.h
REM seed -764266822 1690917591 168245369 -2137509817 459277704 1082397589 -1796128661 1772754862 -437665178 -797943490 -1470963644 899750967 -373899493 1748127725 -289646783 1071101874 -1159793851 -382550234 -2045342082 225547448 -1034008114 -415417756 -1147584381 -1215981777 -1675273600 -1147389242 -830050544 -502886378 565202921 -940217272 1814294165 1649312416 1579466516
REM
CELL 1.54180   15.00000   15.00000   15.00000   90.00000   90.00000   90.00000
LATT -1
SFAC C  
C      1  0.4398280000000  0.6185280000000  0.5504810000000 1.0
C      1  0.5941320000000  0.5938550000000  0.5504810000000 1.0
C      1  0.6183500000000  0.4394770000000  0.5504810000000 1.0
C      1  0.4790120000000  0.3687400000000  0.5504810000000 1.0
C      1  0.3686790000000  0.4794000000000  0.5504810000000 1.0
C      1  0.4398280000000  0.6185280000000  0.4495190000000 1.0
C      1  0.5941320000000  0.5938550000000  0.4495190000000 1.0
C      1  0.6183500000000  0.4394770000000  0.4495190000000 1.0
C      1  0.4790120000000  0.3687400000000  0.4495190000000 1.0
C      1  0.3686790000000  0.4794000000000  0.4495190000000 1.0
C      1  0.5623900000000  0.3425310000000  0.7013860000000 1.0
C      1  0.3695180000000  0.3920030000000  0.7013860000000 1.0
C      1  0.3569670000000  0.5907230000000  0.7013860000000 1.0
C      1  0.5420830000000  0.6640670000000  0.7013860000000 1.0
C      1  0.6690420000000  0.5106760000000  0.7013860000000 1.0
C      1  0.5623900000000  0.3425310000000  0.2986140000000 1.0
C      1  0.3695180000000  0.3920030000000  0.2986140000000 1.0
C      1  0.3569670000000  0.5907230000000  0.2986140000000 1.0
C      1  0.5420830000000  0.6640670000000  0.2986140000000 1.0
C      1  0.6690420000000  0.5106760000000  0.2986140000000 1.0
C      1  0.4684890000000  0.7650750000000  0.5426410000000 1.0
C      1  0.7423640000000  0.6118810000000  0.5426410000000 1.0
C      1  0.6813000000000  0.3040720000000  0.5426410000000 1.0
C      1  0.3696860000000  0.2670280000000  0.5426410000000 1.0
C      1  0.2381610000000  0.5519440000000  0.5426410000000 1.0
C      1  0.4684890000000  0.7650750000000  0.4573590000000 1.0
C      1  0.7423640000000  0.6118810000000  0.4573590000000 1.0
C      1  0.6813000000000  0.3040720000000  0.4573590000000 1.0
C      1  0.3696860000000  0.2670280000000  0.4573590000000 1.0
C      1  0.2381610000000  0.5519440000000  0.4573590000000 1.0
C      1  0.3071420000000  0.6814740000000  0.4574660000000 1.0
C      1  0.6129950000000  0.7394980000000  0.4574660000000 1.0
C      1  0.7626930000000  0.4665440000000  0.4574660000000 1.0
C      1  0.5493580000000  0.2398250000000  0.4574660000000 1.0
C      1  0.2678120000000  0.3726590000000  0.4574660000000 1.0
C      1  0.3071420000000  0.6814740000000  0.5425340000000 1.0
C      1  0.6129950000000  0.7394980000000  0.5425340000000 1.0
C      1  0.7626930000000  0.4665440000000  0.5425340000000 1.0
C      1  0.5493580000000  0.2398250000000  0.5425340000000 1.0
C      1  0.2678120000000  0.3726590000000  0.5425340000000 1.0
C      1  0.4127190000000  0.4795930000000  0.6538990000000 1.0
C      1  0.4536210000000  0.5767030000000  0.6538980000000 1.0
C      1  0.5586170000000  0.5678120000000  0.6538980000000 1.0
C      1  0.5826070000000  0.4652070000000  0.6538980000000 1.0
C      1  0.4924360000000  0.4106850000000  0.6538990000000 1.0
C      1  0.4127190000000  0.4795930000000  0.3461010000000 1.0
C      1  0.4536210000000  0.5767030000000  0.3461020000000 1.0
C      1  0.5586170000000  0.5678120000000  0.3461020000000 1.0
C      1  0.5826070000000  0.4652070000000  0.3461020000000 1.0
C      1  0.4924360000000  0.4106850000000  0.3461010000000 1.0
C      1  0.5834490000000  0.3375380000000  0.4098220000000 1.0
C      1  0.3712770000000  0.3704310000000  0.4098220000000 1.0
C      1  0.3369950000000  0.5823840000000  0.4098220000000 1.0
C      1  0.5279810000000  0.6804850000000  0.4098220000000 1.0
C      1  0.6802980000000  0.5291610000000  0.4098220000000 1.0
C      1  0.5834490000000  0.3375380000000  0.5901780000000 1.0
C      1  0.3712770000000  0.3704310000000  0.5901780000000 1.0
C      1  0.3369950000000  0.5823840000000  0.5901780000000 1.0
C      1  0.5279810000000  0.6804850000000  0.5901780000000 1.0
C      1  0.6802980000000  0.5291610000000  0.5901780000000 1.0
END
