TITL C-986974-580-649 -8.98116203090255e-07 3375 -372.962471971045 0 0 60 (D6d) n - 1
REM
REM in /home/bkarasulu/work/CARBON/AIRSS/Generating-Clusters/REBO/Higher-Symm/Only-C60
REM
REM
REM
REM
REM
REM ./C.cell (a2850807a9bf4ad07a5b6933b78d9264)
REM AIRSS Version 0.9.1 bugfix July 2018 build 013d7b7c2542+ Fri, 06 Jul 2018 19:26:36 +0100
REM compiler GCC version 9.2.1 20190827 (Red Hat 9.2.1-1)
REM options -cpp -mtune=generic -march=x86-64 -g -O0 -fpre-include=/usr/include/finclude/math-vector-fortran.h
REM seed 1953089312 960960599 2120068808 -149756818 2144358744 195556205 1496212252 -1153335447 -1900931996 -909353129 914403636 1288118993 -1993497521 1620947803 204118677 -1572054711 480677675 1540366761 1178846632 1726257268 1442314017 -558700646 -378467944 1246848164 -179761063 -483904701 -1647527804 1959013890 1936295150 -1104039653 87131913 -1263141354 530620639
REM
CELL 1.54180   15.00000   15.00000   15.00000   90.00000   90.00000   90.00000
LATT -1
SFAC C  
C      1  0.5865950000000  0.5336630000000  0.4049160000000 1.0
C      1  0.5918260000000  0.4858550000000  0.5950850000000 1.0
C      1  0.5724510000000  0.4418370000000  0.4049150000000 1.0
C      1  0.5336630000000  0.4134040000000  0.5950840000000 1.0
C      1  0.4858550000000  0.4081740000000  0.4049150000000 1.0
C      1  0.4418370000000  0.4275490000000  0.5950850000000 1.0
C      1  0.4134040000000  0.4663370000000  0.4049160000000 1.0
C      1  0.4081740000000  0.5141450000000  0.5950850000000 1.0
C      1  0.4275490000000  0.5581630000000  0.4049150000000 1.0
C      1  0.4663370000000  0.5865950000000  0.5950840000000 1.0
C      1  0.5141450000000  0.5918260000000  0.4049150000000 1.0
C      1  0.5581630000000  0.5724510000000  0.5950850000000 1.0
C      1  0.5839000000000  0.2841710000000  0.6156090000000 1.0
C      1  0.4647460000000  0.2711420000000  0.3843870000000 1.0
C      1  0.3550400000000  0.3194260000000  0.6156110000000 1.0
C      1  0.2841710000000  0.4161000000000  0.3843910000000 1.0
C      1  0.2711420000000  0.5352540000000  0.6156130000000 1.0
C      1  0.3194260000000  0.6449600000000  0.3843890000000 1.0
C      1  0.4161000000000  0.7158290000000  0.6156090000000 1.0
C      1  0.5352540000000  0.7288580000000  0.3843870000000 1.0
C      1  0.6449600000000  0.6805740000000  0.6156110000000 1.0
C      1  0.7158290000000  0.5839000000000  0.3843910000000 1.0
C      1  0.7288580000000  0.4647460000000  0.6156130000000 1.0
C      1  0.6805740000000  0.3550400000000  0.3843890000000 1.0
C      1  0.6637090000000  0.5636400000000  0.4723890000000 1.0
C      1  0.6735960000000  0.4732590000000  0.5276100000000 1.0
C      1  0.6369680000000  0.3900440000000  0.4723890000000 1.0
C      1  0.5636400000000  0.3362910000000  0.5276110000000 1.0
C      1  0.4732590000000  0.3264040000000  0.4723900000000 1.0
C      1  0.3900440000000  0.3630320000000  0.5276110000000 1.0
C      1  0.3362910000000  0.4363600000000  0.4723890000000 1.0
C      1  0.3264040000000  0.5267410000000  0.5276100000000 1.0
C      1  0.3630320000000  0.6099560000000  0.4723890000000 1.0
C      1  0.4363600000000  0.6637090000000  0.5276110000000 1.0
C      1  0.5267410000000  0.6735960000000  0.4723900000000 1.0
C      1  0.6099560000000  0.6369680000000  0.5276110000000 1.0
C      1  0.7147950000000  0.6322650000000  0.6554810000000 1.0
C      1  0.7521570000000  0.5071470000000  0.3445240000000 1.0
C      1  0.7219410000000  0.3801120000000  0.6554800000000 1.0
C      1  0.6322650000000  0.2852050000000  0.3445190000000 1.0
C      1  0.5071470000000  0.2478430000000  0.6554760000000 1.0
C      1  0.3801120000000  0.2780590000000  0.3445200000000 1.0
C      1  0.2852050000000  0.3677350000000  0.6554810000000 1.0
C      1  0.2478430000000  0.4928530000000  0.3445240000000 1.0
C      1  0.2780590000000  0.6198880000000  0.6554800000000 1.0
C      1  0.3677350000000  0.7147950000000  0.3445190000000 1.0
C      1  0.4928530000000  0.7521570000000  0.6554760000000 1.0
C      1  0.6198880000000  0.7219410000000  0.3445200000000 1.0
C      1  0.7477300000000  0.5475380000000  0.6554820000000 1.0
C      1  0.7383160000000  0.4173030000000  0.3445230000000 1.0
C      1  0.6650360000000  0.3092230000000  0.6554790000000 1.0
C      1  0.5475380000000  0.2522700000000  0.3445180000000 1.0
C      1  0.4173030000000  0.2616840000000  0.6554770000000 1.0
C      1  0.3092230000000  0.3349640000000  0.3445210000000 1.0
C      1  0.2522700000000  0.4524620000000  0.6554820000000 1.0
C      1  0.2616840000000  0.5826970000000  0.3445230000000 1.0
C      1  0.3349640000000  0.6907770000000  0.6554790000000 1.0
C      1  0.4524620000000  0.7477300000000  0.3445180000000 1.0
C      1  0.5826970000000  0.7383160000000  0.6554770000000 1.0
C      1  0.6907770000000  0.6650360000000  0.3445210000000 1.0
END
