TITL C-986975-4297-612 -0.112330792999948 3375 -328.714534463201 0 0 60 (C2) n - 1
REM
REM in /home/bkarasulu/work/CARBON/AIRSS/Generating-Clusters/REBO/Higher-Symm/Only-C60
REM
REM
REM
REM
REM
REM ./C.cell (a2850807a9bf4ad07a5b6933b78d9264)
REM AIRSS Version 0.9.1 bugfix July 2018 build 013d7b7c2542+ Fri, 06 Jul 2018 19:26:36 +0100
REM compiler GCC version 9.2.1 20190827 (Red Hat 9.2.1-1)
REM options -cpp -mtune=generic -march=x86-64 -g -O0 -fpre-include=/usr/include/finclude/math-vector-fortran.h
REM seed 132269162 1676264691 -717388303 1352785539 447220123 -878610662 1846340112 -1799205447 -1057110806 992073350 -222120093 -231648463 -1010777309 -466565722 203737776 472020951 -1720498452 -1225259001 2171223 966599471 -687368531 877380774 835174761 -1717519969 -40962973 525889172 -1006962017 -1136895644 938778412 284817817 -1142803083 578513787 -1209202174
REM
CELL 1.54180   15.00000   15.00000   15.00000   90.00000   90.00000   90.00000
LATT -1
SFAC C  
C      1  0.3556250000000  0.4127950000000  0.6563160000000 1.0
C      1  0.6355320000000  0.5865340000000  0.6544060000000 1.0
C      1  0.3488540000000  0.4153830000000  0.3515760000000 1.0
C      1  0.6400480000000  0.5855960000000  0.3524390000000 1.0
C      1  0.6402050000000  0.4144420000000  0.6478220000000 1.0
C      1  0.3490870000000  0.5847020000000  0.6481510000000 1.0
C      1  0.6353710000000  0.4133870000000  0.3458560000000 1.0
C      1  0.3554410000000  0.5872070000000  0.3434240000000 1.0
C      1  0.5477960000000  0.5862980000000  0.4478980000000 1.0
C      1  0.4402140000000  0.4181880000000  0.4478220000000 1.0
C      1  0.5494720000000  0.5865260000000  0.5533720000000 1.0
C      1  0.4388890000000  0.4171990000000  0.5529490000000 1.0
C      1  0.4386370000000  0.5828230000000  0.4468380000000 1.0
C      1  0.5491950000000  0.4135240000000  0.4468010000000 1.0
C      1  0.4404840000000  0.5817590000000  0.5519370000000 1.0
C      1  0.5480630000000  0.4137210000000  0.5522630000000 1.0
C      1  0.2566120000000  0.6287120000000  0.3695090000000 1.0
C      1  0.7362480000000  0.3744340000000  0.3696570000000 1.0
C      1  0.2511960000000  0.6203610000000  0.6167500000000 1.0
C      1  0.7400410000000  0.3798110000000  0.6205510000000 1.0
C      1  0.7400440000000  0.6200610000000  0.3795000000000 1.0
C      1  0.2511450000000  0.3797130000000  0.3832000000000 1.0
C      1  0.7361960000000  0.6254680000000  0.6304230000000 1.0
C      1  0.2566390000000  0.3714060000000  0.6304310000000 1.0
C      1  0.4120740000000  0.7501670000000  0.4534250000000 1.0
C      1  0.6150310000000  0.2501700000000  0.4537330000000 1.0
C      1  0.4119500000000  0.7497320000000  0.5459280000000 1.0
C      1  0.6149790000000  0.2503720000000  0.5461110000000 1.0
C      1  0.6148020000000  0.7496910000000  0.4538610000000 1.0
C      1  0.4120300000000  0.2501670000000  0.4540950000000 1.0
C      1  0.6149370000000  0.7499790000000  0.5462380000000 1.0
C      1  0.4122400000000  0.2498060000000  0.5465960000000 1.0
C      1  0.2917830000000  0.4524050000000  0.4513760000000 1.0
C      1  0.7004270000000  0.5493490000000  0.4502670000000 1.0
C      1  0.2921590000000  0.4401490000000  0.5578900000000 1.0
C      1  0.7000770000000  0.5580290000000  0.5570230000000 1.0
C      1  0.6999270000000  0.4418970000000  0.4430450000000 1.0
C      1  0.2920920000000  0.5599450000000  0.4420140000000 1.0
C      1  0.7004730000000  0.4505530000000  0.5498200000000 1.0
C      1  0.2918850000000  0.5476760000000  0.5485260000000 1.0
C      1  0.4620840000000  0.6807780000000  0.5873950000000 1.0
C      1  0.5626430000000  0.3125070000000  0.5932590000000 1.0
C      1  0.4616900000000  0.6809650000000  0.4116550000000 1.0
C      1  0.5627630000000  0.3123160000000  0.4064060000000 1.0
C      1  0.5628020000000  0.6877820000000  0.5936550000000 1.0
C      1  0.4618660000000  0.3190520000000  0.5882750000000 1.0
C      1  0.5624680000000  0.6875170000000  0.4068170000000 1.0
C      1  0.4620270000000  0.3191590000000  0.4125270000000 1.0
C      1  0.5328850000000  0.4062010000000  0.3147580000000 1.0
C      1  0.4577350000000  0.5918860000000  0.3127290000000 1.0
C      1  0.5396270000000  0.4062410000000  0.6850250000000 1.0
C      1  0.4511410000000  0.5911390000000  0.6852180000000 1.0
C      1  0.4509530000000  0.4087710000000  0.3146940000000 1.0
C      1  0.5395080000000  0.5937380000000  0.3151160000000 1.0
C      1  0.4578440000000  0.4080730000000  0.6872510000000 1.0
C      1  0.5330760000000  0.5936990000000  0.6854070000000 1.0
C      1  0.5879850000000  0.4997550000000  0.4010250000000 1.0
C      1  0.4025080000000  0.4991540000000  0.6021210000000 1.0
C      1  0.4023470000000  0.5008630000000  0.3976760000000 1.0
C      1  0.5881460000000  0.5002670000000  0.5991520000000 1.0
END
