TITL C-986976-6631-1125 -7.32923252779357e-05 3375 -332.30665769253 0 0 60 (C3) n - 1
REM
REM in /home/bkarasulu/work/CARBON/AIRSS/Generating-Clusters/REBO/Higher-Symm/Only-C60
REM
REM
REM
REM
REM
REM ./C.cell (a2850807a9bf4ad07a5b6933b78d9264)
REM AIRSS Version 0.9.1 bugfix July 2018 build 013d7b7c2542+ Fri, 06 Jul 2018 19:26:36 +0100
REM compiler GCC version 9.2.1 20190827 (Red Hat 9.2.1-1)
REM options -cpp -mtune=generic -march=x86-64 -g -O0 -fpre-include=/usr/include/finclude/math-vector-fortran.h
REM seed 578874231 -398954491 -695974346 -227136056 -1408079066 -1019077463 273244512 -647886745 -1424611203 1652911015 1384287598 -1853160498 1161586728 -1696184254 2002842449 -270383470 1262486492 2097176593 -2109047129 128085576 -927616044 -1826433518 808748071 1048231841 -1291952907 -832992228 1910538916 241914970 -113115068 -736408652 1552222205 774359373 -129811576
REM
CELL 1.54180   15.00000   15.00000   15.00000   90.00000   90.00000   90.00000
LATT -1
SFAC C  
C      1  0.5196540000000  0.2968230000000  0.5213140000000 1.0
C      1  0.5196540000000  0.5820030000000  0.3095140000000 1.0
C      1  0.5196540000000  0.6228360000000  0.6623870000000 1.0
C      1  0.2247610000000  0.5941380000000  0.4625370000000 1.0
C      1  0.2247600000000  0.4842470000000  0.5963850000000 1.0
C      1  0.2247600000000  0.4232760000000  0.4342920000000 1.0
C      1  0.6154650000000  0.6496850000000  0.6532400000000 1.0
C      1  0.6154650000000  0.2913190000000  0.5491400000000 1.0
C      1  0.6154660000000  0.5606560000000  0.2908350000000 1.0
C      1  0.3182060000000  0.3573970000000  0.4344120000000 1.0
C      1  0.3182060000000  0.6269730000000  0.4054250000000 1.0
C      1  0.3182060000000  0.5172890000000  0.6533780000000 1.0
C      1  0.7093440000000  0.3582310000000  0.4141530000000 1.0
C      1  0.7093440000000  0.6441020000000  0.4162760000000 1.0
C      1  0.7093440000000  0.4993280000000  0.6627860000000 1.0
C      1  0.7431950000000  0.5560380000000  0.4026170000000 1.0
C      1  0.7431950000000  0.5551890000000  0.5933500000000 1.0
C      1  0.7431940000000  0.3904340000000  0.4972480000000 1.0
C      1  0.6625760000000  0.6661080000000  0.5014350000000 1.0
C      1  0.6625760000000  0.4145750000000  0.6392640000000 1.0
C      1  0.6625760000000  0.4209780000000  0.3525150000000 1.0
C      1  0.5003110000000  0.6044850000000  0.5299970000000 1.0
C      1  0.5003110000000  0.4206510000000  0.5716160000000 1.0
C      1  0.5003110000000  0.4765250000000  0.3916010000000 1.0
C      1  0.6854040000000  0.5109050000000  0.3376250000000 1.0
C      1  0.6854030000000  0.6340400000000  0.5867590000000 1.0
C      1  0.6854030000000  0.3567160000000  0.5688310000000 1.0
C      1  0.6030840000000  0.6641130000000  0.3824930000000 1.0
C      1  0.6030840000000  0.5185780000000  0.6970080000000 1.0
C      1  0.6030840000000  0.3189690000000  0.4137130000000 1.0
C      1  0.4037720000000  0.3829210000000  0.3641530000000 1.0
C      1  0.4037720000000  0.6750580000000  0.4626580000000 1.0
C      1  0.4037720000000  0.4436820000000  0.6664040000000 1.0
C      1  0.4901380000000  0.3251520000000  0.3955930000000 1.0
C      1  0.4901380000000  0.6767150000000  0.3969080000000 1.0
C      1  0.4901380000000  0.4997940000000  0.7007120000000 1.0
C      1  0.4219590000000  0.3571780000000  0.5890810000000 1.0
C      1  0.4219590000000  0.4931360000000  0.3279000000000 1.0
C      1  0.4219590000000  0.6513460000000  0.5762340000000 1.0
C      1  0.3211180000000  0.4128220000000  0.5239100000000 1.0
C      1  0.3211180000000  0.5217530000000  0.4086750000000 1.0
C      1  0.3211190000000  0.5670840000000  0.5606300000000 1.0
C      1  0.4156790000000  0.6042330000000  0.3504670000000 1.0
C      1  0.4156780000000  0.5762540000000  0.6611630000000 1.0
C      1  0.4156780000000  0.3211730000000  0.4815840000000 1.0
C      1  0.3196370000000  0.4511090000000  0.3376600000000 1.0
C      1  0.3196380000000  0.6639070000000  0.5349570000000 1.0
C      1  0.3196380000000  0.3866430000000  0.6205980000000 1.0
C      1  0.5607290000000  0.5650840000000  0.4119490000000 1.0
C      1  0.5607290000000  0.5425830000000  0.5965170000000 1.0
C      1  0.5607290000000  0.3939930000000  0.4847480000000 1.0
C      1  0.5583910000000  0.4233600000000  0.6553620000000 1.0
C      1  0.5583910000000  0.4026440000000  0.3520750000000 1.0
C      1  0.5583910000000  0.6756560000000  0.4857780000000 1.0
C      1  0.5772980000000  0.5005540000000  0.4977380000000 1.0
C      1  0.3349330000000  0.5005530000000  0.4977390000000 1.0
C      1  0.2020130000000  0.5005540000000  0.4977380000000 1.0
C      1  0.7743980000000  0.5005540000000  0.4977380000000 1.0
C      1  0.6697540000000  0.5005540000000  0.4977380000000 1.0
C      1  0.4673670000000  0.5005540000000  0.4977380000000 1.0
END
