TITL C-986976-6631-426 -3.83689772020285e-06 3375 -410.523953048532 0 0 60 (Ih) n - 1
REM
REM in /home/bkarasulu/work/CARBON/AIRSS/Generating-Clusters/REBO/Higher-Symm/Only-C60
REM
REM
REM
REM
REM
REM ./C.cell (a2850807a9bf4ad07a5b6933b78d9264)
REM AIRSS Version 0.9.1 bugfix July 2018 build 013d7b7c2542+ Fri, 06 Jul 2018 19:26:36 +0100
REM compiler GCC version 9.2.1 20190827 (Red Hat 9.2.1-1)
REM options -cpp -mtune=generic -march=x86-64 -g -O0 -fpre-include=/usr/include/finclude/math-vector-fortran.h
REM seed -1117631462 115659159 -1196609066 438284725 -16119877 1763401124 -531687088 1614902597 -696210892 -1903501193 -1933428140 1671523727 2095251776 36996693 -1167111415 -666005902 1806971199 399623171 -831621872 249102212 1100645119 -900961924 -49131187 -463626813 -688161102 90828908 -1862209816 307544536 644331747 -498338232 924873214 -1906022650 -167663091
REM
CELL 1.54180   15.00000   15.00000   15.00000   90.00000   90.00000   90.00000
LATT -1
SFAC C  
C      1  0.7050600000000  0.5963370000000  0.5790890000000 1.0
C      1  0.5965720000000  0.5790030000000  0.7049830000000 1.0
C      1  0.5792540000000  0.7049150000000  0.5965110000000 1.0
C      1  0.2949890000000  0.4036100000000  0.5791520000000 1.0
C      1  0.7049130000000  0.4034550000000  0.4207830000000 1.0
C      1  0.2950370000000  0.5965980000000  0.4209760000000 1.0
C      1  0.4035570000000  0.4208600000000  0.7049910000000 1.0
C      1  0.5963630000000  0.4208990000000  0.2949560000000 1.0
C      1  0.4035080000000  0.5792380000000  0.2950700000000 1.0
C      1  0.4208060000000  0.2950210000000  0.5964240000000 1.0
C      1  0.5789870000000  0.2950060000000  0.4034390000000 1.0
C      1  0.4209530000000  0.7050590000000  0.4036260000000 1.0
C      1  0.7050110000000  0.5963900000000  0.4208480000000 1.0
C      1  0.5964430000000  0.5791400000000  0.2950090000000 1.0
C      1  0.5791940000000  0.7049790000000  0.4035760000000 1.0
C      1  0.2949400000000  0.4036630000000  0.4209110000000 1.0
C      1  0.7049630000000  0.4034020000000  0.5790240000000 1.0
C      1  0.2950870000000  0.5965450000000  0.5792170000000 1.0
C      1  0.4034280000000  0.4209970000000  0.2950170000000 1.0
C      1  0.5964920000000  0.4207620000000  0.7049300000000 1.0
C      1  0.4036370000000  0.5791010000000  0.7050440000000 1.0
C      1  0.4207460000000  0.2950860000000  0.4034890000000 1.0
C      1  0.5790470000000  0.2949410000000  0.5963740000000 1.0
C      1  0.4210130000000  0.7049950000000  0.5965610000000 1.0
C      1  0.3439860000000  0.6756830000000  0.4512080000000 1.0
C      1  0.6755140000000  0.4510640000000  0.3438410000000 1.0
C      1  0.4510770000000  0.3438780000000  0.6755510000000 1.0
C      1  0.6559840000000  0.3243500000000  0.4509930000000 1.0
C      1  0.3438390000000  0.3244750000000  0.5488890000000 1.0
C      1  0.6561920000000  0.6754930000000  0.5489090000000 1.0
C      1  0.3243880000000  0.5490400000000  0.3439840000000 1.0
C      1  0.6756620000000  0.5487580000000  0.6560490000000 1.0
C      1  0.3244360000000  0.4511370000000  0.6561260000000 1.0
C      1  0.5490330000000  0.6560040000000  0.6756250000000 1.0
C      1  0.4511250000000  0.6561710000000  0.3244800000000 1.0
C      1  0.5487650000000  0.3439460000000  0.3243440000000 1.0
C      1  0.3440160000000  0.6756500000000  0.5490070000000 1.0
C      1  0.6756120000000  0.4509600000000  0.6560160000000 1.0
C      1  0.4509670000000  0.3439960000000  0.3243750000000 1.0
C      1  0.6560140000000  0.3243170000000  0.5487910000000 1.0
C      1  0.3438080000000  0.3245070000000  0.4510910000000 1.0
C      1  0.6561610000000  0.6755250000000  0.4511110000000 1.0
C      1  0.3244860000000  0.5489360000000  0.6561590000000 1.0
C      1  0.6755640000000  0.5488630000000  0.3438740000000 1.0
C      1  0.3243380000000  0.4512420000000  0.3439510000000 1.0
C      1  0.5489230000000  0.6561220000000  0.3244490000000 1.0
C      1  0.4512350000000  0.6560540000000  0.6756560000000 1.0
C      1  0.5488750000000  0.3438290000000  0.6755200000000 1.0
C      1  0.5001340000000  0.7351920000000  0.5476470000000 1.0
C      1  0.7352320000000  0.5474490000000  0.4999420000000 1.0
C      1  0.4525050000000  0.4999450000000  0.7352230000000 1.0
C      1  0.5474950000000  0.5000550000000  0.2647770000000 1.0
C      1  0.4998960000000  0.2647760000000  0.5474900000000 1.0
C      1  0.4998660000000  0.2648080000000  0.4523530000000 1.0
C      1  0.5001040000000  0.7352240000000  0.4525110000000 1.0
C      1  0.7351840000000  0.4523130000000  0.4999100000000 1.0
C      1  0.2647680000000  0.4525510000000  0.5000580000000 1.0
C      1  0.2648160000000  0.5476870000000  0.5000900000000 1.0
C      1  0.5476420000000  0.4998970000000  0.7351930000000 1.0
C      1  0.4523580000000  0.5001030000000  0.2648070000000 1.0
END
