TITL C-986979-5873-909 -5.71033371546055e-06 3375 -347.543932318647 0 0 60 (C1) n - 1
REM
REM in /home/bkarasulu/work/CARBON/AIRSS/Generating-Clusters/REBO/Higher-Symm/Only-C60
REM
REM
REM
REM
REM
REM ./C.cell (a2850807a9bf4ad07a5b6933b78d9264)
REM AIRSS Version 0.9.1 bugfix July 2018 build 013d7b7c2542+ Fri, 06 Jul 2018 19:26:36 +0100
REM compiler GCC version 9.2.1 20190827 (Red Hat 9.2.1-1)
REM options -cpp -mtune=generic -march=x86-64 -g -O0 -fpre-include=/usr/include/finclude/math-vector-fortran.h
REM seed -1311031904 413244614 -2097565689 -2117749893 493167488 1287337121 2002967985 -94044719 1523327865 -771270611 1784782303 -785344084 -1998555895 -1361121052 117951560 49091181 1978401709 -282704204 -1020506296 1435030935 2098089677 1428285302 -39570356 122855316 431353966 2045061383 -243006653 471288727 -1477845244 -863988127 -765604919 1372218688 261577990
REM
CELL 1.54180   15.00000   15.00000   15.00000   90.00000   90.00000   90.00000
LATT -1
SFAC C  
C      1  0.4385480000000  0.6042270000000  0.3111950000000 1.0
C      1  0.3237280000000  0.5903310000000  0.4838430000000 1.0
C      1  0.4472180000000  0.5565350000000  0.6513210000000 1.0
C      1  0.6363190000000  0.5977350000000  0.5841220000000 1.0
C      1  0.6320340000000  0.5887890000000  0.3750280000000 1.0
C      1  0.5456930000000  0.5751340000000  0.3136690000000 1.0
C      1  0.6715960000000  0.5843840000000  0.4801100000000 1.0
C      1  0.5528660000000  0.5700650000000  0.6551190000000 1.0
C      1  0.3625420000000  0.5931400000000  0.5889910000000 1.0
C      1  0.3537410000000  0.6080690000000  0.3759970000000 1.0
C      1  0.7787070000000  0.5218240000000  0.6341160000000 1.0
C      1  0.7148570000000  0.4873010000000  0.2740040000000 1.0
C      1  0.3483960000000  0.4944540000000  0.2212580000000 1.0
C      1  0.1950140000000  0.5000830000000  0.5529610000000 1.0
C      1  0.4560030000000  0.4953730000000  0.8079340000000 1.0
C      1  0.2213820000000  0.5073470000000  0.6333030000000 1.0
C      1  0.2809760000000  0.5000030000000  0.2727640000000 1.0
C      1  0.6466880000000  0.4744110000000  0.2248130000000 1.0
C      1  0.8057940000000  0.5085670000000  0.5547540000000 1.0
C      1  0.5405480000000  0.5034150000000  0.8097570000000 1.0
C      1  0.5525120000000  0.4779230000000  0.2700110000000 1.0
C      1  0.2991570000000  0.5190810000000  0.3734230000000 1.0
C      1  0.3234160000000  0.5092450000000  0.6489820000000 1.0
C      1  0.5909790000000  0.4938200000000  0.7193910000000 1.0
C      1  0.7336240000000  0.4935320000000  0.4817170000000 1.0
C      1  0.4430500000000  0.5068600000000  0.2636890000000 1.0
C      1  0.6982450000000  0.5072420000000  0.3747920000000 1.0
C      1  0.6762750000000  0.5210020000000  0.6493880000000 1.0
C      1  0.4110180000000  0.4803410000000  0.7159220000000 1.0
C      1  0.2678220000000  0.4953180000000  0.4794130000000 1.0
C      1  0.3782620000000  0.7053880000000  0.6050080000000 1.0
C      1  0.5582620000000  0.6834960000000  0.6489160000000 1.0
C      1  0.6655030000000  0.6975150000000  0.5021420000000 1.0
C      1  0.5368110000000  0.6792100000000  0.3595710000000 1.0
C      1  0.3620000000000  0.7067430000000  0.4245440000000 1.0
C      1  0.6365510000000  0.7118880000000  0.5959210000000 1.0
C      1  0.4602160000000  0.6647660000000  0.6442650000000 1.0
C      1  0.3327200000000  0.7001830000000  0.5170660000000 1.0
C      1  0.4413900000000  0.7061490000000  0.3624230000000 1.0
C      1  0.6196630000000  0.6891970000000  0.4164590000000 1.0
C      1  0.6421950000000  0.4261590000000  0.6170510000000 1.0
C      1  0.6435010000000  0.4261690000000  0.4112580000000 1.0
C      1  0.4494020000000  0.4291310000000  0.3385460000000 1.0
C      1  0.3325580000000  0.4089040000000  0.5056390000000 1.0
C      1  0.4487770000000  0.3855790000000  0.6738940000000 1.0
C      1  0.3634860000000  0.4204230000000  0.6077410000000 1.0
C      1  0.3634300000000  0.4420330000000  0.4041710000000 1.0
C      1  0.5594280000000  0.4042780000000  0.3489150000000 1.0
C      1  0.6747320000000  0.4041100000000  0.5156640000000 1.0
C      1  0.5567830000000  0.3987880000000  0.6822070000000 1.0
C      1  0.4607690000000  0.3157910000000  0.3477910000000 1.0
C      1  0.3520410000000  0.2965300000000  0.4926220000000 1.0
C      1  0.4441030000000  0.2739000000000  0.6485350000000 1.0
C      1  0.6223530000000  0.3169670000000  0.6013100000000 1.0
C      1  0.6286950000000  0.3188900000000  0.4233800000000 1.0
C      1  0.5557400000000  0.2903140000000  0.3606730000000 1.0
C      1  0.6589650000000  0.2904440000000  0.5128610000000 1.0
C      1  0.5412780000000  0.2918620000000  0.6549370000000 1.0
C      1  0.3772520000000  0.3140130000000  0.5873370000000 1.0
C      1  0.3843820000000  0.3356340000000  0.4073670000000 1.0
END
