TITL C-986978-6805-234 -0.00360285231206658 3375 -358.833124012394 0 0 60 (C4) n - 1
REM
REM in /home/bkarasulu/work/CARBON/AIRSS/Generating-Clusters/REBO/Higher-Symm/Only-C60
REM
REM
REM
REM
REM
REM ./C.cell (a2850807a9bf4ad07a5b6933b78d9264)
REM AIRSS Version 0.9.1 bugfix July 2018 build 013d7b7c2542+ Fri, 06 Jul 2018 19:26:36 +0100
REM compiler GCC version 9.2.1 20190827 (Red Hat 9.2.1-1)
REM options -cpp -mtune=generic -march=x86-64 -g -O0 -fpre-include=/usr/include/finclude/math-vector-fortran.h
REM seed 1560595073 -769857606 891578608 -424825108 -1034974652 -316544685 -538856102 -1238350957 -641651780 -710800873 -378414528 -991052500 258144678 -991917067 498731751 -31622881 -1895068709 -1687867647 -1820830098 1408239924 -1409527048 -778182286 -702894035 -53836570 -224173957 -587682510 810907704 -231654293 -1474424008 -584166860 -1884645746 -2116570183 167317716
REM
CELL 1.54180   15.00000   15.00000   15.00000   90.00000   90.00000   90.00000
LATT -1
SFAC C  
C      1  0.3770220000000  0.5414140000000  0.4830810000000 1.0
C      1  0.4585310000000  0.3772990000000  0.4833140000000 1.0
C      1  0.6224860000000  0.4588260000000  0.4834080000000 1.0
C      1  0.5411140000000  0.6227560000000  0.4833360000000 1.0
C      1  0.3754040000000  0.4392180000000  0.4894220000000 1.0
C      1  0.4388720000000  0.6245290000000  0.4897190000000 1.0
C      1  0.6243500000000  0.5610600000000  0.4899730000000 1.0
C      1  0.5607260000000  0.3755850000000  0.4896880000000 1.0
C      1  0.4422010000000  0.6144930000000  0.6324000000000 1.0
C      1  0.3856330000000  0.4421190000000  0.6323670000000 1.0
C      1  0.5580060000000  0.3855320000000  0.6321660000000 1.0
C      1  0.6145750000000  0.5579010000000  0.6321970000000 1.0
C      1  0.4669440000000  0.3848990000000  0.6349780000000 1.0
C      1  0.3850320000000  0.5331680000000  0.6350740000000 1.0
C      1  0.5332710000000  0.6150360000000  0.6348410000000 1.0
C      1  0.6151420000000  0.4668440000000  0.6347330000000 1.0
C      1  0.6060830000000  0.3087880000000  0.5696560000000 1.0
C      1  0.6913610000000  0.6061700000000  0.5698950000000 1.0
C      1  0.3939490000000  0.6912080000000  0.5699860000000 1.0
C      1  0.3089660000000  0.3940330000000  0.5697410000000 1.0
C      1  0.5997290000000  0.6726500000000  0.5665900000000 1.0
C      1  0.6728650000000  0.4002770000000  0.5666920000000 1.0
C      1  0.4004210000000  0.3272140000000  0.5668660000000 1.0
C      1  0.3274720000000  0.5995990000000  0.5667790000000 1.0
C      1  0.5772970000000  0.6963850000000  0.4053010000000 1.0
C      1  0.3034710000000  0.5774310000000  0.4050000000000 1.0
C      1  0.4224990000000  0.3036170000000  0.4053940000000 1.0
C      1  0.6962490000000  0.4226330000000  0.4056550000000 1.0
C      1  0.5799430000000  0.3017520000000  0.4082680000000 1.0
C      1  0.3016580000000  0.4199880000000  0.4079870000000 1.0
C      1  0.4199850000000  0.6982280000000  0.4081890000000 1.0
C      1  0.6981410000000  0.5799520000000  0.4084650000000 1.0
C      1  0.5487550000000  0.3833180000000  0.3519780000000 1.0
C      1  0.6166590000000  0.5487990000000  0.3520070000000 1.0
C      1  0.4511490000000  0.6167010000000  0.3517480000000 1.0
C      1  0.3832760000000  0.4511860000000  0.3517210000000 1.0
C      1  0.5479790000000  0.6155750000000  0.3504250000000 1.0
C      1  0.6155450000000  0.4520020000000  0.3508440000000 1.0
C      1  0.4519540000000  0.3843750000000  0.3505050000000 1.0
C      1  0.3843230000000  0.5480270000000  0.3501820000000 1.0
C      1  0.2268390000000  0.5804190000000  0.5476840000000 1.0
C      1  0.4195890000000  0.2266630000000  0.5477920000000 1.0
C      1  0.7734410000000  0.4194750000000  0.5477540000000 1.0
C      1  0.5805400000000  0.7732940000000  0.5476360000000 1.0
C      1  0.2158770000000  0.4245820000000  0.5474680000000 1.0
C      1  0.4246620000000  0.7842090000000  0.5475510000000 1.0
C      1  0.7843380000000  0.5753660000000  0.5475290000000 1.0
C      1  0.5754440000000  0.2157230000000  0.5474200000000 1.0
C      1  0.5485690000000  0.2180760000000  0.4504650000000 1.0
C      1  0.7818690000000  0.5485710000000  0.4505540000000 1.0
C      1  0.4513680000000  0.7818880000000  0.4505310000000 1.0
C      1  0.2180630000000  0.4513610000000  0.4504650000000 1.0
C      1  0.5528760000000  0.7790000000000  0.4509470000000 1.0
C      1  0.7789800000000  0.4470650000000  0.4510340000000 1.0
C      1  0.4470650000000  0.2210170000000  0.4510350000000 1.0
C      1  0.2210000000000  0.5528640000000  0.4509630000000 1.0
C      1  0.4955570000000  0.1902490000000  0.5967370000000 1.0
C      1  0.8098020000000  0.4954210000000  0.5967620000000 1.0
C      1  0.5046470000000  0.8096620000000  0.5967290000000 1.0
C      1  0.1904380000000  0.5045120000000  0.5967370000000 1.0
END
