TITL C-986976-6631-323 0.0148354710585297 3375 -367.775028336835 0 0 60 (C5) n - 1
REM
REM in /home/bkarasulu/work/CARBON/AIRSS/Generating-Clusters/REBO/Higher-Symm/Only-C60
REM
REM
REM
REM
REM
REM ./C.cell (a2850807a9bf4ad07a5b6933b78d9264)
REM AIRSS Version 0.9.1 bugfix July 2018 build 013d7b7c2542+ Fri, 06 Jul 2018 19:26:36 +0100
REM compiler GCC version 9.2.1 20190827 (Red Hat 9.2.1-1)
REM options -cpp -mtune=generic -march=x86-64 -g -O0 -fpre-include=/usr/include/finclude/math-vector-fortran.h
REM seed -467584684 -1980862895 -306793380 1115108336 -1105276260 -1247323642 -515953968 -1576537259 -1712199134 1307088308 -1186884803 86781123 1924463642 2017113219 1294813829 -1331860469 1786988171 -1776109182 694175369 -940333976 215438470 -1219127843 -1800970226 -1199519388 2030215680 -737205602 421558731 1471454461 -1689359489 291719393 2023661852 -1555697483 1668150204
REM
CELL 1.54180   15.00000   15.00000   15.00000   90.00000   90.00000   90.00000
LATT -1
SFAC C  
C      1  0.2842930000000  0.4036260000000  0.6010540000000 1.0
C      1  0.5280990000000  0.4073160000000  0.7367910000000 1.0
C      1  0.7340050000000  0.4064280000000  0.5464300000000 1.0
C      1  0.6156330000000  0.4052390000000  0.2926610000000 1.0
C      1  0.3381530000000  0.4078370000000  0.3249030000000 1.0
C      1  0.2911840000000  0.5897740000000  0.3956970000000 1.0
C      1  0.5338290000000  0.5873320000000  0.2700340000000 1.0
C      1  0.7304980000000  0.5883680000000  0.4611260000000 1.0
C      1  0.6078370000000  0.5885690000000  0.7055990000000 1.0
C      1  0.3369690000000  0.5870370000000  0.6664330000000 1.0
C      1  0.5182510000000  0.4159450000000  0.2726120000000 1.0
C      1  0.2883810000000  0.4184630000000  0.4112200000000 1.0
C      1  0.3515570000000  0.4151940000000  0.6740570000000 1.0
C      1  0.6184250000000  0.4178740000000  0.6954380000000 1.0
C      1  0.7235070000000  0.4170060000000  0.4472420000000 1.0
C      1  0.5144940000000  0.5797970000000  0.7259430000000 1.0
C      1  0.2897960000000  0.5771420000000  0.5831400000000 1.0
C      1  0.3552340000000  0.5804930000000  0.3248590000000 1.0
C      1  0.6211140000000  0.5781450000000  0.3090190000000 1.0
C      1  0.7200050000000  0.5789230000000  0.5561370000000 1.0
C      1  0.4738120000000  0.3248940000000  0.4224620000000 1.0
C      1  0.4177930000000  0.3250430000000  0.5009630000000 1.0
C      1  0.4754320000000  0.3241680000000  0.5785240000000 1.0
C      1  0.5669480000000  0.3247520000000  0.5478170000000 1.0
C      1  0.5659600000000  0.3254040000000  0.4513730000000 1.0
C      1  0.4706180000000  0.6804580000000  0.5768400000000 1.0
C      1  0.4176500000000  0.6803020000000  0.4955580000000 1.0
C      1  0.4786490000000  0.6809430000000  0.4200850000000 1.0
C      1  0.5693860000000  0.6804460000000  0.4547180000000 1.0
C      1  0.5642740000000  0.6797700000000  0.5515650000000 1.0
C      1  0.4540750000000  0.3860960000000  0.6572580000000 1.0
C      1  0.6343650000000  0.3877170000000  0.5929370000000 1.0
C      1  0.6293560000000  0.3886390000000  0.4014950000000 1.0
C      1  0.4448380000000  0.3869530000000  0.3464000000000 1.0
C      1  0.3369440000000  0.3885300000000  0.5037730000000 1.0
C      1  0.4574840000000  0.6218250000000  0.3401070000000 1.0
C      1  0.6398350000000  0.6218480000000  0.4104690000000 1.0
C      1  0.6280470000000  0.6205510000000  0.6039110000000 1.0
C      1  0.4402050000000  0.6216340000000  0.6541170000000 1.0
C      1  0.3345640000000  0.6219120000000  0.4901260000000 1.0
C      1  0.4400440000000  0.5205940000000  0.6166300000000 1.0
C      1  0.5947680000000  0.5175650000000  0.5947330000000 1.0
C      1  0.6196280000000  0.5192900000000  0.4391070000000 1.0
C      1  0.4790220000000  0.5205690000000  0.3704560000000 1.0
C      1  0.3651900000000  0.5180970000000  0.4789180000000 1.0
C      1  0.4074610000000  0.4774220000000  0.4109710000000 1.0
C      1  0.5569700000000  0.4790940000000  0.3830350000000 1.0
C      1  0.6280120000000  0.4771890000000  0.5174480000000 1.0
C      1  0.5214320000000  0.4768540000000  0.6264640000000 1.0
C      1  0.3837360000000  0.4787150000000  0.5616980000000 1.0
C      1  0.6622860000000  0.4938320000000  0.2833870000000 1.0
C      1  0.3436500000000  0.4961230000000  0.2780190000000 1.0
C      1  0.2418190000000  0.4926530000000  0.5796720000000 1.0
C      1  0.4962740000000  0.4957230000000  0.7713060000000 1.0
C      1  0.7573260000000  0.4948680000000  0.5875110000000 1.0
C      1  0.6558400000000  0.5044340000000  0.7201500000000 1.0
C      1  0.3393500000000  0.5024300000000  0.7161190000000 1.0
C      1  0.2440000000000  0.5054090000000  0.4125920000000 1.0
C      1  0.5030210000000  0.5028490000000  0.2310350000000 1.0
C      1  0.7586740000000  0.5038940000000  0.4198560000000 1.0
END
