TITL C-986978-6805-936 0.0135235361421878 3375 -330.564157945617 0 0 60 (C4) n - 1
REM
REM in /home/bkarasulu/work/CARBON/AIRSS/Generating-Clusters/REBO/Higher-Symm/Only-C60
REM
REM
REM
REM
REM
REM ./C.cell (a2850807a9bf4ad07a5b6933b78d9264)
REM AIRSS Version 0.9.1 bugfix July 2018 build 013d7b7c2542+ Fri, 06 Jul 2018 19:26:36 +0100
REM compiler GCC version 9.2.1 20190827 (Red Hat 9.2.1-1)
REM options -cpp -mtune=generic -march=x86-64 -g -O0 -fpre-include=/usr/include/finclude/math-vector-fortran.h
REM seed -1630588482 355012934 1582343120 -962174979 -174428800 -1299868559 -843236083 -2001743519 -1361299116 1943842559 -1535144198 -1007381556 553325038 -1125958738 1352489959 1439296694 -1926104571 2028809069 -1834725498 -1868873996 -551758591 595419901 -204485596 -1189629814 -1632298817 1199864598 -1779908396 -107770575 1497381015 421445640 23739610 466540487 -10555824
REM
CELL 1.54180   15.00000   15.00000   15.00000   90.00000   90.00000   90.00000
LATT -1
SFAC C  
C      1  0.2977820000000  0.4596380000000  0.5658740000000 1.0
C      1  0.4596130000000  0.7022360000000  0.5658880000000 1.0
C      1  0.7023160000000  0.5404250000000  0.5659770000000 1.0
C      1  0.5404140000000  0.2977740000000  0.5659030000000 1.0
C      1  0.2941850000000  0.4633980000000  0.4443430000000 1.0
C      1  0.4634250000000  0.7057570000000  0.4443080000000 1.0
C      1  0.7058300000000  0.5365730000000  0.4444310000000 1.0
C      1  0.5365840000000  0.2941900000000  0.4442890000000 1.0
C      1  0.3828590000000  0.4045380000000  0.6646520000000 1.0
C      1  0.4045260000000  0.6171130000000  0.6646830000000 1.0
C      1  0.6171810000000  0.5955040000000  0.6646520000000 1.0
C      1  0.5954530000000  0.3829410000000  0.6645560000000 1.0
C      1  0.3813640000000  0.4060290000000  0.3418140000000 1.0
C      1  0.4060880000000  0.6185650000000  0.3418220000000 1.0
C      1  0.6186290000000  0.5939410000000  0.3418050000000 1.0
C      1  0.5939200000000  0.3814540000000  0.3418630000000 1.0
C      1  0.6381510000000  0.3380870000000  0.5804340000000 1.0
C      1  0.3380360000000  0.3618190000000  0.5804260000000 1.0
C      1  0.3618720000000  0.6619510000000  0.5804540000000 1.0
C      1  0.6619870000000  0.6381640000000  0.5804390000000 1.0
C      1  0.6339020000000  0.3347630000000  0.4257140000000 1.0
C      1  0.3347150000000  0.3660570000000  0.4257510000000 1.0
C      1  0.3660500000000  0.6652350000000  0.4257700000000 1.0
C      1  0.6653170000000  0.6338710000000  0.4257490000000 1.0
C      1  0.5081840000000  0.6249280000000  0.6629300000000 1.0
C      1  0.6248700000000  0.4918380000000  0.6628020000000 1.0
C      1  0.4918530000000  0.3751570000000  0.6629810000000 1.0
C      1  0.3751320000000  0.5081340000000  0.6629500000000 1.0
C      1  0.5100060000000  0.6251460000000  0.3437660000000 1.0
C      1  0.6250570000000  0.4900350000000  0.3438110000000 1.0
C      1  0.4899670000000  0.3748620000000  0.3437760000000 1.0
C      1  0.3748960000000  0.5099820000000  0.3437610000000 1.0
C      1  0.5516980000000  0.6441650000000  0.5598730000000 1.0
C      1  0.6441200000000  0.4483880000000  0.5598790000000 1.0
C      1  0.4483290000000  0.3558000000000  0.5598000000000 1.0
C      1  0.3558130000000  0.5516770000000  0.5598800000000 1.0
C      1  0.5544240000000  0.6444350000000  0.4464820000000 1.0
C      1  0.6443880000000  0.4456150000000  0.4464350000000 1.0
C      1  0.4455960000000  0.3555130000000  0.4465000000000 1.0
C      1  0.3555050000000  0.5543780000000  0.4464910000000 1.0
C      1  0.4700860000000  0.8006460000000  0.5376160000000 1.0
C      1  0.8007380000000  0.5298990000000  0.5377050000000 1.0
C      1  0.5299480000000  0.1993230000000  0.5376320000000 1.0
C      1  0.1992820000000  0.4700930000000  0.5376490000000 1.0
C      1  0.4760450000000  0.8126740000000  0.4472030000000 1.0
C      1  0.8127520000000  0.5239150000000  0.4472650000000 1.0
C      1  0.5239830000000  0.1872970000000  0.4472050000000 1.0
C      1  0.1872590000000  0.4760250000000  0.4471660000000 1.0
C      1  0.5495230000000  0.5611300000000  0.7478720000000 1.0
C      1  0.5609850000000  0.4505850000000  0.7477650000000 1.0
C      1  0.4504730000000  0.4388350000000  0.7478820000000 1.0
C      1  0.4390000000000  0.5494480000000  0.7478200000000 1.0
C      1  0.5503260000000  0.5603510000000  0.2591300000000 1.0
C      1  0.5601850000000  0.4498120000000  0.2591900000000 1.0
C      1  0.4496240000000  0.4396380000000  0.2591160000000 1.0
C      1  0.4398030000000  0.5502210000000  0.2591640000000 1.0
C      1  0.3123500000000  0.6961540000000  0.5027050000000 1.0
C      1  0.6960950000000  0.6876340000000  0.5026760000000 1.0
C      1  0.6876660000000  0.3039210000000  0.5026570000000 1.0
C      1  0.3038370000000  0.3123200000000  0.5026800000000 1.0
END
