TITL C-986973-6940-266 0.104965696773383 3375 -356.390368874225 0 0 60 (D2) n - 1
REM
REM in /home/bkarasulu/work/CARBON/AIRSS/Generating-Clusters/REBO/Higher-Symm/Only-C60
REM
REM
REM
REM
REM
REM ./C.cell (a2850807a9bf4ad07a5b6933b78d9264)
REM AIRSS Version 0.9.1 bugfix July 2018 build 013d7b7c2542+ Fri, 06 Jul 2018 19:26:36 +0100
REM compiler GCC version 9.2.1 20190827 (Red Hat 9.2.1-1)
REM options -cpp -mtune=generic -march=x86-64 -g -O0 -fpre-include=/usr/include/finclude/math-vector-fortran.h
REM seed 1988926291 88066476 -1057920616 -706007845 934915842 1666555967 1818378600 821017437 609195918 81985175 -1882841468 1413044118 2113233426 -533739330 418888060 -521899585 1686366039 845590287 1159425713 1635668541 328022895 1998610607 191467286 2108292650 77423136 886156652 457057926 -1117726294 -1064947704 -748215720 -313876153 1238722675 -819715981
REM
CELL 1.54180   15.00000   15.00000   15.00000   90.00000   90.00000   90.00000
LATT -1
SFAC C  
C      1  0.6514940000000  0.3547950000000  0.3760840000000 1.0
C      1  0.3485060000000  0.6452050000000  0.3760840000000 1.0
C      1  0.3485060000000  0.3547950000000  0.6239160000000 1.0
C      1  0.6514940000000  0.6452050000000  0.6239160000000 1.0
C      1  0.6156930000000  0.6171920000000  0.4718490000000 1.0
C      1  0.3843070000000  0.3828080000000  0.4718490000000 1.0
C      1  0.3843070000000  0.6171920000000  0.5281510000000 1.0
C      1  0.6156930000000  0.3828080000000  0.5281510000000 1.0
C      1  0.5822990000000  0.4579670000000  0.4811390000000 1.0
C      1  0.4177010000000  0.5420330000000  0.4811390000000 1.0
C      1  0.4177010000000  0.4579670000000  0.5188610000000 1.0
C      1  0.5822990000000  0.5420330000000  0.5188610000000 1.0
C      1  0.5115080000000  0.7188480000000  0.3802850000000 1.0
C      1  0.4884920000000  0.2811530000000  0.3802850000000 1.0
C      1  0.4884920000000  0.7188470000000  0.6197150000000 1.0
C      1  0.5115080000000  0.2811530000000  0.6197150000000 1.0
C      1  0.4655150000000  0.5412410000000  0.3932230000000 1.0
C      1  0.5344860000000  0.4587590000000  0.3932220000000 1.0
C      1  0.5344850000000  0.5412410000000  0.6067770000000 1.0
C      1  0.4655150000000  0.4587590000000  0.6067770000000 1.0
C      1  0.7575280000000  0.5317890000000  0.5320480000000 1.0
C      1  0.2424720000000  0.4682110000000  0.5320480000000 1.0
C      1  0.2424720000000  0.5317890000000  0.4679520000000 1.0
C      1  0.7575280000000  0.4682110000000  0.4679520000000 1.0
C      1  0.4704290000000  0.7409190000000  0.4613510000000 1.0
C      1  0.5295710000000  0.2590810000000  0.4613510000000 1.0
C      1  0.5295710000000  0.7409190000000  0.5386490000000 1.0
C      1  0.4704290000000  0.2590810000000  0.5386490000000 1.0
C      1  0.5796280000000  0.6052900000000  0.2812810000000 1.0
C      1  0.4203730000000  0.3947110000000  0.2812810000000 1.0
C      1  0.4203720000000  0.6052900000000  0.7187190000000 1.0
C      1  0.5796280000000  0.3947100000000  0.7187190000000 1.0
C      1  0.4894300000000  0.5478910000000  0.2572550000000 1.0
C      1  0.5105700000000  0.4521070000000  0.2572550000000 1.0
C      1  0.5105700000000  0.5478910000000  0.7427450000000 1.0
C      1  0.4894300000000  0.4521090000000  0.7427450000000 1.0
C      1  0.3864590000000  0.6907130000000  0.4620750000000 1.0
C      1  0.6135410000000  0.3092880000000  0.4620750000000 1.0
C      1  0.6135410000000  0.6907130000000  0.5379250000000 1.0
C      1  0.3864590000000  0.3092870000000  0.5379250000000 1.0
C      1  0.4919380000000  0.6319250000000  0.6427650000000 1.0
C      1  0.5080620000000  0.3680750000000  0.6427650000000 1.0
C      1  0.5080620000000  0.6319260000000  0.3572350000000 1.0
C      1  0.4919380000000  0.3680750000000  0.3572340000000 1.0
C      1  0.6047070000000  0.5974370000000  0.7033360000000 1.0
C      1  0.3952930000000  0.4025630000000  0.7033360000000 1.0
C      1  0.3952930000000  0.5974370000000  0.2966640000000 1.0
C      1  0.6047050000000  0.4025630000000  0.2966640000000 1.0
C      1  0.6092240000000  0.5080580000000  0.3263800000000 1.0
C      1  0.3907770000000  0.4919430000000  0.3263790000000 1.0
C      1  0.3907770000000  0.5080570000000  0.6736210000000 1.0
C      1  0.6092230000000  0.4919430000000  0.6736210000000 1.0
C      1  0.7281910000000  0.4068300000000  0.4079340000000 1.0
C      1  0.2718090000000  0.5931700000000  0.4079340000000 1.0
C      1  0.2718090000000  0.4068300000000  0.5920660000000 1.0
C      1  0.7281910000000  0.5931700000000  0.5920660000000 1.0
C      1  0.3647800000000  0.6030840000000  0.6190360000000 1.0
C      1  0.6352200000000  0.3969160000000  0.6190360000000 1.0
C      1  0.6352200000000  0.6030840000000  0.3809640000000 1.0
C      1  0.3647790000000  0.3969160000000  0.3809640000000 1.0
END
