TITL C-986975-4297-691 2.15980182617733e-05 3375 -373.992366991775 0 0 60 (C5) n - 1
REM
REM in /home/bkarasulu/work/CARBON/AIRSS/Generating-Clusters/REBO/Higher-Symm/Only-C60
REM
REM
REM
REM
REM
REM ./C.cell (a2850807a9bf4ad07a5b6933b78d9264)
REM AIRSS Version 0.9.1 bugfix July 2018 build 013d7b7c2542+ Fri, 06 Jul 2018 19:26:36 +0100
REM compiler GCC version 9.2.1 20190827 (Red Hat 9.2.1-1)
REM options -cpp -mtune=generic -march=x86-64 -g -O0 -fpre-include=/usr/include/finclude/math-vector-fortran.h
REM seed -1809835499 -908951416 -1632698468 -414467043 -54059942 -577509229 969501070 -386198180 -2122639957 2031656597 -753201123 -601725288 -492443448 -1951897527 -361069281 357821952 -1442920843 896118517 -515258462 -1741704521 523021792 -1343660219 -678788890 812720493 340374857 1570967913 -1124005842 -853221554 -1765262945 1880174551 -1799919923 -1866203598 -1626791211
REM
CELL 1.54180   15.00000   15.00000   15.00000   90.00000   90.00000   90.00000
LATT -1
SFAC C  
C      1  0.3373240000000  0.3529570000000  0.5909980000000 1.0
C      1  0.3631890000000  0.3529510000000  0.3734080000000 1.0
C      1  0.5781220000000  0.3529500000000  0.3307700000000 1.0
C      1  0.6850940000000  0.3529550000000  0.5220060000000 1.0
C      1  0.5362720000000  0.3529590000000  0.6828360000000 1.0
C      1  0.4113050000000  0.4604970000000  0.4792440000000 1.0
C      1  0.4923330000000  0.4604950000000  0.4092330000000 1.0
C      1  0.5839570000000  0.4604960000000  0.4646600000000 1.0
C      1  0.5595550000000  0.4604990000000  0.5689280000000 1.0
C      1  0.4528500000000  0.4604990000000  0.5779410000000 1.0
C      1  0.3562840000000  0.3637470000000  0.4866930000000 1.0
C      1  0.4682470000000  0.3637440000000  0.3592090000000 1.0
C      1  0.6240920000000  0.3637460000000  0.4262980000000 1.0
C      1  0.6084460000000  0.3637500000000  0.5952450000000 1.0
C      1  0.4429320000000  0.3637500000000  0.6325720000000 1.0
C      1  0.6009950000000  0.5159760000000  0.2926590000000 1.0
C      1  0.7284020000000  0.5159820000000  0.5319800000000 1.0
C      1  0.5401650000000  0.5159860000000  0.7271050000000 1.0
C      1  0.2964220000000  0.5159840000000  0.6083780000000 1.0
C      1  0.3340160000000  0.5159770000000  0.3398760000000 1.0
C      1  0.5837200000000  0.7080890000000  0.4935830000000 1.0
C      1  0.5319690000000  0.7080910000000  0.5776360000000 1.0
C      1  0.4360380000000  0.7080900000000  0.5543920000000 1.0
C      1  0.4285000000000  0.7080880000000  0.4559730000000 1.0
C      1  0.5197730000000  0.7080870000000  0.4183910000000 1.0
C      1  0.3751790000000  0.6577100000000  0.6095660000000 1.0
C      1  0.3572210000000  0.6577050000000  0.4151430000000 1.0
C      1  0.5365780000000  0.6577030000000  0.3379840000000 1.0
C      1  0.6653860000000  0.6577070000000  0.4847200000000 1.0
C      1  0.5656350000000  0.6577110000000  0.6525670000000 1.0
C      1  0.2626220000000  0.3517750000000  0.4234220000000 1.0
C      1  0.4994800000000  0.3517700000000  0.2505800000000 1.0
C      1  0.7370560000000  0.3517750000000  0.4224330000000 1.0
C      1  0.6470290000000  0.3517810000000  0.7014860000000 1.0
C      1  0.3538130000000  0.3517810000000  0.7020970000000 1.0
C      1  0.6719500000000  0.6024020000000  0.4068580000000 1.0
C      1  0.6417170000000  0.6024080000000  0.6347500000000 1.0
C      1  0.4156360000000  0.6024080000000  0.6764190000000 1.0
C      1  0.3061430000000  0.6024040000000  0.4742800000000 1.0
C      1  0.4645540000000  0.6024000000000  0.3076820000000 1.0
C      1  0.2475970000000  0.4393690000000  0.4753980000000 1.0
C      1  0.4454030000000  0.4393640000000  0.2523490000000 1.0
C      1  0.7186600000000  0.4393670000000  0.3715480000000 1.0
C      1  0.6897370000000  0.4393740000000  0.6682650000000 1.0
C      1  0.3986040000000  0.4393750000000  0.7324480000000 1.0
C      1  0.6138480000000  0.5073890000000  0.6567350000000 1.0
C      1  0.3861170000000  0.5073880000000  0.6567090000000 1.0
C      1  0.3157690000000  0.5073830000000  0.4401160000000 1.0
C      1  0.5000220000000  0.5073800000000  0.3062800000000 1.0
C      1  0.6842450000000  0.5073830000000  0.4401580000000 1.0
C      1  0.6989200000000  0.6056320000000  0.5608560000000 1.0
C      1  0.5035890000000  0.6056350000000  0.7079880000000 1.0
C      1  0.3032980000000  0.6056320000000  0.5676840000000 1.0
C      1  0.3748420000000  0.6056260000000  0.3338390000000 1.0
C      1  0.6193500000000  0.6056260000000  0.3296200000000 1.0
C      1  0.4939720000000  0.4344640000000  0.7401830000000 1.0
C      1  0.2697110000000  0.4344600000000  0.5684880000000 1.0
C      1  0.3637010000000  0.4344540000000  0.3021470000000 1.0
C      1  0.6460520000000  0.4344540000000  0.3092340000000 1.0
C      1  0.7265640000000  0.4344610000000  0.5799550000000 1.0
END
