TITL C-986975-4297-289 0.0447720371312269 3375 -336.367436838025 0 0 60 (C5) n - 1
REM
REM in /home/bkarasulu/work/CARBON/AIRSS/Generating-Clusters/REBO/Higher-Symm/Only-C60
REM
REM
REM
REM
REM
REM ./C.cell (a2850807a9bf4ad07a5b6933b78d9264)
REM AIRSS Version 0.9.1 bugfix July 2018 build 013d7b7c2542+ Fri, 06 Jul 2018 19:26:36 +0100
REM compiler GCC version 9.2.1 20190827 (Red Hat 9.2.1-1)
REM options -cpp -mtune=generic -march=x86-64 -g -O0 -fpre-include=/usr/include/finclude/math-vector-fortran.h
REM seed 727829167 -298388197 1288611081 -586285447 -585910377 -1676022166 14740951 -829896600 90073101 953722676 249811226 101920144 1002635742 1895213207 -963741774 459499060 509384557 -1558048217 863744668 -1193897692 450501717 253782645 -1919762356 152158525 1467008922 -1359725866 1850463141 -2051649265 -926663890 234380100 -1575680244 1129822503 1356418416
REM
CELL 1.54180   15.00000   15.00000   15.00000   90.00000   90.00000   90.00000
LATT -1
SFAC C  
C      1  0.3927360000000  0.6264290000000  0.3026910000000 1.0
C      1  0.5871230000000  0.6410480000000  0.3027560000000 1.0
C      1  0.6610960000000  0.4607220000000  0.3027680000000 1.0
C      1  0.5124530000000  0.3346470000000  0.3027360000000 1.0
C      1  0.3465830000000  0.4370400000000  0.3026860000000 1.0
C      1  0.4042430000000  0.4200420000000  0.6631030000000 1.0
C      1  0.3943370000000  0.5664600000000  0.6631430000000 1.0
C      1  0.5307030000000  0.6210720000000  0.6631950000000 1.0
C      1  0.6245710000000  0.5082770000000  0.6631620000000 1.0
C      1  0.5463980000000  0.3841700000000  0.6631180000000 1.0
C      1  0.5554850000000  0.4239190000000  0.3920370000000 1.0
C      1  0.4447600000000  0.4237090000000  0.3919980000000 1.0
C      1  0.4103590000000  0.5289100000000  0.3919920000000 1.0
C      1  0.4998030000000  0.5941450000000  0.3920170000000 1.0
C      1  0.5894740000000  0.5292520000000  0.3920320000000 1.0
C      1  0.4266800000000  0.3801060000000  0.2842770000000 1.0
C      1  0.3633520000000  0.5326640000000  0.2842510000000 1.0
C      1  0.4888700000000  0.6400450000000  0.2842860000000 1.0
C      1  0.6298310000000  0.5538660000000  0.2843160000000 1.0
C      1  0.5913390000000  0.3932240000000  0.2842970000000 1.0
C      1  0.4119010000000  0.2990210000000  0.5387860000000 1.0
C      1  0.2816640000000  0.5216690000000  0.5388110000000 1.0
C      1  0.4531960000000  0.7143600000000  0.5388120000000 1.0
C      1  0.6894200000000  0.6108200000000  0.5388120000000 1.0
C      1  0.6639740000000  0.3541410000000  0.5388200000000 1.0
C      1  0.4645810000000  0.5870280000000  0.7469480000000 1.0
C      1  0.5718880000000  0.5606050000000  0.7470320000000 1.0
C      1  0.5799090000000  0.4503830000000  0.7470470000000 1.0
C      1  0.4775640000000  0.4086850000000  0.7470390000000 1.0
C      1  0.4062940000000  0.4931400000000  0.7469750000000 1.0
C      1  0.5841100000000  0.4766800000000  0.5653790000000 1.0
C      1  0.5037370000000  0.4127650000000  0.5653390000000 1.0
C      1  0.4181330000000  0.4694720000000  0.5652920000000 1.0
C      1  0.4455990000000  0.5683960000000  0.5653050000000 1.0
C      1  0.5481640000000  0.5728590000000  0.5653700000000 1.0
C      1  0.4063510000000  0.6239490000000  0.4885390000000 1.0
C      1  0.5888830000000  0.6273100000000  0.4885850000000 1.0
C      1  0.6484530000000  0.4548290000000  0.4885310000000 1.0
C      1  0.5028860000000  0.3448230000000  0.4884820000000 1.0
C      1  0.3532470000000  0.4493020000000  0.4884330000000 1.0
C      1  0.3492290000000  0.6975580000000  0.5821640000000 1.0
C      1  0.6413940000000  0.7044800000000  0.5821060000000 1.0
C      1  0.7381090000000  0.4286850000000  0.5821120000000 1.0
C      1  0.5057630000000  0.2515520000000  0.5821070000000 1.0
C      1  0.2655270000000  0.4177740000000  0.5821630000000 1.0
C      1  0.3774570000000  0.3505680000000  0.4486080000000 1.0
C      1  0.3200170000000  0.5703250000000  0.4485990000000 1.0
C      1  0.5112790000000  0.6928730000000  0.4486400000000 1.0
C      1  0.6869180000000  0.5488660000000  0.4486410000000 1.0
C      1  0.6042200000000  0.3373430000000  0.4486420000000 1.0
C      1  0.3439430000000  0.3643070000000  0.5991500000000 1.0
C      1  0.3226830000000  0.6065400000000  0.5991740000000 1.0
C      1  0.5465880000000  0.7015710000000  0.5991550000000 1.0
C      1  0.7060260000000  0.5180220000000  0.5991170000000 1.0
C      1  0.5807910000000  0.3096500000000  0.5991160000000 1.0
C      1  0.3119020000000  0.4177800000000  0.3882150000000 1.0
C      1  0.3637010000000  0.6534650000000  0.3882140000000 1.0
C      1  0.6038350000000  0.6769940000000  0.3882880000000 1.0
C      1  0.7004280000000  0.4559410000000  0.3883120000000 1.0
C      1  0.5200410000000  0.2957210000000  0.3882780000000 1.0
END
