TITL C-986973-6940-1192 -0.0046767909482346 3375 -361.814738011034 0 0 60 (C1) n - 1
REM
REM in /home/bkarasulu/work/CARBON/AIRSS/Generating-Clusters/REBO/Higher-Symm/Only-C60
REM
REM
REM
REM
REM
REM ./C.cell (a2850807a9bf4ad07a5b6933b78d9264)
REM AIRSS Version 0.9.1 bugfix July 2018 build 013d7b7c2542+ Fri, 06 Jul 2018 19:26:36 +0100
REM compiler GCC version 9.2.1 20190827 (Red Hat 9.2.1-1)
REM options -cpp -mtune=generic -march=x86-64 -g -O0 -fpre-include=/usr/include/finclude/math-vector-fortran.h
REM seed -560851954 1860697870 -1332371376 730103274 -557462896 -1496528562 -371950388 -1090381929 1780325823 -551338210 1804915837 -199302324 -761020564 -337204374 280554540 -1823382143 -412183837 1064556696 -227171715 100818053 -113198733 -1649118376 296700437 609753044 1876375658 -173029702 1504697154 8623285 846731007 -404366692 1039279340 -680810902 -1011657849
REM
CELL 1.54180   15.00000   15.00000   15.00000   90.00000   90.00000   90.00000
LATT -1
SFAC C  
C      1  0.2907700000000  0.4419570000000  0.3198660000000 1.0
C      1  0.4462490000000  0.4434120000000  0.7640820000000 1.0
C      1  0.7527800000000  0.4598600000000  0.4081520000000 1.0
C      1  0.7085350000000  0.4407160000000  0.3203140000000 1.0
C      1  0.5443620000000  0.4588400000000  0.7618400000000 1.0
C      1  0.2465330000000  0.4612470000000  0.4077310000000 1.0
C      1  0.5930840000000  0.7057770000000  0.3945210000000 1.0
C      1  0.3778830000000  0.7064510000000  0.4738510000000 1.0
C      1  0.5414820000000  0.7154770000000  0.6425960000000 1.0
C      1  0.4081270000000  0.7050890000000  0.3965710000000 1.0
C      1  0.6244250000000  0.7070110000000  0.4713810000000 1.0
C      1  0.4582520000000  0.7141780000000  0.6445190000000 1.0
C      1  0.5447070000000  0.2804980000000  0.3582760000000 1.0
C      1  0.3498250000000  0.2814580000000  0.5297610000000 1.0
C      1  0.6046460000000  0.2833710000000  0.6095660000000 1.0
C      1  0.4540950000000  0.2807010000000  0.3580610000000 1.0
C      1  0.6505510000000  0.2822680000000  0.5313980000000 1.0
C      1  0.3997580000000  0.2797920000000  0.6054190000000 1.0
C      1  0.6003460000000  0.4385430000000  0.3384700000000 1.0
C      1  0.3109780000000  0.4395670000000  0.4889040000000 1.0
C      1  0.5833500000000  0.4392540000000  0.6668300000000 1.0
C      1  0.3988530000000  0.4388720000000  0.3381730000000 1.0
C      1  0.6877120000000  0.4393110000000  0.4890680000000 1.0
C      1  0.4130750000000  0.4354520000000  0.6633730000000 1.0
C      1  0.4468940000000  0.5489680000000  0.7607230000000 1.0
C      1  0.7481010000000  0.5621770000000  0.4239700000000 1.0
C      1  0.3068580000000  0.5465910000000  0.3261020000000 1.0
C      1  0.5598170000000  0.5600120000000  0.7636880000000 1.0
C      1  0.2526600000000  0.5635980000000  0.4239460000000 1.0
C      1  0.6933880000000  0.5455070000000  0.3261420000000 1.0
C      1  0.6067940000000  0.5663100000000  0.2921490000000 1.0
C      1  0.2748250000000  0.5789060000000  0.5161200000000 1.0
C      1  0.6273530000000  0.5777140000000  0.6965640000000 1.0
C      1  0.3936730000000  0.5668880000000  0.2924110000000 1.0
C      1  0.7251940000000  0.5779280000000  0.5158910000000 1.0
C      1  0.3766110000000  0.5732100000000  0.6984010000000 1.0
C      1  0.7177030000000  0.4978420000000  0.5749420000000 1.0
C      1  0.4533800000000  0.4918390000000  0.2600520000000 1.0
C      1  0.3273590000000  0.4983540000000  0.6545710000000 1.0
C      1  0.2807040000000  0.4984620000000  0.5745680000000 1.0
C      1  0.5464470000000  0.4916440000000  0.2601000000000 1.0
C      1  0.6715710000000  0.4990140000000  0.6553170000000 1.0
C      1  0.5945570000000  0.6351470000000  0.6214870000000 1.0
C      1  0.5512820000000  0.6229450000000  0.3567770000000 1.0
C      1  0.3665560000000  0.6244550000000  0.5317060000000 1.0
C      1  0.4063230000000  0.6332050000000  0.6239060000000 1.0
C      1  0.4496210000000  0.6224780000000  0.3577570000000 1.0
C      1  0.6342510000000  0.6252060000000  0.5296210000000 1.0
C      1  0.3920040000000  0.5188510000000  0.4963190000000 1.0
C      1  0.5546080000000  0.5241150000000  0.5965920000000 1.0
C      1  0.5563310000000  0.5187030000000  0.4056350000000 1.0
C      1  0.6073280000000  0.5192760000000  0.4962600000000 1.0
C      1  0.4450490000000  0.5219220000000  0.5965140000000 1.0
C      1  0.4429140000000  0.5183660000000  0.4060380000000 1.0
C      1  0.3967760000000  0.3480200000000  0.3867380000000 1.0
C      1  0.4550040000000  0.3475360000000  0.6366840000000 1.0
C      1  0.6491890000000  0.3489770000000  0.4667020000000 1.0
C      1  0.6019830000000  0.3477090000000  0.3872760000000 1.0
C      1  0.5471540000000  0.3498310000000  0.6394760000000 1.0
C      1  0.3493580000000  0.3491960000000  0.4661290000000 1.0
END
