TITL C-986976-6631-238 0.00181908594722168 3375 -333.987083996136 0 0 60 (C3) n - 1
REM
REM in /home/bkarasulu/work/CARBON/AIRSS/Generating-Clusters/REBO/Higher-Symm/Only-C60
REM
REM
REM
REM
REM
REM ./C.cell (a2850807a9bf4ad07a5b6933b78d9264)
REM AIRSS Version 0.9.1 bugfix July 2018 build 013d7b7c2542+ Fri, 06 Jul 2018 19:26:36 +0100
REM compiler GCC version 9.2.1 20190827 (Red Hat 9.2.1-1)
REM options -cpp -mtune=generic -march=x86-64 -g -O0 -fpre-include=/usr/include/finclude/math-vector-fortran.h
REM seed -442857716 -1908639781 -412852089 1002132953 -724272741 -1835176094 1043986811 1892042860 514289154 -1872239108 -703112542 1879903052 -2059608100 -213458650 -1275120860 856113714 1811924614 1233068062 1975170395 907888507 1961172105 1606035894 -780838321 -1461316238 -2132112699 -1139848894 1248746050 -1079331927 -2115663409 1397616891 -1598334584 301115480 2106888676
REM
CELL 1.54180   15.00000   15.00000   15.00000   90.00000   90.00000   90.00000
LATT -1
SFAC C  
C      1  0.6924850000000  0.5843580000000  0.6843210000000 1.0
C      1  0.6929380000000  0.6229950000000  0.3362680000000 1.0
C      1  0.6928350000000  0.3025590000000  0.4763870000000 1.0
C      1  0.3137230000000  0.5643130000000  0.3167360000000 1.0
C      1  0.3134980000000  0.6307310000000  0.6424280000000 1.0
C      1  0.3137880000000  0.3150150000000  0.5371880000000 1.0
C      1  0.6710660000000  0.5312830000000  0.3464570000000 1.0
C      1  0.6710530000000  0.3571910000000  0.5507790000000 1.0
C      1  0.6708610000000  0.6213370000000  0.5997110000000 1.0
C      1  0.3397210000000  0.5405740000000  0.6337400000000 1.0
C      1  0.3399490000000  0.3678350000000  0.4635750000000 1.0
C      1  0.3399840000000  0.6017730000000  0.3991910000000 1.0
C      1  0.4638040000000  0.7649840000000  0.4903970000000 1.0
C      1  0.4636790000000  0.3651580000000  0.2766360000000 1.0
C      1  0.4638060000000  0.3796160000000  0.7298140000000 1.0
C      1  0.5894120000000  0.7437630000000  0.5295870000000 1.0
C      1  0.5893270000000  0.3564600000000  0.6915880000000 1.0
C      1  0.5891820000000  0.4098150000000  0.2753120000000 1.0
C      1  0.3682410000000  0.3248100000000  0.6135000000000 1.0
C      1  0.3680620000000  0.6918450000000  0.5958630000000 1.0
C      1  0.3681660000000  0.4933170000000  0.2871210000000 1.0
C      1  0.6448780000000  0.3225550000000  0.3977650000000 1.0
C      1  0.6450110000000  0.6811650000000  0.3928430000000 1.0
C      1  0.6445550000000  0.5062290000000  0.7062920000000 1.0
C      1  0.5748300000000  0.6948810000000  0.4545360000000 1.0
C      1  0.5747020000000  0.3692170000000  0.3551450000000 1.0
C      1  0.5744590000000  0.4458800000000  0.6871070000000 1.0
C      1  0.4512050000000  0.6989880000000  0.5512550000000 1.0
C      1  0.4512740000000  0.3599520000000  0.6422320000000 1.0
C      1  0.4511860000000  0.4509240000000  0.3032060000000 1.0
C      1  0.5980310000000  0.5976340000000  0.5429910000000 1.0
C      1  0.5981030000000  0.4941750000000  0.3952710000000 1.0
C      1  0.5981520000000  0.4180630000000  0.5587220000000 1.0
C      1  0.4123040000000  0.5922920000000  0.4596230000000 1.0
C      1  0.4120890000000  0.4928940000000  0.5955450000000 1.0
C      1  0.4122710000000  0.4248670000000  0.4415260000000 1.0
C      1  0.2445990000000  0.5972610000000  0.2683620000000 1.0
C      1  0.2448300000000  0.2564430000000  0.5327460000000 1.0
C      1  0.2442650000000  0.6561670000000  0.6949920000000 1.0
C      1  0.7507640000000  0.6242620000000  0.7410530000000 1.0
C      1  0.7512770000000  0.2336060000000  0.4824500000000 1.0
C      1  0.7514400000000  0.6520700000000  0.2735060000000 1.0
C      1  0.4955220000000  0.6471700000000  0.4367940000000 1.0
C      1  0.4954680000000  0.3777140000000  0.4054330000000 1.0
C      1  0.4951930000000  0.4850650000000  0.6545970000000 1.0
C      1  0.5135810000000  0.6310700000000  0.5752110000000 1.0
C      1  0.5137620000000  0.3733100000000  0.5715240000000 1.0
C      1  0.5137200000000  0.5054660000000  0.3500760000000 1.0
C      1  0.4894260000000  0.5975650000000  0.3509370000000 1.0
C      1  0.4891050000000  0.5842440000000  0.6544750000000 1.0
C      1  0.4893460000000  0.3281970000000  0.4912470000000 1.0
C      1  0.0767601000000  0.5038160000000  0.5002890000000 1.0
C      1  0.8103090000000  0.5033500000000  0.4986880000000 1.0
C      1  0.2529060000000  0.5045270000000  0.5027370000000 1.0
C      1  0.6151130000000  0.5033310000000  0.4990080000000 1.0
C      1  0.1655470000000  0.5041550000000  0.5014560000000 1.0
C      1  0.7222700000000  0.5033300000000  0.4987080000000 1.0
C      1  0.9879580000000  0.5035630000000  0.4994130000000 1.0
C      1  0.8991400000000  0.5034140000000  0.4988920000000 1.0
C      1  0.4229400000000  0.5033540000000  0.4988960000000 1.0
END
