TITL C-986976-6631-970 1.59920675888766e-06 3375 -322.267136274443 0 0 60 (C5) n - 1
REM
REM in /home/bkarasulu/work/CARBON/AIRSS/Generating-Clusters/REBO/Higher-Symm/Only-C60
REM
REM
REM
REM
REM
REM ./C.cell (a2850807a9bf4ad07a5b6933b78d9264)
REM AIRSS Version 0.9.1 bugfix July 2018 build 013d7b7c2542+ Fri, 06 Jul 2018 19:26:36 +0100
REM compiler GCC version 9.2.1 20190827 (Red Hat 9.2.1-1)
REM options -cpp -mtune=generic -march=x86-64 -g -O0 -fpre-include=/usr/include/finclude/math-vector-fortran.h
REM seed 396762331 -1753833766 1438881521 -320674639 1842185522 1035962656 952350825 -1719017045 771092811 337530524 952861108 1627569472 1929799118 -1035172463 -160322835 1344643653 1293187686 -1210512005 77485469 1334068721 315043470 1092386444 272758579 -887587594 -1993391155 1980840960 481704110 -1703453445 1535068340 1198541976 870058236 400220370 -1919013599
REM
CELL 1.54180   15.00000   15.00000   15.00000   90.00000   90.00000   90.00000
LATT -1
SFAC C  
C      1  0.3784680000000  0.6736520000000  0.4241180000000 1.0
C      1  0.6296740000000  0.6661960000000  0.4241160000000 1.0
C      1  0.7002100000000  0.4249800000000  0.4241230000000 1.0
C      1  0.4925960000000  0.2833560000000  0.4241290000000 1.0
C      1  0.2937490000000  0.4370460000000  0.4241260000000 1.0
C      1  0.4315810000000  0.3337680000000  0.5023020000000 1.0
C      1  0.3228360000000  0.5106540000000  0.5022990000000 1.0
C      1  0.4574610000000  0.6687370000000  0.5022920000000 1.0
C      1  0.6494080000000  0.5895520000000  0.5022920000000 1.0
C      1  0.6334140000000  0.3825300000000  0.5022990000000 1.0
C      1  0.3254920000000  0.6764610000000  0.5196610000000 1.0
C      1  0.6159730000000  0.7174490000000  0.5196570000000 1.0
C      1  0.7447190000000  0.4538510000000  0.5196640000000 1.0
C      1  0.5338060000000  0.2499510000000  0.5196720000000 1.0
C      1  0.2747110000000  0.3875310000000  0.5196700000000 1.0
C      1  0.5761250000000  0.5827110000000  0.7248530000000 1.0
C      1  0.6042570000000  0.4501190000000  0.7248570000000 1.0
C      1  0.4868480000000  0.3823900000000  0.7248600000000 1.0
C      1  0.3861520000000  0.4731240000000  0.7248580000000 1.0
C      1  0.4413280000000  0.5969290000000  0.7248540000000 1.0
C      1  0.5602850000000  0.3286040000000  0.3589450000000 1.0
C      1  0.3577000000000  0.3866510000000  0.3589440000000 1.0
C      1  0.3503030000000  0.5972560000000  0.3589380000000 1.0
C      1  0.5483150000000  0.6693740000000  0.3589350000000 1.0
C      1  0.6780930000000  0.5033370000000  0.3589390000000 1.0
C      1  0.6980350000000  0.5905860000000  0.3788140000000 1.0
C      1  0.6494250000000  0.3366010000000  0.3788210000000 1.0
C      1  0.3928510000000  0.3043460000000  0.3788240000000 1.0
C      1  0.2828870000000  0.5383930000000  0.3788190000000 1.0
C      1  0.4715000000000  0.7153020000000  0.3788130000000 1.0
C      1  0.6128700000000  0.4887210000000  0.2960370000000 1.0
C      1  0.5262290000000  0.3861110000000  0.2960360000000 1.0
C      1  0.4018650000000  0.4368050000000  0.2960270000000 1.0
C      1  0.4116500000000  0.5707490000000  0.2960220000000 1.0
C      1  0.5420600000000  0.6028310000000  0.2960280000000 1.0
C      1  0.4107750000000  0.6506090000000  0.6532480000000 1.0
C      1  0.6177370000000  0.6283560000000  0.6532470000000 1.0
C      1  0.6605270000000  0.4246460000000  0.6532530000000 1.0
C      1  0.4800110000000  0.3210000000000  0.6532570000000 1.0
C      1  0.3256550000000  0.4606530000000  0.6532550000000 1.0
C      1  0.5465700000000  0.3946530000000  0.4738730000000 1.0
C      1  0.4162760000000  0.4201060000000  0.4738740000000 1.0
C      1  0.4002200000000  0.5518900000000  0.4738710000000 1.0
C      1  0.5205910000000  0.6078830000000  0.4738680000000 1.0
C      1  0.6110410000000  0.5107050000000  0.4738690000000 1.0
C      1  0.6759860000000  0.5794150000000  0.5940950000000 1.0
C      1  0.6319840000000  0.3541230000000  0.5941020000000 1.0
C      1  0.4041210000000  0.3263520000000  0.5941050000000 1.0
C      1  0.3072950000000  0.5344810000000  0.5941000000000 1.0
C      1  0.4753180000000  0.6908830000000  0.5940940000000 1.0
C      1  0.5719420000000  0.6972480000000  0.6030590000000 1.0
C      1  0.7118970000000  0.4894880000000  0.6030640000000 1.0
C      1  0.5575550000000  0.2921800000000  0.6030710000000 1.0
C      1  0.3222090000000  0.3779970000000  0.6030710000000 1.0
C      1  0.3311010000000  0.6283430000000  0.6030630000000 1.0
C      1  0.4989420000000  0.4970550000000  0.7212320000000 1.0
C      1  0.4988750000000  0.4970580000000  0.3882800000000 1.0
C      1  0.4989410000000  0.4970510000000  0.6077710000000 1.0
C      1  0.4989420000000  0.4970480000000  0.4999230000000 1.0
C      1  0.4989360000000  0.4970420000000  0.2777420000000 1.0
END
