TITL C-986973-6940-624 0.000429294381613649 3375 -347.833126657935 0 0 60 (S10) n - 1
REM
REM in /home/bkarasulu/work/CARBON/AIRSS/Generating-Clusters/REBO/Higher-Symm/Only-C60
REM
REM
REM
REM
REM
REM ./C.cell (a2850807a9bf4ad07a5b6933b78d9264)
REM AIRSS Version 0.9.1 bugfix July 2018 build 013d7b7c2542+ Fri, 06 Jul 2018 19:26:36 +0100
REM compiler GCC version 9.2.1 20190827 (Red Hat 9.2.1-1)
REM options -cpp -mtune=generic -march=x86-64 -g -O0 -fpre-include=/usr/include/finclude/math-vector-fortran.h
REM seed 561320958 -264412040 1663061845 741808729 -414021921 2001521362 -386307870 -1124698737 -300569723 -1072300246 -916945180 -1577556782 1931427185 -620417991 -598461371 -1728948450 -1430119318 -1777215916 -1001304596 1445147915 2038999458 980857212 737387474 262411767 1759236641 182449464 -580891409 940354643 -1729523214 1760229125 544139939 629500868 -302512036
REM
CELL 1.54180   15.00000   15.00000   15.00000   90.00000   90.00000   90.00000
LATT -1
SFAC C  
C      1  0.2915370000000  0.4201270000000  0.4566340000000 1.0
C      1  0.3782970000000  0.3128490000000  0.5433560000000 1.0
C      1  0.5115470000000  0.2770570000000  0.4566390000000 1.0
C      1  0.6403820000000  0.3264210000000  0.5433630000000 1.0
C      1  0.7156010000000  0.4420870000000  0.4566450000000 1.0
C      1  0.7084630000000  0.5798730000000  0.5433660000000 1.0
C      1  0.6217030000000  0.6871510000000  0.4566440000000 1.0
C      1  0.4884530000000  0.7229430000000  0.5433610000000 1.0
C      1  0.3596180000000  0.6735790000000  0.4566370000000 1.0
C      1  0.2843990000000  0.5579130000000  0.5433550000000 1.0
C      1  0.3114780000000  0.3286620000000  0.4776320000000 1.0
C      1  0.4481920000000  0.2505740000000  0.5223600000000 1.0
C      1  0.6046960000000  0.2677590000000  0.4776390000000 1.0
C      1  0.7212080000000  0.3736510000000  0.5223670000000 1.0
C      1  0.7532280000000  0.5278050000000  0.4776440000000 1.0
C      1  0.6885220000000  0.6713380000000  0.5223680000000 1.0
C      1  0.5518080000000  0.7494260000000  0.4776400000000 1.0
C      1  0.3953040000000  0.7322410000000  0.5223610000000 1.0
C      1  0.2787920000000  0.6263490000000  0.4776330000000 1.0
C      1  0.2467720000000  0.4721950000000  0.5223560000000 1.0
C      1  0.4889110000000  0.3871380000000  0.5441650000000 1.0
C      1  0.5573700000000  0.4021760000000  0.4558350000000 1.0
C      1  0.6039110000000  0.4545780000000  0.5441680000000 1.0
C      1  0.6107650000000  0.5243320000000  0.4558370000000 1.0
C      1  0.5753070000000  0.5847900000000  0.5441680000000 1.0
C      1  0.5110890000000  0.6128620000000  0.4558350000000 1.0
C      1  0.4426310000000  0.5978240000000  0.5441650000000 1.0
C      1  0.3960890000000  0.5454210000000  0.4558320000000 1.0
C      1  0.3892350000000  0.4756680000000  0.5441630000000 1.0
C      1  0.4246930000000  0.4152100000000  0.4558320000000 1.0
C      1  0.5725750000000  0.3747390000000  0.6125440000000 1.0
C      1  0.6323460000000  0.4413230000000  0.3874590000000 1.0
C      1  0.6415550000000  0.5303180000000  0.6125470000000 1.0
C      1  0.5967050000000  0.6077340000000  0.3874600000000 1.0
C      1  0.5149070000000  0.6439970000000  0.6125450000000 1.0
C      1  0.4274250000000  0.6252610000000  0.3874560000000 1.0
C      1  0.3676540000000  0.5586770000000  0.6125410000000 1.0
C      1  0.3584450000000  0.4696820000000  0.3874530000000 1.0
C      1  0.4032950000000  0.3922660000000  0.6125400000000 1.0
C      1  0.4850930000000  0.3560030000000  0.3874550000000 1.0
C      1  0.7964980000000  0.3612260000000  0.5715540000000 1.0
C      1  0.8214440000000  0.5620090000000  0.4284610000000 1.0
C      1  0.7236030000000  0.7391040000000  0.5715550000000 1.0
C      1  0.5403600000000  0.8248720000000  0.4284550000000 1.0
C      1  0.3416940000000  0.7865480000000  0.5715450000000 1.0
C      1  0.2035020000000  0.6387750000000  0.4284470000000 1.0
C      1  0.1785560000000  0.4379920000000  0.5715390000000 1.0
C      1  0.2763970000000  0.2608960000000  0.4284460000000 1.0
C      1  0.4596410000000  0.1751280000000  0.5715450000000 1.0
C      1  0.6583060000000  0.2134520000000  0.4284550000000 1.0
C      1  0.4237360000000  0.5339560000000  0.6964290000000 1.0
C      1  0.4183500000000  0.4826490000000  0.3035670000000 1.0
C      1  0.4441350000000  0.4379650000000  0.6964290000000 1.0
C      1  0.4912750000000  0.4169810000000  0.3035680000000 1.0
C      1  0.5417310000000  0.4277030000000  0.6964320000000 1.0
C      1  0.5762640000000  0.4660440000000  0.3035710000000 1.0
C      1  0.5816500000000  0.5173510000000  0.6964330000000 1.0
C      1  0.5558650000000  0.5620350000000  0.3035710000000 1.0
C      1  0.5087250000000  0.5830190000000  0.6964320000000 1.0
C      1  0.4582690000000  0.5722970000000  0.3035680000000 1.0
END
