TITL C-986975-4297-200 -2.38370433357638e-05 3375 -317.571058229051 0 0 60 (Td) n - 1
REM
REM in /home/bkarasulu/work/CARBON/AIRSS/Generating-Clusters/REBO/Higher-Symm/Only-C60
REM
REM
REM
REM
REM
REM ./C.cell (a2850807a9bf4ad07a5b6933b78d9264)
REM AIRSS Version 0.9.1 bugfix July 2018 build 013d7b7c2542+ Fri, 06 Jul 2018 19:26:36 +0100
REM compiler GCC version 9.2.1 20190827 (Red Hat 9.2.1-1)
REM options -cpp -mtune=generic -march=x86-64 -g -O0 -fpre-include=/usr/include/finclude/math-vector-fortran.h
REM seed 290815964 -1240983671 -1052721963 972198545 -1152185147 -1718539675 1001194369 413881181 -1612067381 -150677207 -289796488 -272640194 -1316629418 -1599420454 42782063 1427251228 1381112404 -1388371899 -75280975 1258893229 -668024767 1495211081 1045137785 -1396316876 -268060029 1197099756 1849103941 1445571351 1112549160 1480943821 -240569315 984645757 -1868690144
REM
CELL 1.54180   15.00000   15.00000   15.00000   90.00000   90.00000   90.00000
LATT -1
SFAC C  
C      1  0.3744520000000  0.2715950000000  0.5320200000000 1.0
C      1  0.2715950000000  0.5320200000000  0.3744520000000 1.0
C      1  0.5320200000000  0.3744520000000  0.2715950000000 1.0
C      1  0.6255480000000  0.2715950000000  0.4679800000000 1.0
C      1  0.6255480000000  0.7284050000000  0.5320200000000 1.0
C      1  0.3744520000000  0.7284050000000  0.4679800000000 1.0
C      1  0.7284050000000  0.5320200000000  0.6255480000000 1.0
C      1  0.7284050000000  0.4679800000000  0.3744520000000 1.0
C      1  0.2715950000000  0.4679800000000  0.6255480000000 1.0
C      1  0.4679800000000  0.3744520000000  0.7284050000000 1.0
C      1  0.4679800000000  0.6255480000000  0.2715950000000 1.0
C      1  0.5320200000000  0.6255480000000  0.7284050000000 1.0
C      1  0.5320200000000  0.2715950000000  0.3744520000000 1.0
C      1  0.3744520000000  0.5320200000000  0.2715950000000 1.0
C      1  0.2715950000000  0.3744520000000  0.5320200000000 1.0
C      1  0.4679800000000  0.2715950000000  0.6255480000000 1.0
C      1  0.5320200000000  0.7284050000000  0.6255480000000 1.0
C      1  0.4679800000000  0.7284050000000  0.3744520000000 1.0
C      1  0.6255480000000  0.5320200000000  0.7284050000000 1.0
C      1  0.3744520000000  0.4679800000000  0.7284050000000 1.0
C      1  0.6255480000000  0.4679800000000  0.2715950000000 1.0
C      1  0.7284050000000  0.3744520000000  0.4679800000000 1.0
C      1  0.2715950000000  0.6255480000000  0.4679800000000 1.0
C      1  0.7284050000000  0.6255480000000  0.5320200000000 1.0
C      1  0.6477000000000  0.4234620000000  0.5019940000000 1.0
C      1  0.4234620000000  0.5019940000000  0.6477000000000 1.0
C      1  0.5019940000000  0.6477000000000  0.4234620000000 1.0
C      1  0.3523000000000  0.4234620000000  0.4980060000000 1.0
C      1  0.3523000000000  0.5765380000000  0.5019940000000 1.0
C      1  0.6477000000000  0.5765380000000  0.4980060000000 1.0
C      1  0.5765380000000  0.5019940000000  0.3523000000000 1.0
C      1  0.5765380000000  0.4980060000000  0.6477000000000 1.0
C      1  0.4234620000000  0.4980060000000  0.3523000000000 1.0
C      1  0.4980060000000  0.6477000000000  0.5765380000000 1.0
C      1  0.4980060000000  0.3523000000000  0.4234620000000 1.0
C      1  0.5019940000000  0.3523000000000  0.5765380000000 1.0
C      1  0.5019940000000  0.4234620000000  0.6477000000000 1.0
C      1  0.6477000000000  0.5019940000000  0.4234620000000 1.0
C      1  0.4234620000000  0.6477000000000  0.5019940000000 1.0
C      1  0.4980060000000  0.4234620000000  0.3523000000000 1.0
C      1  0.5019940000000  0.5765380000000  0.3523000000000 1.0
C      1  0.4980060000000  0.5765380000000  0.6477000000000 1.0
C      1  0.3523000000000  0.5019940000000  0.5765380000000 1.0
C      1  0.6477000000000  0.4980060000000  0.5765380000000 1.0
C      1  0.3523000000000  0.4980060000000  0.4234620000000 1.0
C      1  0.5765380000000  0.6477000000000  0.4980060000000 1.0
C      1  0.4234620000000  0.3523000000000  0.4980060000000 1.0
C      1  0.5765380000000  0.3523000000000  0.5019940000000 1.0
C      1  0.2767750000000  0.3570420000000  0.6429580000000 1.0
C      1  0.6429580000000  0.3570420000000  0.2767750000000 1.0
C      1  0.6429580000000  0.2767750000000  0.3570420000000 1.0
C      1  0.3570420000000  0.3570420000000  0.7232250000000 1.0
C      1  0.3570420000000  0.7232250000000  0.3570420000000 1.0
C      1  0.3570420000000  0.6429580000000  0.2767750000000 1.0
C      1  0.3570420000000  0.2767750000000  0.6429580000000 1.0
C      1  0.7232250000000  0.3570420000000  0.3570420000000 1.0
C      1  0.2767750000000  0.6429580000000  0.3570420000000 1.0
C      1  0.7232250000000  0.6429580000000  0.6429580000000 1.0
C      1  0.6429580000000  0.6429580000000  0.7232250000000 1.0
C      1  0.6429580000000  0.7232250000000  0.6429580000000 1.0
END
