TITL C-986975-4297-641 0.00143059822631397 3375 -332.333238649026 0 0 60 (C1) n - 1
REM
REM in /home/bkarasulu/work/CARBON/AIRSS/Generating-Clusters/REBO/Higher-Symm/Only-C60
REM
REM
REM
REM
REM
REM ./C.cell (a2850807a9bf4ad07a5b6933b78d9264)
REM AIRSS Version 0.9.1 bugfix July 2018 build 013d7b7c2542+ Fri, 06 Jul 2018 19:26:36 +0100
REM compiler GCC version 9.2.1 20190827 (Red Hat 9.2.1-1)
REM options -cpp -mtune=generic -march=x86-64 -g -O0 -fpre-include=/usr/include/finclude/math-vector-fortran.h
REM seed 882962833 1985631834 -1015341028 -1262165367 -442276614 1717471737 1934160107 2010939610 -1895478026 987967131 -1448185136 330308610 -1000953066 1684106557 1292473465 2095330367 -207314018 941815955 989744838 -1405450128 92558526 -896780577 844245998 38809247 -1043949325 -1703998447 513239080 2062640048 -565087665 -1939864745 -1092537351 -1125601382 -1717373918
REM
CELL 1.54180   15.00000   15.00000   15.00000   90.00000   90.00000   90.00000
LATT -1
SFAC C  
C      1  0.3304810000000  0.6034610000000  0.3434760000000 1.0
C      1  0.3074420000000  0.3530720000000  0.4125270000000 1.0
C      1  0.6336720000000  0.4109540000000  0.4106690000000 1.0
C      1  0.4427150000000  0.6718350000000  0.7019860000000 1.0
C      1  0.3027260000000  0.5654830000000  0.6108810000000 1.0
C      1  0.2636740000000  0.3400470000000  0.4927040000000 1.0
C      1  0.3182530000000  0.3489940000000  0.5700670000000 1.0
C      1  0.2214660000000  0.4600220000000  0.4527120000000 1.0
C      1  0.5205850000000  0.4905740000000  0.2752080000000 1.0
C      1  0.5437220000000  0.5111680000000  0.6079340000000 1.0
C      1  0.5387150000000  0.6415250000000  0.3703310000000 1.0
C      1  0.7169100000000  0.4134310000000  0.4834140000000 1.0
C      1  0.5451610000000  0.4783430000000  0.4411400000000 1.0
C      1  0.4962930000000  0.5834590000000  0.2822860000000 1.0
C      1  0.3498900000000  0.4155100000000  0.6892860000000 1.0
C      1  0.7055890000000  0.6612130000000  0.5177840000000 1.0
C      1  0.5259140000000  0.3332260000000  0.4142200000000 1.0
C      1  0.4728660000000  0.5201820000000  0.5173290000000 1.0
C      1  0.3840670000000  0.4800990000000  0.4799680000000 1.0
C      1  0.4535760000000  0.6960780000000  0.4260710000000 1.0
C      1  0.7926950000000  0.4661660000000  0.5490650000000 1.0
C      1  0.2452850000000  0.4605220000000  0.3639770000000 1.0
C      1  0.2861760000000  0.4683510000000  0.5206150000000 1.0
C      1  0.5029280000000  0.4168550000000  0.5940080000000 1.0
C      1  0.5951890000000  0.5892700000000  0.6189610000000 1.0
C      1  0.7091460000000  0.3129040000000  0.5310390000000 1.0
C      1  0.3847660000000  0.5052280000000  0.7365990000000 1.0
C      1  0.7237230000000  0.5267870000000  0.4918500000000 1.0
C      1  0.3831260000000  0.5897510000000  0.6726460000000 1.0
C      1  0.7871990000000  0.4451910000000  0.6570640000000 1.0
C      1  0.7421990000000  0.2979870000000  0.6126310000000 1.0
C      1  0.3888320000000  0.3097670000000  0.6750740000000 1.0
C      1  0.5092820000000  0.7548130000000  0.7033070000000 1.0
C      1  0.4041560000000  0.2827770000000  0.5728260000000 1.0
C      1  0.4086040000000  0.4133340000000  0.5950320000000 1.0
C      1  0.3181470000000  0.5582990000000  0.4279050000000 1.0
C      1  0.6086380000000  0.4374660000000  0.3066560000000 1.0
C      1  0.4062030000000  0.3885860000000  0.4273420000000 1.0
C      1  0.7737430000000  0.3551280000000  0.6774130000000 1.0
C      1  0.4474770000000  0.3031380000000  0.4897060000000 1.0
C      1  0.6974460000000  0.6029400000000  0.3520720000000 1.0
C      1  0.6312410000000  0.5687070000000  0.4623700000000 1.0
C      1  0.2836510000000  0.4681550000000  0.6188300000000 1.0
C      1  0.7501780000000  0.6155360000000  0.4297630000000 1.0
C      1  0.4127850000000  0.4973850000000  0.3515480000000 1.0
C      1  0.3072200000000  0.5999470000000  0.5233410000000 1.0
C      1  0.5337420000000  0.6701200000000  0.6319290000000 1.0
C      1  0.7496120000000  0.5401980000000  0.6218370000000 1.0
C      1  0.3280340000000  0.4714350000000  0.3274640000000 1.0
C      1  0.6873630000000  0.6053280000000  0.5964870000000 1.0
C      1  0.6112070000000  0.5322070000000  0.3627550000000 1.0
C      1  0.6181930000000  0.6746210000000  0.4463710000000 1.0
C      1  0.4037590000000  0.6321290000000  0.4978230000000 1.0
C      1  0.4005180000000  0.6096910000000  0.2814200000000 1.0
C      1  0.4466300000000  0.5832860000000  0.4047320000000 1.0
C      1  0.4824530000000  0.4099960000000  0.3459500000000 1.0
C      1  0.4550950000000  0.6080800000000  0.5868640000000 1.0
C      1  0.5473400000000  0.3887030000000  0.5095960000000 1.0
C      1  0.6253410000000  0.3178770000000  0.4686870000000 1.0
C      1  0.5369620000000  0.7426620000000  0.4564510000000 1.0
END
