TITL C-986975-4297-381 -0.00398660734657782 3375 -344.701129763171 0 0 60 (C1) n - 1
REM
REM in /home/bkarasulu/work/CARBON/AIRSS/Generating-Clusters/REBO/Higher-Symm/Only-C60
REM
REM
REM
REM
REM
REM ./C.cell (a2850807a9bf4ad07a5b6933b78d9264)
REM AIRSS Version 0.9.1 bugfix July 2018 build 013d7b7c2542+ Fri, 06 Jul 2018 19:26:36 +0100
REM compiler GCC version 9.2.1 20190827 (Red Hat 9.2.1-1)
REM options -cpp -mtune=generic -march=x86-64 -g -O0 -fpre-include=/usr/include/finclude/math-vector-fortran.h
REM seed 408543115 1733887595 -1658700830 202198706 -1408911445 32793637 1690990913 -75771727 -1031104025 -1306838725 1273809490 -660053454 -76994742 -878841185 551663056 -881294979 624378505 -418175038 -559310412 -1538809067 -2110925721 1766051181 477049144 -1483903703 209734 1640205552 -1758929087 -1237925415 -900611434 -759800433 693398833 135753698 -1919857293
REM
CELL 1.54180   15.00000   15.00000   15.00000   90.00000   90.00000   90.00000
LATT -1
SFAC C  
C      1  0.3624580000000  0.4464700000000  0.7130690000000 1.0
C      1  0.6095010000000  0.4057670000000  0.7164660000000 1.0
C      1  0.5115000000000  0.6303850000000  0.7108530000000 1.0
C      1  0.3674300000000  0.2770990000000  0.6284550000000 1.0
C      1  0.8375190000000  0.5079240000000  0.5521010000000 1.0
C      1  0.2919330000000  0.7125030000000  0.5428480000000 1.0
C      1  0.3501150000000  0.7543720000000  0.4860980000000 1.0
C      1  0.4119020000000  0.2860650000000  0.5420170000000 1.0
C      1  0.7510870000000  0.5223430000000  0.5245230000000 1.0
C      1  0.2971970000000  0.6197780000000  0.5642480000000 1.0
C      1  0.5104990000000  0.2794440000000  0.5527080000000 1.0
C      1  0.6927300000000  0.5899240000000  0.5614370000000 1.0
C      1  0.6408180000000  0.3168720000000  0.4082820000000 1.0
C      1  0.5911220000000  0.7084670000000  0.4324960000000 1.0
C      1  0.2692540000000  0.4751600000000  0.4233310000000 1.0
C      1  0.3809000000000  0.3458860000000  0.4701520000000 1.0
C      1  0.7043400000000  0.4630260000000  0.4605050000000 1.0
C      1  0.4234280000000  0.7196910000000  0.4457590000000 1.0
C      1  0.5944680000000  0.4291960000000  0.5550580000000 1.0
C      1  0.5136830000000  0.6152900000000  0.5477970000000 1.0
C      1  0.4036210000000  0.4445900000000  0.5586910000000 1.0
C      1  0.7308070000000  0.3154150000000  0.5605990000000 1.0
C      1  0.5206200000000  0.7812870000000  0.5625850000000 1.0
C      1  0.2357520000000  0.3841100000000  0.5664360000000 1.0
C      1  0.6486470000000  0.5587040000000  0.6436820000000 1.0
C      1  0.3615420000000  0.5962230000000  0.6357990000000 1.0
C      1  0.4759800000000  0.3192510000000  0.6536880000000 1.0
C      1  0.4263190000000  0.3504530000000  0.3663330000000 1.0
C      1  0.6732360000000  0.5102210000000  0.3644080000000 1.0
C      1  0.4124180000000  0.6403070000000  0.3832650000000 1.0
C      1  0.4550510000000  0.6192360000000  0.6358680000000 1.0
C      1  0.4074360000000  0.4010600000000  0.6490660000000 1.0
C      1  0.6267800000000  0.4646040000000  0.6457230000000 1.0
C      1  0.3162220000000  0.4817260000000  0.3385170000000 1.0
C      1  0.6167160000000  0.3564960000000  0.3233380000000 1.0
C      1  0.5730620000000  0.6806890000000  0.3397180000000 1.0
C      1  0.5421000000000  0.5972130000000  0.2960690000000 1.0
C      1  0.4030570000000  0.4975680000000  0.2963730000000 1.0
C      1  0.5569350000000  0.4269950000000  0.2898570000000 1.0
C      1  0.3746810000000  0.5532340000000  0.4343330000000 1.0
C      1  0.5211230000000  0.3726200000000  0.4140880000000 1.0
C      1  0.6089610000000  0.5788680000000  0.4165620000000 1.0
C      1  0.3352430000000  0.5331770000000  0.7019090000000 1.0
C      1  0.5505750000000  0.3367310000000  0.7194560000000 1.0
C      1  0.6014170000000  0.6129010000000  0.7050830000000 1.0
C      1  0.4950340000000  0.4205770000000  0.5060470000000 1.0
C      1  0.5753130000000  0.5265810000000  0.5094990000000 1.0
C      1  0.4437800000000  0.5411320000000  0.5149210000000 1.0
C      1  0.3084020000000  0.4183380000000  0.5043440000000 1.0
C      1  0.6687160000000  0.3686310000000  0.5011460000000 1.0
C      1  0.5113230000000  0.7111110000000  0.4997640000000 1.0
C      1  0.5615400000000  0.2929690000000  0.4777540000000 1.0
C      1  0.6527430000000  0.6436590000000  0.4923060000000 1.0
C      1  0.2831250000000  0.5607230000000  0.4894510000000 1.0
C      1  0.5930210000000  0.5157770000000  0.2957800000000 1.0
C      1  0.4462360000000  0.5837390000000  0.3003030000000 1.0
C      1  0.4619360000000  0.4221900000000  0.2969810000000 1.0
C      1  0.4127960000000  0.4475230000000  0.4267520000000 1.0
C      1  0.5957260000000  0.4485650000000  0.4240340000000 1.0
C      1  0.5001200000000  0.5791430000000  0.4212710000000 1.0
END
