TITL C-986973-6940-1035 -1.03887660439205e-05 3375 -339.57335450607 0 0 60 (S4) n - 1
REM
REM in /home/bkarasulu/work/CARBON/AIRSS/Generating-Clusters/REBO/Higher-Symm/Only-C60
REM
REM
REM
REM
REM
REM ./C.cell (a2850807a9bf4ad07a5b6933b78d9264)
REM AIRSS Version 0.9.1 bugfix July 2018 build 013d7b7c2542+ Fri, 06 Jul 2018 19:26:36 +0100
REM compiler GCC version 9.2.1 20190827 (Red Hat 9.2.1-1)
REM options -cpp -mtune=generic -march=x86-64 -g -O0 -fpre-include=/usr/include/finclude/math-vector-fortran.h
REM seed 1419063540 1227097987 -1648092515 -1423255993 1103902041 1673690594 2096521460 -325432962 -267341223 -53085494 -631657242 -645906722 1760267880 1799640952 -1201848652 -843357040 1528493184 -1632226179 587102607 -2073355180 545841962 -332794140 2100887771 1259653055 1860286539 1556253322 -828255959 -720000758 2048832616 884401257 1189882251 -509132370 -791085628
REM
CELL 1.54180   15.00000   15.00000   15.00000   90.00000   90.00000   90.00000
LATT -1
SFAC C  
C      1  0.4373900000000  0.6506860000000  0.3656010000000 1.0
C      1  0.5626500000000  0.6506800000000  0.6343870000000 1.0
C      1  0.4407140000000  0.3626150000000  0.6243080000000 1.0
C      1  0.5592490000000  0.3625890000000  0.3757030000000 1.0
C      1  0.3757160000000  0.6374120000000  0.4407280000000 1.0
C      1  0.6243210000000  0.6373830000000  0.5592620000000 1.0
C      1  0.6343740000000  0.3492970000000  0.4373760000000 1.0
C      1  0.3655860000000  0.3493370000000  0.5626350000000 1.0
C      1  0.4414520000000  0.5848950000000  0.7281890000000 1.0
C      1  0.5585700000000  0.5848620000000  0.2718040000000 1.0
C      1  0.4421390000000  0.4162030000000  0.2659710000000 1.0
C      1  0.5578380000000  0.4162060000000  0.7340360000000 1.0
C      1  0.7340430000000  0.5837620000000  0.4421460000000 1.0
C      1  0.2659790000000  0.5838280000000  0.5578470000000 1.0
C      1  0.2717960000000  0.4151500000000  0.4414440000000 1.0
C      1  0.7281810000000  0.4150940000000  0.5585630000000 1.0
C      1  0.5167870000000  0.4340590000000  0.5804370000000 1.0
C      1  0.4831950000000  0.4340570000000  0.4195680000000 1.0
C      1  0.4901870000000  0.5705650000000  0.4292250000000 1.0
C      1  0.5098320000000  0.5705680000000  0.5707690000000 1.0
C      1  0.5707630000000  0.4294230000000  0.4901800000000 1.0
C      1  0.4292190000000  0.4294430000000  0.5098250000000 1.0
C      1  0.4195750000000  0.5659530000000  0.5167940000000 1.0
C      1  0.5804430000000  0.5659300000000  0.4832010000000 1.0
C      1  0.3652080000000  0.3662790000000  0.2468110000000 1.0
C      1  0.6347560000000  0.3662640000000  0.7532010000000 1.0
C      1  0.3637880000000  0.6332270000000  0.7484430000000 1.0
C      1  0.6362480000000  0.6331710000000  0.2515460000000 1.0
C      1  0.2515340000000  0.3668300000000  0.3637750000000 1.0
C      1  0.7484300000000  0.3667740000000  0.6362360000000 1.0
C      1  0.7532120000000  0.6336890000000  0.3652200000000 1.0
C      1  0.2468230000000  0.6337670000000  0.6347690000000 1.0
C      1  0.2992160000000  0.5720500000000  0.4623770000000 1.0
C      1  0.7008030000000  0.5720000000000  0.5376170000000 1.0
C      1  0.3003600000000  0.4212130000000  0.5382260000000 1.0
C      1  0.6996190000000  0.4211570000000  0.4617800000000 1.0
C      1  0.4617870000000  0.5788120000000  0.3003680000000 1.0
C      1  0.5382340000000  0.5788180000000  0.6996260000000 1.0
C      1  0.5376110000000  0.4279620000000  0.2992090000000 1.0
C      1  0.4623700000000  0.4279870000000  0.7007960000000 1.0
C      1  0.3598150000000  0.4803090000000  0.4346690000000 1.0
C      1  0.6401800000000  0.4802770000000  0.5653330000000 1.0
C      1  0.3440120000000  0.5109590000000  0.5718320000000 1.0
C      1  0.6559910000000  0.5109110000000  0.4281670000000 1.0
C      1  0.4281660000000  0.4890680000000  0.3440110000000 1.0
C      1  0.5718310000000  0.4890610000000  0.6559900000000 1.0
C      1  0.5653340000000  0.5196930000000  0.3598160000000 1.0
C      1  0.4346710000000  0.5197210000000  0.6401820000000 1.0
C      1  0.6474330000000  0.2746410000000  0.7177320000000 1.0
C      1  0.3525060000000  0.2746630000000  0.2822880000000 1.0
C      1  0.6497030000000  0.7250490000000  0.2862960000000 1.0
C      1  0.3503570000000  0.7251060000000  0.7136850000000 1.0
C      1  0.7136630000000  0.2749000000000  0.6496830000000 1.0
C      1  0.2862750000000  0.2749460000000  0.3503370000000 1.0
C      1  0.2823080000000  0.7253830000000  0.6474550000000 1.0
C      1  0.7177520000000  0.7253130000000  0.3525260000000 1.0
C      1  0.7194410000000  0.4082930000000  0.7218310000000 1.0
C      1  0.7218390000000  0.5916490000000  0.2805410000000 1.0
C      1  0.2805340000000  0.4083330000000  0.2781770000000 1.0
C      1  0.2781860000000  0.5917250000000  0.7194510000000 1.0
END
