TITL C-986977-940-26 -0.0102952938776279 3375 -344.389635511774 0 0 60 (C1) n - 1
REM
REM in /home/bkarasulu/work/CARBON/AIRSS/Generating-Clusters/REBO/Higher-Symm/Only-C60
REM
REM
REM
REM
REM
REM ./C.cell (a2850807a9bf4ad07a5b6933b78d9264)
REM AIRSS Version 0.9.1 bugfix July 2018 build 013d7b7c2542+ Fri, 06 Jul 2018 19:26:36 +0100
REM compiler GCC version 9.2.1 20190827 (Red Hat 9.2.1-1)
REM options -cpp -mtune=generic -march=x86-64 -g -O0 -fpre-include=/usr/include/finclude/math-vector-fortran.h
REM seed -2099057638 1391554764 -861868978 -997241551 1676994553 264675435 1583246151 234416291 -1824825509 1959812832 949925176 301923667 836036505 798679242 1610907334 -1003572033 -262023936 1039100479 -1344038406 834345488 -1303865346 34630971 -1268492449 -171397276 1367531196 -1330872412 -63572400 1284916037 -1717178924 876056508 -1218978743 909128231 -1191341156
REM
CELL 1.54180   15.00000   15.00000   15.00000   90.00000   90.00000   90.00000
LATT -1
SFAC C  
C      1  0.2350440000000  0.4968250000000  0.4795200000000 1.0
C      1  0.6318950000000  0.5228200000000  0.3070450000000 1.0
C      1  0.6112650000000  0.5166860000000  0.7108570000000 1.0
C      1  0.3207840000000  0.5136900000000  0.2736160000000 1.0
C      1  0.7721160000000  0.5387370000000  0.4771160000000 1.0
C      1  0.3945000000000  0.5511520000000  0.7356720000000 1.0
C      1  0.7308500000000  0.4311700000000  0.4112430000000 1.0
C      1  0.4637370000000  0.4381980000000  0.7429050000000 1.0
C      1  0.2701640000000  0.4339940000000  0.3679900000000 1.0
C      1  0.5696860000000  0.5153710000000  0.5843280000000 1.0
C      1  0.4125280000000  0.5166470000000  0.5095150000000 1.0
C      1  0.5417460000000  0.5142030000000  0.4046580000000 1.0
C      1  0.6278180000000  0.6899870000000  0.3007470000000 1.0
C      1  0.6347580000000  0.6816430000000  0.7118320000000 1.0
C      1  0.2491030000000  0.6527940000000  0.4665550000000 1.0
C      1  0.3887720000000  0.6112180000000  0.5355020000000 1.0
C      1  0.5535020000000  0.6115590000000  0.3781290000000 1.0
C      1  0.5998170000000  0.6082690000000  0.6067460000000 1.0
C      1  0.2750390000000  0.4170280000000  0.5466200000000 1.0
C      1  0.5706210000000  0.4286570000000  0.2921050000000 1.0
C      1  0.6481540000000  0.4179620000000  0.6690920000000 1.0
C      1  0.4634000000000  0.5975400000000  0.7379180000000 1.0
C      1  0.2609330000000  0.5594030000000  0.3237960000000 1.0
C      1  0.7385880000000  0.5907240000000  0.4216750000000 1.0
C      1  0.5647120000000  0.3615960000000  0.3587500000000 1.0
C      1  0.5893240000000  0.3586460000000  0.6259250000000 1.0
C      1  0.3457560000000  0.3635780000000  0.5180860000000 1.0
C      1  0.5357230000000  0.6526060000000  0.2739070000000 1.0
C      1  0.7014930000000  0.6374430000000  0.6466510000000 1.0
C      1  0.2948190000000  0.6239200000000  0.5471790000000 1.0
C      1  0.5327410000000  0.6734860000000  0.4490440000000 1.0
C      1  0.5576030000000  0.6757290000000  0.5522570000000 1.0
C      1  0.4545970000000  0.6748800000000  0.5230960000000 1.0
C      1  0.3680840000000  0.3453050000000  0.4308550000000 1.0
C      1  0.6268010000000  0.3343600000000  0.4224040000000 1.0
C      1  0.5022800000000  0.3358680000000  0.6489530000000 1.0
C      1  0.2287310000000  0.5767890000000  0.4098100000000 1.0
C      1  0.6735580000000  0.6108430000000  0.3510370000000 1.0
C      1  0.5598200000000  0.6096030000000  0.7231740000000 1.0
C      1  0.4814350000000  0.4727190000000  0.2526320000000 1.0
C      1  0.7334990000000  0.4515070000000  0.6178950000000 1.0
C      1  0.2820480000000  0.4630210000000  0.6397610000000 1.0
C      1  0.4213070000000  0.3692070000000  0.5810130000000 1.0
C      1  0.4722510000000  0.3629100000000  0.3931260000000 1.0
C      1  0.6069500000000  0.3636030000000  0.5282630000000 1.0
C      1  0.5235150000000  0.4649780000000  0.6742730000000 1.0
C      1  0.3383110000000  0.4749360000000  0.4384470000000 1.0
C      1  0.6433750000000  0.4642600000000  0.3978130000000 1.0
C      1  0.3964960000000  0.3450580000000  0.6873350000000 1.0
C      1  0.3829500000000  0.3761380000000  0.3287500000000 1.0
C      1  0.7108590000000  0.3368580000000  0.4961260000000 1.0
C      1  0.7617740000000  0.4351030000000  0.5211180000000 1.0
C      1  0.3544900000000  0.4483200000000  0.7097150000000 1.0
C      1  0.3907250000000  0.4503710000000  0.2706270000000 1.0
C      1  0.7037690000000  0.5376610000000  0.6589840000000 1.0
C      1  0.2509970000000  0.5418350000000  0.5824580000000 1.0
C      1  0.5406040000000  0.5533270000000  0.2588950000000 1.0
C      1  0.5879890000000  0.4635970000000  0.4949250000000 1.0
C      1  0.4684120000000  0.4648340000000  0.5764330000000 1.0
C      1  0.4473810000000  0.4688260000000  0.4151030000000 1.0
END
