TITL C-986978-6805-867 1.50426938357381e-05 3375 -340.168697012514 0 0 60 (C1) n - 1
REM
REM in /home/bkarasulu/work/CARBON/AIRSS/Generating-Clusters/REBO/Higher-Symm/Only-C60
REM
REM
REM
REM
REM
REM ./C.cell (a2850807a9bf4ad07a5b6933b78d9264)
REM AIRSS Version 0.9.1 bugfix July 2018 build 013d7b7c2542+ Fri, 06 Jul 2018 19:26:36 +0100
REM compiler GCC version 9.2.1 20190827 (Red Hat 9.2.1-1)
REM options -cpp -mtune=generic -march=x86-64 -g -O0 -fpre-include=/usr/include/finclude/math-vector-fortran.h
REM seed 1535850636 -1647767419 1564875165 1976154131 -1816847836 1957007669 1575677775 1915074260 -963350315 1867271635 -1320472599 -868244531 -2122260221 1985846498 1870780865 957511674 673402746 1611753938 1919917567 144714046 1391526004 -291322066 -1213586769 -1636057921 -1229752999 1294934412 -2091563537 2050349715 1610819242 -224091573 988044778 -1436431583 195458559
REM
CELL 1.54180   15.00000   15.00000   15.00000   90.00000   90.00000   90.00000
LATT -1
SFAC C  
C      1  0.6554090000000  0.3677310000000  0.6405260000000 1.0
C      1  0.5009660000000  0.4362250000000  0.4239390000000 1.0
C      1  0.3286080000000  0.4515400000000  0.6425960000000 1.0
C      1  0.4676670000000  0.4755760000000  0.7259450000000 1.0
C      1  0.3397340000000  0.4216900000000  0.4556740000000 1.0
C      1  0.4703030000000  0.5383080000000  0.5402920000000 1.0
C      1  0.5319130000000  0.3211260000000  0.4924520000000 1.0
C      1  0.5824490000000  0.5331310000000  0.3016280000000 1.0
C      1  0.5649580000000  0.5225470000000  0.6908060000000 1.0
C      1  0.4382370000000  0.6094990000000  0.3220530000000 1.0
C      1  0.6943390000000  0.5644700000000  0.4941010000000 1.0
C      1  0.3785770000000  0.6470000000000  0.4041150000000 1.0
C      1  0.7141050000000  0.3955240000000  0.5530020000000 1.0
C      1  0.5696950000000  0.6797020000000  0.3832840000000 1.0
C      1  0.4706580000000  0.4009140000000  0.2888440000000 1.0
C      1  0.5809990000000  0.5223360000000  0.5560280000000 1.0
C      1  0.4481790000000  0.6304300000000  0.4902570000000 1.0
C      1  0.2408970000000  0.5310290000000  0.3600190000000 1.0
C      1  0.4785520000000  0.6766480000000  0.7083130000000 1.0
C      1  0.6195470000000  0.2806080000000  0.4864330000000 1.0
C      1  0.5597410000000  0.2908920000000  0.3383940000000 1.0
C      1  0.7055280000000  0.3310510000000  0.4648840000000 1.0
C      1  0.6049290000000  0.4039230000000  0.4164720000000 1.0
C      1  0.4857450000000  0.5127290000000  0.3589300000000 1.0
C      1  0.2855580000000  0.6430580000000  0.5344750000000 1.0
C      1  0.6141040000000  0.6229720000000  0.5321890000000 1.0
C      1  0.3953450000000  0.3754260000000  0.3699840000000 1.0
C      1  0.5776150000000  0.3137610000000  0.6587120000000 1.0
C      1  0.4053320000000  0.4542640000000  0.5347230000000 1.0
C      1  0.3089910000000  0.4485870000000  0.3553510000000 1.0
C      1  0.6125250000000  0.6728220000000  0.6203260000000 1.0
C      1  0.4908540000000  0.3108780000000  0.5866440000000 1.0
C      1  0.6481470000000  0.4763230000000  0.6352900000000 1.0
C      1  0.4763020000000  0.3472240000000  0.6952950000000 1.0
C      1  0.7346140000000  0.5052420000000  0.5750790000000 1.0
C      1  0.3737310000000  0.6390530000000  0.5744740000000 1.0
C      1  0.7319790000000  0.3974630000000  0.3766450000000 1.0
C      1  0.7343160000000  0.5087180000000  0.4035950000000 1.0
C      1  0.3650410000000  0.5242450000000  0.7173090000000 1.0
C      1  0.5355530000000  0.4234320000000  0.5312500000000 1.0
C      1  0.4903440000000  0.3256540000000  0.3965870000000 1.0
C      1  0.5395850000000  0.6264580000000  0.3161580000000 1.0
C      1  0.6530670000000  0.3164710000000  0.3628040000000 1.0
C      1  0.3329250000000  0.5759590000000  0.3273960000000 1.0
C      1  0.4384760000000  0.5360560000000  0.6343040000000 1.0
C      1  0.6641880000000  0.4567840000000  0.4743400000000 1.0
C      1  0.5273140000000  0.8295380000000  0.6297790000000 1.0
C      1  0.5644940000000  0.6210420000000  0.6942370000000 1.0
C      1  0.5387110000000  0.7432250000000  0.6508820000000 1.0
C      1  0.3961970000000  0.4863020000000  0.2969390000000 1.0
C      1  0.3952800000000  0.6269920000000  0.6774510000000 1.0
C      1  0.5456330000000  0.6630730000000  0.4692790000000 1.0
C      1  0.5675440000000  0.4208120000000  0.3094720000000 1.0
C      1  0.2942160000000  0.4790520000000  0.5426450000000 1.0
C      1  0.2969200000000  0.6920570000000  0.4515640000000 1.0
C      1  0.6690700000000  0.4708780000000  0.3207140000000 1.0
C      1  0.4039250000000  0.3778100000000  0.6140740000000 1.0
C      1  0.2413470000000  0.5592900000000  0.5195050000000 1.0
C      1  0.5226890000000  0.4327970000000  0.6354080000000 1.0
C      1  0.1963290000000  0.5516540000000  0.4361360000000 1.0
END
