TITL C-986978-6805-405 -8.70234966822791e-08 3375 -339.661612325555 0 0 60 (C1) n - 1
REM
REM in /home/bkarasulu/work/CARBON/AIRSS/Generating-Clusters/REBO/Higher-Symm/Only-C60
REM
REM
REM
REM
REM
REM ./C.cell (a2850807a9bf4ad07a5b6933b78d9264)
REM AIRSS Version 0.9.1 bugfix July 2018 build 013d7b7c2542+ Fri, 06 Jul 2018 19:26:36 +0100
REM compiler GCC version 9.2.1 20190827 (Red Hat 9.2.1-1)
REM options -cpp -mtune=generic -march=x86-64 -g -O0 -fpre-include=/usr/include/finclude/math-vector-fortran.h
REM seed 2088826620 1559943784 -2101116576 -525590234 -2072359361 -1757038927 -20001909 -542808391 1085417595 -1241759 -811123484 1311198426 -721721475 -1332304408 -62550124 -1917276796 -1089104253 -792872411 -1292872077 -41456068 282394190 -787085187 86403511 -1320935513 433866638 -704131463 -848146742 1890528474 1707529907 -1360010338 -1217948710 -1631289623 787459782
REM
CELL 1.54180   15.00000   15.00000   15.00000   90.00000   90.00000   90.00000
LATT -1
SFAC C  
C      1  0.3160340000000  0.3225540000000  0.3484990000000 1.0
C      1  0.3129420000000  0.6759910000000  0.6511060000000 1.0
C      1  0.5162290000000  0.6830160000000  0.4158350000000 1.0
C      1  0.5116920000000  0.3200560000000  0.5834160000000 1.0
C      1  0.5864910000000  0.5713420000000  0.2918330000000 1.0
C      1  0.5851120000000  0.4311890000000  0.7076730000000 1.0
C      1  0.4837400000000  0.3805610000000  0.2760730000000 1.0
C      1  0.4819790000000  0.6197820000000  0.7250220000000 1.0
C      1  0.5861580000000  0.6876460000000  0.5868340000000 1.0
C      1  0.5873550000000  0.3149420000000  0.4153410000000 1.0
C      1  0.3888230000000  0.6138860000000  0.4874600000000 1.0
C      1  0.3915710000000  0.3847030000000  0.5130540000000 1.0
C      1  0.4289000000000  0.2864020000000  0.5157670000000 1.0
C      1  0.4302880000000  0.7086460000000  0.4814660000000 1.0
C      1  0.5551590000000  0.3927100000000  0.3502740000000 1.0
C      1  0.5542500000000  0.6088350000000  0.6516000000000 1.0
C      1  0.3094320000000  0.6155670000000  0.5577230000000 1.0
C      1  0.3117910000000  0.3828150000000  0.4420570000000 1.0
C      1  0.6057760000000  0.4263080000000  0.5085040000000 1.0
C      1  0.6073430000000  0.5773040000000  0.4923570000000 1.0
C      1  0.3291380000000  0.5832320000000  0.6847440000000 1.0
C      1  0.3304850000000  0.4156780000000  0.3150120000000 1.0
C      1  0.6366120000000  0.3493800000000  0.6562090000000 1.0
C      1  0.6366930000000  0.6541590000000  0.3448500000000 1.0
C      1  0.6748110000000  0.4715170000000  0.5800520000000 1.0
C      1  0.6715060000000  0.5326310000000  0.4179620000000 1.0
C      1  0.5257800000000  0.2831520000000  0.4766170000000 1.0
C      1  0.5249940000000  0.7171360000000  0.5240580000000 1.0
C      1  0.4003120000000  0.4010400000000  0.6866240000000 1.0
C      1  0.4002420000000  0.5986740000000  0.3151540000000 1.0
C      1  0.5211550000000  0.4707070000000  0.4157330000000 1.0
C      1  0.5214520000000  0.5324080000000  0.5838870000000 1.0
C      1  0.4296880000000  0.5328420000000  0.2535010000000 1.0
C      1  0.4287820000000  0.4676370000000  0.7479110000000 1.0
C      1  0.6660390000000  0.5813170000000  0.5855930000000 1.0
C      1  0.6675150000000  0.4211860000000  0.4152310000000 1.0
C      1  0.2748240000000  0.4473060000000  0.5209570000000 1.0
C      1  0.2729580000000  0.5498290000000  0.4790040000000 1.0
C      1  0.2949810000000  0.5167420000000  0.6082950000000 1.0
C      1  0.2950930000000  0.4812170000000  0.3915060000000 1.0
C      1  0.6536070000000  0.3405650000000  0.5673390000000 1.0
C      1  0.6534430000000  0.6636000000000  0.4338730000000 1.0
C      1  0.6239800000000  0.5207800000000  0.6680130000000 1.0
C      1  0.6238410000000  0.4803410000000  0.3314210000000 1.0
C      1  0.4073240000000  0.5600400000000  0.7321020000000 1.0
C      1  0.4088840000000  0.4400390000000  0.2685220000000 1.0
C      1  0.5163640000000  0.4479700000000  0.7822770000000 1.0
C      1  0.5165300000000  0.5542110000000  0.2182210000000 1.0
C      1  0.7678880000000  0.5023600000000  0.4552490000000 1.0
C      1  0.7677950000000  0.4683490000000  0.5330420000000 1.0
C      1  0.4919920000000  0.4278740000000  0.5077840000000 1.0
C      1  0.4934690000000  0.5759210000000  0.4918260000000 1.0
C      1  0.5284100000000  0.4277870000000  0.6156270000000 1.0
C      1  0.5310350000000  0.5748590000000  0.3843960000000 1.0
C      1  0.3460580000000  0.5764700000000  0.3947110000000 1.0
C      1  0.3469510000000  0.4217860000000  0.6061180000000 1.0
C      1  0.6762160000000  0.3241880000000  0.4642120000000 1.0
C      1  0.6757930000000  0.6800060000000  0.5383090000000 1.0
C      1  0.4573580000000  0.6694870000000  0.3261720000000 1.0
C      1  0.4589340000000  0.3313220000000  0.6759930000000 1.0
END
