TITL C-986979-5873-316 -0.004930772417606 3375 -356.258419406508 0 0 60 (C1) n - 1
REM
REM in /home/bkarasulu/work/CARBON/AIRSS/Generating-Clusters/REBO/Higher-Symm/Only-C60
REM
REM
REM
REM
REM
REM ./C.cell (a2850807a9bf4ad07a5b6933b78d9264)
REM AIRSS Version 0.9.1 bugfix July 2018 build 013d7b7c2542+ Fri, 06 Jul 2018 19:26:36 +0100
REM compiler GCC version 9.2.1 20190827 (Red Hat 9.2.1-1)
REM options -cpp -mtune=generic -march=x86-64 -g -O0 -fpre-include=/usr/include/finclude/math-vector-fortran.h
REM seed -1202325497 -329555053 -214985702 -1334642091 116258160 736309224 90621354 63163408 1389832746 -336032096 854095925 1027657384 1673580793 -328587592 -1221069175 196601247 56554872 850099931 366546639 2052377067 -1649118230 712221381 2065910016 1335404977 948667761 -1514210552 -225561169 -134777029 -275042576 -1912294155 -1896521382 2074517384 -129487816
REM
CELL 1.54180   15.00000   15.00000   15.00000   90.00000   90.00000   90.00000
LATT -1
SFAC C  
C      1  0.6172700000000  0.2985790000000  0.4825040000000 1.0
C      1  0.6150860000000  0.4224210000000  0.6853820000000 1.0
C      1  0.6154910000000  0.6534540000000  0.6309280000000 1.0
C      1  0.6171620000000  0.6731930000000  0.3941650000000 1.0
C      1  0.6179310000000  0.4538650000000  0.3020920000000 1.0
C      1  0.5052620000000  0.5565530000000  0.7034720000000 1.0
C      1  0.5063530000000  0.7103860000000  0.5094950000000 1.0
C      1  0.5064620000000  0.5738480000000  0.3037360000000 1.0
C      1  0.5057600000000  0.3359880000000  0.3693700000000 1.0
C      1  0.5046430000000  0.3245630000000  0.6164690000000 1.0
C      1  0.5982460000000  0.5789270000000  0.6932620000000 1.0
C      1  0.5993400000000  0.7098030000000  0.4845200000000 1.0
C      1  0.5996420000000  0.5510370000000  0.2947300000000 1.0
C      1  0.5991240000000  0.3214980000000  0.3879180000000 1.0
C      1  0.5978630000000  0.3399730000000  0.6340790000000 1.0
C      1  0.4792450000000  0.5017250000000  0.4123010000000 1.0
C      1  0.4770230000000  0.4156040000000  0.4721780000000 1.0
C      1  0.4731100000000  0.4459990000000  0.5720590000000 1.0
C      1  0.4750910000000  0.5498540000000  0.5740880000000 1.0
C      1  0.4784410000000  0.5846550000000  0.4760290000000 1.0
C      1  0.3555420000000  0.3455180000000  0.3266500000000 1.0
C      1  0.3546540000000  0.2867640000000  0.5938420000000 1.0
C      1  0.3547880000000  0.5242520000000  0.7323860000000 1.0
C      1  0.3555670000000  0.7277340000000  0.5488150000000 1.0
C      1  0.3558740000000  0.6169140000000  0.2996050000000 1.0
C      1  0.2889720000000  0.4077150000000  0.5177010000000 1.0
C      1  0.2885270000000  0.4878040000000  0.5930480000000 1.0
C      1  0.2883320000000  0.5841580000000  0.5402730000000 1.0
C      1  0.2886390000000  0.5638200000000  0.4323070000000 1.0
C      1  0.2890160000000  0.4547620000000  0.4182650000000 1.0
C      1  0.7078720000000  0.5426550000000  0.4244240000000 1.0
C      1  0.7087180000000  0.4415970000000  0.4353620000000 1.0
C      1  0.7077790000000  0.4212340000000  0.5347070000000 1.0
C      1  0.7068270000000  0.5090340000000  0.5846330000000 1.0
C      1  0.7070210000000  0.5839470000000  0.5169180000000 1.0
C      1  0.4336970000000  0.6676650000000  0.4328880000000 1.0
C      1  0.4341650000000  0.4874270000000  0.3200580000000 1.0
C      1  0.4337270000000  0.3228580000000  0.4565130000000 1.0
C      1  0.4325630000000  0.4028550000000  0.6569550000000 1.0
C      1  0.4327420000000  0.6174810000000  0.6401880000000 1.0
C      1  0.3302000000000  0.3881490000000  0.6215610000000 1.0
C      1  0.3302790000000  0.5802770000000  0.6437020000000 1.0
C      1  0.3311930000000  0.6605900000000  0.4683540000000 1.0
C      1  0.3317740000000  0.5190550000000  0.3374990000000 1.0
C      1  0.3313870000000  0.3504090000000  0.4316100000000 1.0
C      1  0.4388810000000  0.2835920000000  0.5535380000000 1.0
C      1  0.4387050000000  0.4842180000000  0.7232310000000 1.0
C      1  0.4392880000000  0.7061940000000  0.5842400000000 1.0
C      1  0.4397300000000  0.6434950000000  0.3310980000000 1.0
C      1  0.4396010000000  0.3833220000000  0.3113370000000 1.0
C      1  0.5802430000000  0.5690690000000  0.5616700000000 1.0
C      1  0.5836190000000  0.5812410000000  0.4537940000000 1.0
C      1  0.5849980000000  0.4828210000000  0.4080250000000 1.0
C      1  0.5836860000000  0.4083690000000  0.4875050000000 1.0
C      1  0.5794420000000  0.4617680000000  0.5834650000000 1.0
C      1  0.6644300000000  0.3347070000000  0.5626200000000 1.0
C      1  0.6634200000000  0.5086540000000  0.6748770000000 1.0
C      1  0.6645260000000  0.6702370000000  0.5456700000000 1.0
C      1  0.6655700000000  0.5972010000000  0.3508110000000 1.0
C      1  0.6654630000000  0.3885140000000  0.3610750000000 1.0
END
