TITL C-986979-5873-103 -2.61680978836257e-06 3375 -340.439279623677 0 0 60 (C1) n - 1
REM
REM in /home/bkarasulu/work/CARBON/AIRSS/Generating-Clusters/REBO/Higher-Symm/Only-C60
REM
REM
REM
REM
REM
REM ./C.cell (a2850807a9bf4ad07a5b6933b78d9264)
REM AIRSS Version 0.9.1 bugfix July 2018 build 013d7b7c2542+ Fri, 06 Jul 2018 19:26:36 +0100
REM compiler GCC version 9.2.1 20190827 (Red Hat 9.2.1-1)
REM options -cpp -mtune=generic -march=x86-64 -g -O0 -fpre-include=/usr/include/finclude/math-vector-fortran.h
REM seed -467550632 -1614365207 -1679613095 2099974002 -1490882247 -2081355916 2130033728 -692035997 908103997 -2040100270 -1751885635 1008035546 -1826519981 -757452108 -1879561741 276969745 977652949 -2071995773 372226459 1950778407 -728375609 1884965930 115295110 676981918 1189030269 -1931519166 -1612678850 -1580544875 -72378480 -609747167 -1123648751 1547753636 -256051509
REM
CELL 1.54180   15.00000   15.00000   15.00000   90.00000   90.00000   90.00000
LATT -1
SFAC C  
C      1  0.5365960000000  0.2777320000000  0.4846900000000 1.0
C      1  0.3007220000000  0.4079280000000  0.5077690000000 1.0
C      1  0.3458890000000  0.6604830000000  0.5187370000000 1.0
C      1  0.5980320000000  0.7182810000000  0.5248420000000 1.0
C      1  0.7129910000000  0.4864610000000  0.4883760000000 1.0
C      1  0.4843770000000  0.7070720000000  0.6342700000000 1.0
C      1  0.7159930000000  0.5979050000000  0.6191770000000 1.0
C      1  0.6399430000000  0.3414540000000  0.6363610000000 1.0
C      1  0.3727960000000  0.3150400000000  0.6185330000000 1.0
C      1  0.2851730000000  0.5603200000000  0.6253160000000 1.0
C      1  0.5890100000000  0.3646610000000  0.3056150000000 1.0
C      1  0.4201530000000  0.3749070000000  0.2809120000000 1.0
C      1  0.3572590000000  0.5383040000000  0.2675270000000 1.0
C      1  0.4951460000000  0.6422580000000  0.2766320000000 1.0
C      1  0.6357010000000  0.5357510000000  0.3086100000000 1.0
C      1  0.3854770000000  0.4522450000000  0.4153380000000 1.0
C      1  0.3974220000000  0.5902280000000  0.4184390000000 1.0
C      1  0.5404040000000  0.6117230000000  0.4257780000000 1.0
C      1  0.5910040000000  0.4687400000000  0.4404460000000 1.0
C      1  0.5032770000000  0.3994260000000  0.4461290000000 1.0
C      1  0.6335310000000  0.6441060000000  0.4662830000000 1.0
C      1  0.6703260000000  0.3914940000000  0.4648980000000 1.0
C      1  0.4358030000000  0.3093330000000  0.4526850000000 1.0
C      1  0.2989620000000  0.5032980000000  0.4554650000000 1.0
C      1  0.4310340000000  0.6871960000000  0.4637670000000 1.0
C      1  0.5452380000000  0.2920200000000  0.5968850000000 1.0
C      1  0.3139470000000  0.3983430000000  0.6114710000000 1.0
C      1  0.3477990000000  0.6413840000000  0.6214010000000 1.0
C      1  0.5859480000000  0.7042370000000  0.6266300000000 1.0
C      1  0.7099560000000  0.4960070000000  0.6009720000000 1.0
C      1  0.6559650000000  0.5481800000000  0.4099410000000 1.0
C      1  0.5897370000000  0.3407390000000  0.4052050000000 1.0
C      1  0.3982780000000  0.3667140000000  0.3719660000000 1.0
C      1  0.3246080000000  0.5535050000000  0.3563100000000 1.0
C      1  0.4863010000000  0.6735440000000  0.3657380000000 1.0
C      1  0.4311180000000  0.6284670000000  0.6832550000000 1.0
C      1  0.6411910000000  0.6314690000000  0.6772780000000 1.0
C      1  0.6493870000000  0.4469720000000  0.6689390000000 1.0
C      1  0.4670250000000  0.3263380000000  0.6596740000000 1.0
C      1  0.3291110000000  0.4829100000000  0.6695260000000 1.0
C      1  0.4950520000000  0.7244290000000  0.5325280000000 1.0
C      1  0.7145230000000  0.5962030000000  0.5170250000000 1.0
C      1  0.6332720000000  0.3189500000000  0.5288860000000 1.0
C      1  0.3593380000000  0.3188380000000  0.5168410000000 1.0
C      1  0.2869770000000  0.5763630000000  0.5235150000000 1.0
C      1  0.4169770000000  0.6060850000000  0.2359960000000 1.0
C      1  0.5793140000000  0.5977950000000  0.2639480000000 1.0
C      1  0.6343680000000  0.4445600000000  0.2827300000000 1.0
C      1  0.5081260000000  0.3461890000000  0.2593420000000 1.0
C      1  0.3758500000000  0.4486390000000  0.2398050000000 1.0
C      1  0.5531060000000  0.3845070000000  0.6918200000000 1.0
C      1  0.4137110000000  0.4129150000000  0.6986700000000 1.0
C      1  0.4236080000000  0.5248730000000  0.7164140000000 1.0
C      1  0.5349910000000  0.6158710000000  0.7155380000000 1.0
C      1  0.6144180000000  0.5361090000000  0.7299600000000 1.0
C      1  0.4987660000000  0.5177290000000  0.6076190000000 1.0
C      1  0.4785560000000  0.5241210000000  0.5309580000000 1.0
C      1  0.4971500000000  0.5049000000000  0.3128800000000 1.0
C      1  0.4827350000000  0.5133040000000  0.4190220000000 1.0
C      1  0.5262390000000  0.4834900000000  0.7032980000000 1.0
END
