TITL C-986978-6805-970 5.71661604130046e-07 3375 -353.724955339273 0 0 60 (C1) n - 1
REM
REM in /home/bkarasulu/work/CARBON/AIRSS/Generating-Clusters/REBO/Higher-Symm/Only-C60
REM
REM
REM
REM
REM
REM ./C.cell (a2850807a9bf4ad07a5b6933b78d9264)
REM AIRSS Version 0.9.1 bugfix July 2018 build 013d7b7c2542+ Fri, 06 Jul 2018 19:26:36 +0100
REM compiler GCC version 9.2.1 20190827 (Red Hat 9.2.1-1)
REM options -cpp -mtune=generic -march=x86-64 -g -O0 -fpre-include=/usr/include/finclude/math-vector-fortran.h
REM seed 1452771027 1943352141 1161743536 -1255959497 -1237791924 -232917326 -311027842 1637701409 -666987645 -1981148261 -715956584 2090652991 -1111573587 696982058 -72669629 -690995979 -233089609 -1734255636 820250071 1618913129 -569920876 -1144086832 958130962 1624835954 -854928182 540567363 -992488145 -919864358 -693570892 1768043544 -1378365069 -401630295 1146086633
REM
CELL 1.54180   15.00000   15.00000   15.00000   90.00000   90.00000   90.00000
LATT -1
SFAC C  
C      1  0.6038460000000  0.6178660000000  0.3251710000000 1.0
C      1  0.6327690000000  0.4171640000000  0.3469010000000 1.0
C      1  0.4878130000000  0.3337210000000  0.3176600000000 1.0
C      1  0.3434490000000  0.4671820000000  0.3297080000000 1.0
C      1  0.4395660000000  0.6455710000000  0.3538520000000 1.0
C      1  0.6253260000000  0.5303650000000  0.3425560000000 1.0
C      1  0.5644900000000  0.3680820000000  0.2812130000000 1.0
C      1  0.4137470000000  0.3879370000000  0.3326420000000 1.0
C      1  0.3757390000000  0.5520340000000  0.3467610000000 1.0
C      1  0.5232160000000  0.6402560000000  0.2878510000000 1.0
C      1  0.6413070000000  0.4546360000000  0.5968810000000 1.0
C      1  0.5006150000000  0.3529030000000  0.5833420000000 1.0
C      1  0.3623850000000  0.4548710000000  0.5924050000000 1.0
C      1  0.4127440000000  0.6119250000000  0.6042750000000 1.0
C      1  0.5856620000000  0.6106150000000  0.5898070000000 1.0
C      1  0.2743720000000  0.3210020000000  0.4199520000000 1.0
C      1  0.2628210000000  0.6652100000000  0.4305110000000 1.0
C      1  0.5712420000000  0.7679140000000  0.4351800000000 1.0
C      1  0.7881220000000  0.5070490000000  0.4171590000000 1.0
C      1  0.6055450000000  0.2386640000000  0.4275990000000 1.0
C      1  0.5246940000000  0.6432400000000  0.4286190000000 1.0
C      1  0.6569370000000  0.5088630000000  0.4380270000000 1.0
C      1  0.5651540000000  0.3655440000000  0.4207660000000 1.0
C      1  0.3825820000000  0.3970120000000  0.4330690000000 1.0
C      1  0.3668730000000  0.5838150000000  0.4443520000000 1.0
C      1  0.4329170000000  0.2559560000000  0.4660790000000 1.0
C      1  0.2442660000000  0.4957030000000  0.4795010000000 1.0
C      1  0.4136570000000  0.7433330000000  0.5010570000000 1.0
C      1  0.6975650000000  0.6492110000000  0.4714520000000 1.0
C      1  0.7186370000000  0.3527010000000  0.4897630000000 1.0
C      1  0.6804660000000  0.2708540000000  0.4651060000000 1.0
C      1  0.3437160000000  0.2660070000000  0.4389740000000 1.0
C      1  0.2285880000000  0.5842180000000  0.4524210000000 1.0
C      1  0.4931270000000  0.7859670000000  0.4758000000000 1.0
C      1  0.7646510000000  0.5913200000000  0.4408900000000 1.0
C      1  0.5076890000000  0.2716840000000  0.4005130000000 1.0
C      1  0.2763880000000  0.4293590000000  0.4114040000000 1.0
C      1  0.3679020000000  0.6933050000000  0.4280180000000 1.0
C      1  0.6276640000000  0.6815310000000  0.4065240000000 1.0
C      1  0.7216640000000  0.4212210000000  0.4174940000000 1.0
C      1  0.4299200000000  0.4396910000000  0.5106070000000 1.0
C      1  0.4230990000000  0.5484110000000  0.5197980000000 1.0
C      1  0.5213500000000  0.5826520000000  0.5102790000000 1.0
C      1  0.5926410000000  0.5007880000000  0.5147200000000 1.0
C      1  0.5341280000000  0.4151520000000  0.5040360000000 1.0
C      1  0.4101240000000  0.4902420000000  0.7881650000000 1.0
C      1  0.4330790000000  0.5907730000000  0.7985250000000 1.0
C      1  0.5354420000000  0.5970160000000  0.7850390000000 1.0
C      1  0.5771360000000  0.5017220000000  0.7878320000000 1.0
C      1  0.4986210000000  0.4373980000000  0.7752290000000 1.0
C      1  0.2786390000000  0.4780550000000  0.5662130000000 1.0
C      1  0.4049110000000  0.7002800000000  0.5847850000000 1.0
C      1  0.6651940000000  0.6434740000000  0.5605120000000 1.0
C      1  0.7016830000000  0.3907020000000  0.5746420000000 1.0
C      1  0.4571920000000  0.2785270000000  0.5548670000000 1.0
C      1  0.4487960000000  0.5683870000000  0.6881180000000 1.0
C      1  0.5566540000000  0.5705930000000  0.6765950000000 1.0
C      1  0.5876100000000  0.4659480000000  0.6805560000000 1.0
C      1  0.5007320000000  0.4000210000000  0.6705960000000 1.0
C      1  0.4131320000000  0.4643590000000  0.6776310000000 1.0
END
