TITL C-986974-580-134 -1.85244840239475e-05 3375 -346.195433719286 0 0 60 (C1) n - 1
REM
REM in /home/bkarasulu/work/CARBON/AIRSS/Generating-Clusters/REBO/Higher-Symm/Only-C60
REM
REM
REM
REM
REM
REM ./C.cell (a2850807a9bf4ad07a5b6933b78d9264)
REM AIRSS Version 0.9.1 bugfix July 2018 build 013d7b7c2542+ Fri, 06 Jul 2018 19:26:36 +0100
REM compiler GCC version 9.2.1 20190827 (Red Hat 9.2.1-1)
REM options -cpp -mtune=generic -march=x86-64 -g -O0 -fpre-include=/usr/include/finclude/math-vector-fortran.h
REM seed 1142713524 -763302499 1698004582 1763193270 -136412785 -426283234 816997629 -56465738 -1012006575 -1294802167 281562690 -286420787 1869436894 2103356955 1068568409 1076696427 -155630691 55349127 1614845244 -563105857 1823323005 -1998946044 -1229844110 -1027281188 -1025417159 1025603350 919152055 -1063051644 -1880112284 -133560318 428939028 -1373129212 995929893
REM
CELL 1.54180   15.00000   15.00000   15.00000   90.00000   90.00000   90.00000
LATT -1
SFAC C  
C      1  0.4814940000000  0.7304770000000  0.4928570000000 1.0
C      1  0.4799910000000  0.6922980000000  0.3872360000000 1.0
C      1  0.4170480000000  0.5174350000000  0.7067380000000 1.0
C      1  0.5606090000000  0.3954480000000  0.5173120000000 1.0
C      1  0.4389780000000  0.3937070000000  0.6431850000000 1.0
C      1  0.6107790000000  0.2811590000000  0.4709120000000 1.0
C      1  0.6875520000000  0.5377990000000  0.5741370000000 1.0
C      1  0.3524810000000  0.4672490000000  0.6467400000000 1.0
C      1  0.5914250000000  0.6773110000000  0.6245920000000 1.0
C      1  0.4645370000000  0.4824200000000  0.5774020000000 1.0
C      1  0.3263610000000  0.5563150000000  0.3605770000000 1.0
C      1  0.6767790000000  0.6133660000000  0.3899870000000 1.0
C      1  0.4561880000000  0.2886110000000  0.3974800000000 1.0
C      1  0.3092350000000  0.6212760000000  0.5686050000000 1.0
C      1  0.4278170000000  0.5424440000000  0.3339040000000 1.0
C      1  0.4993350000000  0.4636990000000  0.7382000000000 1.0
C      1  0.2877850000000  0.5826200000000  0.4639630000000 1.0
C      1  0.6365520000000  0.6527120000000  0.3168350000000 1.0
C      1  0.4564180000000  0.6046730000000  0.4580160000000 1.0
C      1  0.5419020000000  0.3421210000000  0.4164380000000 1.0
C      1  0.6217850000000  0.6418770000000  0.4722800000000 1.0
C      1  0.3922830000000  0.6597480000000  0.6252170000000 1.0
C      1  0.3879080000000  0.3207490000000  0.3390870000000 1.0
C      1  0.5405930000000  0.6549430000000  0.3115800000000 1.0
C      1  0.5631900000000  0.7113990000000  0.5324830000000 1.0
C      1  0.3174920000000  0.4746600000000  0.4651970000000 1.0
C      1  0.5938700000000  0.2714920000000  0.5531660000000 1.0
C      1  0.6104370000000  0.4712960000000  0.5888750000000 1.0
C      1  0.4637500000000  0.2442890000000  0.5607140000000 1.0
C      1  0.7240940000000  0.5156070000000  0.4097480000000 1.0
C      1  0.5460290000000  0.4167480000000  0.3500300000000 1.0
C      1  0.3765050000000  0.6502940000000  0.3925560000000 1.0
C      1  0.5758640000000  0.6311620000000  0.7788520000000 1.0
C      1  0.3034510000000  0.3574240000000  0.3996860000000 1.0
C      1  0.6989860000000  0.4147640000000  0.4599010000000 1.0
C      1  0.4414240000000  0.6064530000000  0.6813160000000 1.0
C      1  0.5173910000000  0.3670400000000  0.7217050000000 1.0
C      1  0.3681000000000  0.3520570000000  0.4744840000000 1.0
C      1  0.4822160000000  0.4858650000000  0.4040720000000 1.0
C      1  0.6054450000000  0.4748480000000  0.4532960000000 1.0
C      1  0.5106030000000  0.3328100000000  0.5936630000000 1.0
C      1  0.5683170000000  0.4990630000000  0.2752610000000 1.0
C      1  0.5048450000000  0.5711220000000  0.2809750000000 1.0
C      1  0.6033300000000  0.3391890000000  0.6890200000000 1.0
C      1  0.4131890000000  0.2604370000000  0.4839580000000 1.0
C      1  0.5541690000000  0.5647910000000  0.4459270000000 1.0
C      1  0.4249060000000  0.4455990000000  0.4800670000000 1.0
C      1  0.7035390000000  0.3601610000000  0.5337690000000 1.0
C      1  0.6573510000000  0.6258860000000  0.5697210000000 1.0
C      1  0.4253170000000  0.5656420000000  0.5372040000000 1.0
C      1  0.6495180000000  0.3757940000000  0.6142730000000 1.0
C      1  0.7554350000000  0.5206360000000  0.5148880000000 1.0
C      1  0.4010950000000  0.7138180000000  0.5408310000000 1.0
C      1  0.6480440000000  0.4635420000000  0.3475870000000 1.0
C      1  0.5454110000000  0.6208000000000  0.6911710000000 1.0
C      1  0.2869550000000  0.4580830000000  0.3566450000000 1.0
C      1  0.5386930000000  0.5182970000000  0.6529130000000 1.0
C      1  0.3095030000000  0.5103100000000  0.5724890000000 1.0
C      1  0.3476390000000  0.3979430000000  0.2827930000000 1.0
C      1  0.3180610000000  0.6902230000000  0.4774850000000 1.0
END
