TITL C-986976-6631-952 9.06166465809191e-06 3375 -356.50052744171 0 0 60 (C1) n - 1
REM
REM in /home/bkarasulu/work/CARBON/AIRSS/Generating-Clusters/REBO/Higher-Symm/Only-C60
REM
REM
REM
REM
REM
REM ./C.cell (a2850807a9bf4ad07a5b6933b78d9264)
REM AIRSS Version 0.9.1 bugfix July 2018 build 013d7b7c2542+ Fri, 06 Jul 2018 19:26:36 +0100
REM compiler GCC version 9.2.1 20190827 (Red Hat 9.2.1-1)
REM options -cpp -mtune=generic -march=x86-64 -g -O0 -fpre-include=/usr/include/finclude/math-vector-fortran.h
REM seed 1712774266 1806709795 -65760572 -248478036 1412250653 306104925 1025059862 1762232947 -1389068072 -1044146708 525157376 775760102 427089219 1742809827 1615108980 -1641101105 372402523 1751368023 508936467 -1079306015 477696369 -608823556 1689177282 -1392083362 1252803896 741580340 -2042270794 -2115699543 744993392 439265670 845467281 578300382 -1026989750
REM
CELL 1.54180   15.00000   15.00000   15.00000   90.00000   90.00000   90.00000
LATT -1
SFAC C  
C      1  0.3670190000000  0.6525170000000  0.6305380000000 1.0
C      1  0.6347450000000  0.6538820000000  0.3670360000000 1.0
C      1  0.2988910000000  0.5231570000000  0.7040880000000 1.0
C      1  0.7040200000000  0.5245410000000  0.2917120000000 1.0
C      1  0.5985870000000  0.3316370000000  0.6127220000000 1.0
C      1  0.3985070000000  0.3292110000000  0.3842520000000 1.0
C      1  0.6380760000000  0.4429940000000  0.2753020000000 1.0
C      1  0.3664610000000  0.4436700000000  0.7218200000000 1.0
C      1  0.4463610000000  0.2529480000000  0.4147110000000 1.0
C      1  0.5566840000000  0.2516360000000  0.5821640000000 1.0
C      1  0.3977370000000  0.7458080000000  0.4379700000000 1.0
C      1  0.6028140000000  0.7451830000000  0.5611360000000 1.0
C      1  0.6079350000000  0.6094180000000  0.5490670000000 1.0
C      1  0.3954500000000  0.6131410000000  0.4509530000000 1.0
C      1  0.3091040000000  0.5203730000000  0.5311290000000 1.0
C      1  0.6948430000000  0.5232610000000  0.4627050000000 1.0
C      1  0.6809580000000  0.7175370000000  0.5231900000000 1.0
C      1  0.3191450000000  0.7190630000000  0.4760480000000 1.0
C      1  0.5840770000000  0.5350280000000  0.4742940000000 1.0
C      1  0.4195730000000  0.5388410000000  0.5259670000000 1.0
C      1  0.4627750000000  0.6036140000000  0.3015500000000 1.0
C      1  0.5400230000000  0.6046490000000  0.6985850000000 1.0
C      1  0.6328980000000  0.3719790000000  0.5202770000000 1.0
C      1  0.3481160000000  0.3629110000000  0.4707260000000 1.0
C      1  0.4990570000000  0.5739740000000  0.4255680000000 1.0
C      1  0.5049570000000  0.5691290000000  0.5757810000000 1.0
C      1  0.5332710000000  0.6595330000000  0.3687350000000 1.0
C      1  0.4689260000000  0.6577810000000  0.6287260000000 1.0
C      1  0.4850300000000  0.7126530000000  0.4535020000000 1.0
C      1  0.5155850000000  0.7123760000000  0.5453400000000 1.0
C      1  0.5001190000000  0.5402700000000  0.2430840000000 1.0
C      1  0.5023430000000  0.5424390000000  0.7581140000000 1.0
C      1  0.6809480000000  0.4634440000000  0.5486750000000 1.0
C      1  0.3124190000000  0.4608800000000  0.4457170000000 1.0
C      1  0.3227100000000  0.6143080000000  0.7005200000000 1.0
C      1  0.6790900000000  0.6154210000000  0.2971530000000 1.0
C      1  0.3259340000000  0.6322310000000  0.5388270000000 1.0
C      1  0.6737230000000  0.6321630000000  0.4590310000000 1.0
C      1  0.4088200000000  0.2309020000000  0.5008330000000 1.0
C      1  0.5949960000000  0.2313700000000  0.4955790000000 1.0
C      1  0.4624490000000  0.2499150000000  0.5879670000000 1.0
C      1  0.5405990000000  0.2538090000000  0.4089890000000 1.0
C      1  0.4227100000000  0.4294780000000  0.5169360000000 1.0
C      1  0.5544990000000  0.4423350000000  0.5105940000000 1.0
C      1  0.7154030000000  0.4709000000000  0.3789720000000 1.0
C      1  0.2901860000000  0.4689210000000  0.6166000000000 1.0
C      1  0.6320690000000  0.3183450000000  0.4298300000000 1.0
C      1  0.3724320000000  0.3168560000000  0.5683520000000 1.0
C      1  0.3575330000000  0.4865250000000  0.3623970000000 1.0
C      1  0.6455310000000  0.4854100000000  0.6376040000000 1.0
C      1  0.4461890000000  0.4712770000000  0.7634410000000 1.0
C      1  0.5564030000000  0.4693150000000  0.2365380000000 1.0
C      1  0.5754860000000  0.4169680000000  0.6538250000000 1.0
C      1  0.4280480000000  0.4143730000000  0.3481320000000 1.0
C      1  0.4822190000000  0.4647060000000  0.4261660000000 1.0
C      1  0.4932830000000  0.4586930000000  0.6015950000000 1.0
C      1  0.6163900000000  0.5767840000000  0.6480570000000 1.0
C      1  0.3872150000000  0.5768190000000  0.3536080000000 1.0
C      1  0.6639640000000  0.3810720000000  0.3589970000000 1.0
C      1  0.3446630000000  0.3816280000000  0.6382690000000 1.0
END
