TITL C-986973-6940-509 5.59870223754193e-06 3375 -353.172024896809 0 0 60 (C1) n - 1
REM
REM in /home/bkarasulu/work/CARBON/AIRSS/Generating-Clusters/REBO/Higher-Symm/Only-C60
REM
REM
REM
REM
REM
REM ./C.cell (a2850807a9bf4ad07a5b6933b78d9264)
REM AIRSS Version 0.9.1 bugfix July 2018 build 013d7b7c2542+ Fri, 06 Jul 2018 19:26:36 +0100
REM compiler GCC version 9.2.1 20190827 (Red Hat 9.2.1-1)
REM options -cpp -mtune=generic -march=x86-64 -g -O0 -fpre-include=/usr/include/finclude/math-vector-fortran.h
REM seed -734430759 -1649440749 1040952304 1602448012 1237868841 1362369216 183004868 -860333692 1814617496 -1064810771 -282410951 998525061 -756584402 1042670121 244741374 864952071 1285150845 2061513869 -1466337920 1253857941 -1252552285 308001663 -240365724 -844733390 -1155240236 -122078444 -346320346 -2020925301 -1498806272 -1340318918 1828970422 -1234293620 1769942460
REM
CELL 1.54180   15.00000   15.00000   15.00000   90.00000   90.00000   90.00000
LATT -1
SFAC C  
C      1  0.5614560000000  0.5415670000000  0.6870110000000 1.0
C      1  0.5420430000000  0.6691880000000  0.5169800000000 1.0
C      1  0.5400660000000  0.5497940000000  0.3478190000000 1.0
C      1  0.5444950000000  0.3602840000000  0.4072210000000 1.0
C      1  0.5608960000000  0.3457400000000  0.6119140000000 1.0
C      1  0.4621380000000  0.5572580000000  0.6512380000000 1.0
C      1  0.4421820000000  0.6835720000000  0.4913020000000 1.0
C      1  0.4464430000000  0.5993970000000  0.3255830000000 1.0
C      1  0.4458210000000  0.3639100000000  0.3737840000000 1.0
C      1  0.4602700000000  0.3597790000000  0.5801970000000 1.0
C      1  0.5568300000000  0.2750910000000  0.4692530000000 1.0
C      1  0.5681690000000  0.3939170000000  0.7083020000000 1.0
C      1  0.5555310000000  0.6504660000000  0.6630350000000 1.0
C      1  0.5475300000000  0.6961070000000  0.4127700000000 1.0
C      1  0.5432800000000  0.4604230000000  0.2921860000000 1.0
C      1  0.4467490000000  0.2826790000000  0.4511000000000 1.0
C      1  0.4616510000000  0.3970280000000  0.6833280000000 1.0
C      1  0.4468720000000  0.6625810000000  0.6478060000000 1.0
C      1  0.4389780000000  0.6924050000000  0.3793620000000 1.0
C      1  0.4358430000000  0.4905500000000  0.2921630000000 1.0
C      1  0.3705950000000  0.4361580000000  0.6416080000000 1.0
C      1  0.3582000000000  0.6245000000000  0.6024850000000 1.0
C      1  0.3427170000000  0.6426440000000  0.4136640000000 1.0
C      1  0.3465220000000  0.4722990000000  0.3325340000000 1.0
C      1  0.3613170000000  0.3413520000000  0.4739540000000 1.0
C      1  0.6543450000000  0.4295030000000  0.6561380000000 1.0
C      1  0.6456370000000  0.6172200000000  0.6167010000000 1.0
C      1  0.6340490000000  0.6376400000000  0.4260780000000 1.0
C      1  0.6365100000000  0.4587090000000  0.3468660000000 1.0
C      1  0.6458810000000  0.3329460000000  0.4890220000000 1.0
C      1  0.3105830000000  0.6435770000000  0.5116100000000 1.0
C      1  0.3031960000000  0.5604020000000  0.3686670000000 1.0
C      1  0.3145940000000  0.3973020000000  0.3982630000000 1.0
C      1  0.3283350000000  0.3786620000000  0.5644830000000 1.0
C      1  0.3264350000000  0.5299320000000  0.6343160000000 1.0
C      1  0.6792010000000  0.6376890000000  0.5206910000000 1.0
C      1  0.6727480000000  0.5541040000000  0.3758280000000 1.0
C      1  0.6813700000000  0.3904120000000  0.4094390000000 1.0
C      1  0.6916290000000  0.3716780000000  0.5758330000000 1.0
C      1  0.6911650000000  0.5261900000000  0.6453030000000 1.0
C      1  0.2424440000000  0.4248790000000  0.5426470000000 1.0
C      1  0.2411340000000  0.5145550000000  0.5840680000000 1.0
C      1  0.2312670000000  0.5814900000000  0.5119740000000 1.0
C      1  0.2270130000000  0.5324310000000  0.4259280000000 1.0
C      1  0.2338190000000  0.4357230000000  0.4447090000000 1.0
C      1  0.7692960000000  0.4256820000000  0.5422580000000 1.0
C      1  0.7688110000000  0.5161830000000  0.5827690000000 1.0
C      1  0.7617620000000  0.5822620000000  0.5095660000000 1.0
C      1  0.7581630000000  0.5329340000000  0.4241510000000 1.0
C      1  0.7629580000000  0.4362830000000  0.4441850000000 1.0
C      1  0.4262130000000  0.5391340000000  0.4153750000000 1.0
C      1  0.4341300000000  0.4470090000000  0.4294100000000 1.0
C      1  0.4423950000000  0.4342930000000  0.5239670000000 1.0
C      1  0.4404570000000  0.5206870000000  0.5661580000000 1.0
C      1  0.4289990000000  0.5847000000000  0.4970430000000 1.0
C      1  0.5576940000000  0.5292960000000  0.4381240000000 1.0
C      1  0.5662600000000  0.4366880000000  0.4577860000000 1.0
C      1  0.5726000000000  0.4252430000000  0.5509450000000 1.0
C      1  0.5709730000000  0.5101220000000  0.5907660000000 1.0
C      1  0.5613410000000  0.5757500000000  0.5223370000000 1.0
END
