TITL C-986978-6805-448 0.0353249468475645 3375 -342.26091840484 0 0 60 (C1) n - 1
REM
REM in /home/bkarasulu/work/CARBON/AIRSS/Generating-Clusters/REBO/Higher-Symm/Only-C60
REM
REM
REM
REM
REM
REM ./C.cell (a2850807a9bf4ad07a5b6933b78d9264)
REM AIRSS Version 0.9.1 bugfix July 2018 build 013d7b7c2542+ Fri, 06 Jul 2018 19:26:36 +0100
REM compiler GCC version 9.2.1 20190827 (Red Hat 9.2.1-1)
REM options -cpp -mtune=generic -march=x86-64 -g -O0 -fpre-include=/usr/include/finclude/math-vector-fortran.h
REM seed -219696266 -877740477 -1724383185 448480237 -1735410482 449953489 -1195594558 -1760851439 -1123321701 -330627264 -168465677 102708257 -755622099 1210057304 -1202534963 1950655018 -1074669928 -1370362696 -1093020950 -608882694 -994760910 1255553789 -836546987 -23760620 -602557047 838021875 -1740191818 2071518409 1962178431 -1372839843 -589539491 2036102908 -1027180788
REM
CELL 1.54180   15.00000   15.00000   15.00000   90.00000   90.00000   90.00000
LATT -1
SFAC C  
C      1  0.3906410000000  0.4765500000000  0.5349050000000 1.0
C      1  0.5549740000000  0.4527670000000  0.5312810000000 1.0
C      1  0.5218230000000  0.5972790000000  0.5269840000000 1.0
C      1  0.6370610000000  0.3959190000000  0.3638310000000 1.0
C      1  0.5166450000000  0.6780710000000  0.3616390000000 1.0
C      1  0.3368220000000  0.4365500000000  0.3593760000000 1.0
C      1  0.4956040000000  0.3365480000000  0.5044290000000 1.0
C      1  0.6589910000000  0.5858860000000  0.5071630000000 1.0
C      1  0.3445230000000  0.5981490000000  0.5096560000000 1.0
C      1  0.6624440000000  0.3648840000000  0.4702320000000 1.0
C      1  0.5235590000000  0.7165410000000  0.4683220000000 1.0
C      1  0.2908200000000  0.4154480000000  0.4609640000000 1.0
C      1  0.4870150000000  0.4007400000000  0.4253060000000 1.0
C      1  0.6143610000000  0.5532000000000  0.4222450000000 1.0
C      1  0.4115300000000  0.5674640000000  0.4337220000000 1.0
C      1  0.3944780000000  0.4888060000000  0.7235320000000 1.0
C      1  0.5577510000000  0.3923320000000  0.7338780000000 1.0
C      1  0.5638570000000  0.5997920000000  0.7342620000000 1.0
C      1  0.2837460000000  0.5040410000000  0.5288610000000 1.0
C      1  0.5961280000000  0.3261520000000  0.5297600000000 1.0
C      1  0.5997220000000  0.6750320000000  0.5415270000000 1.0
C      1  0.4090360000000  0.3239050000000  0.6445870000000 1.0
C      1  0.7033600000000  0.5095210000000  0.6505760000000 1.0
C      1  0.3923780000000  0.6653520000000  0.6536900000000 1.0
C      1  0.4885730000000  0.3441670000000  0.2699500000000 1.0
C      1  0.6242350000000  0.5506080000000  0.2356830000000 1.0
C      1  0.3970370000000  0.5863570000000  0.2378470000000 1.0
C      1  0.6224670000000  0.5356400000000  0.1485620000000 1.0
C      1  0.4193450000000  0.5879540000000  0.1510380000000 1.0
C      1  0.4629320000000  0.3276790000000  0.1846540000000 1.0
C      1  0.4315850000000  0.3784390000000  0.3358440000000 1.0
C      1  0.6459210000000  0.5039810000000  0.3296470000000 1.0
C      1  0.4189340000000  0.6249500000000  0.3396460000000 1.0
C      1  0.3502070000000  0.3986110000000  0.6735880000000 1.0
C      1  0.6572120000000  0.4106710000000  0.6815620000000 1.0
C      1  0.4989550000000  0.6830330000000  0.6900000000000 1.0
C      1  0.6026430000000  0.6773180000000  0.6437640000000 1.0
C      1  0.3004640000000  0.4879200000000  0.6333290000000 1.0
C      1  0.5999800000000  0.3298320000000  0.6254950000000 1.0
C      1  0.4424490000000  0.7329500000000  0.5096450000000 1.0
C      1  0.3245680000000  0.3399220000000  0.5019940000000 1.0
C      1  0.7228840000000  0.4268280000000  0.5110500000000 1.0
C      1  0.4016830000000  0.3098260000000  0.5486150000000 1.0
C      1  0.7189470000000  0.5103400000000  0.5562060000000 1.0
C      1  0.3789250000000  0.6868770000000  0.5572900000000 1.0
C      1  0.3402360000000  0.5745310000000  0.6835360000000 1.0
C      1  0.5033110000000  0.3123030000000  0.6750140000000 1.0
C      1  0.6607470000000  0.5890380000000  0.6847500000000 1.0
C      1  0.5742150000000  0.4885950000000  0.6733220000000 1.0
C      1  0.4724290000000  0.5745720000000  0.6732270000000 1.0
C      1  0.4757100000000  0.4420120000000  0.6759660000000 1.0
C      1  0.4662340000000  0.4226090000000  0.5763560000000 1.0
C      1  0.5915620000000  0.5363940000000  0.5836620000000 1.0
C      1  0.4362490000000  0.5681480000000  0.5735710000000 1.0
C      1  0.5154170000000  0.5912940000000  0.4243950000000 1.0
C      1  0.4096830000000  0.4662300000000  0.4325010000000 1.0
C      1  0.5737600000000  0.4544110000000  0.4291000000000 1.0
C      1  0.5804330000000  0.3394690000000  0.2972310000000 1.0
C      1  0.5903590000000  0.6117770000000  0.3118270000000 1.0
C      1  0.3524430000000  0.5337850000000  0.3194060000000 1.0
END
