TITL C-986979-5873-958 -0.0109413242340943 3375 -323.52611701136 0 0 60 (C1) n - 1
REM
REM in /home/bkarasulu/work/CARBON/AIRSS/Generating-Clusters/REBO/Higher-Symm/Only-C60
REM
REM
REM
REM
REM
REM ./C.cell (a2850807a9bf4ad07a5b6933b78d9264)
REM AIRSS Version 0.9.1 bugfix July 2018 build 013d7b7c2542+ Fri, 06 Jul 2018 19:26:36 +0100
REM compiler GCC version 9.2.1 20190827 (Red Hat 9.2.1-1)
REM options -cpp -mtune=generic -march=x86-64 -g -O0 -fpre-include=/usr/include/finclude/math-vector-fortran.h
REM seed 820948235 -95516480 -897314948 313439665 2027180149 -1341588620 -597823484 459708651 1063372800 -635996621 1947225476 -1523376525 -1341725198 120349981 2122874492 -773443019 -1915314177 2054775181 98528098 -29158124 963793887 1857838554 -1338526903 -1493832491 1420206403 -871677583 -816969442 1534703275 1952424986 -260027653 -94130481 1187474155 1271711192
REM
CELL 1.54180   15.00000   15.00000   15.00000   90.00000   90.00000   90.00000
LATT -1
SFAC C  
C      1  0.7370240000000  0.5417250000000  0.4275440000000 1.0
C      1  0.7369060000000  0.4438320000000  0.4378770000000 1.0
C      1  0.7370180000000  0.4233780000000  0.5341750000000 1.0
C      1  0.7372490000000  0.5086660000000  0.5833880000000 1.0
C      1  0.7372420000000  0.5818050000000  0.5174560000000 1.0
C      1  0.4207220000000  0.3681080000000  0.7231850000000 1.0
C      1  0.4209070000000  0.6714350000000  0.6948080000000 1.0
C      1  0.4199630000000  0.7376690000000  0.3962590000000 1.0
C      1  0.4205200000000  0.4755300000000  0.2419950000000 1.0
C      1  0.4207770000000  0.2471670000000  0.4432710000000 1.0
C      1  0.2903740000000  0.5625440000000  0.7389220000000 1.0
C      1  0.2908320000000  0.7464900000000  0.5146650000000 1.0
C      1  0.2904810000000  0.5896750000000  0.2712130000000 1.0
C      1  0.2905860000000  0.3106260000000  0.3442060000000 1.0
C      1  0.2907030000000  0.2930810000000  0.6322350000000 1.0
C      1  0.6061660000000  0.4417520000000  0.5773110000000 1.0
C      1  0.6049760000000  0.5551840000000  0.5790600000000 1.0
C      1  0.6046600000000  0.5918020000000  0.4717790000000 1.0
C      1  0.6055440000000  0.5011200000000  0.4036320000000 1.0
C      1  0.6063430000000  0.4083900000000  0.4689460000000 1.0
C      1  0.5039970000000  0.4441050000000  0.7358220000000 1.0
C      1  0.5041130000000  0.7068030000000  0.6262490000000 1.0
C      1  0.5037700000000  0.6838910000000  0.3418850000000 1.0
C      1  0.5040600000000  0.4066340000000  0.2759250000000 1.0
C      1  0.5041750000000  0.2581770000000  0.5194210000000 1.0
C      1  0.6739290000000  0.5810980000000  0.3594020000000 1.0
C      1  0.6743780000000  0.3907360000000  0.3790360000000 1.0
C      1  0.6745960000000  0.3510250000000  0.5667020000000 1.0
C      1  0.6744220000000  0.5175080000000  0.6617260000000 1.0
C      1  0.6739290000000  0.6585290000000  0.5334250000000 1.0
C      1  0.3639490000000  0.5951830000000  0.5005430000000 1.0
C      1  0.3649560000000  0.5301980000000  0.4105050000000 1.0
C      1  0.3654230000000  0.4242980000000  0.4442050000000 1.0
C      1  0.3649520000000  0.4237720000000  0.5556360000000 1.0
C      1  0.3634670000000  0.5298540000000  0.5905370000000 1.0
C      1  0.6003850000000  0.3026290000000  0.5099310000000 1.0
C      1  0.6000980000000  0.4487180000000  0.6905480000000 1.0
C      1  0.6000810000000  0.6649020000000  0.6080570000000 1.0
C      1  0.5996190000000  0.6535880000000  0.3764910000000 1.0
C      1  0.6002070000000  0.4296550000000  0.3154450000000 1.0
C      1  0.4725650000000  0.5026220000000  0.4119750000000 1.0
C      1  0.4733960000000  0.4172210000000  0.4697950000000 1.0
C      1  0.4732580000000  0.4457250000000  0.5689840000000 1.0
C      1  0.4715860000000  0.5489530000000  0.5722210000000 1.0
C      1  0.4716410000000  0.5840750000000  0.4752020000000 1.0
C      1  0.4655600000000  0.2845700000000  0.6083720000000 1.0
C      1  0.4652720000000  0.5367950000000  0.7380860000000 1.0
C      1  0.4655870000000  0.7378880000000  0.5389120000000 1.0
C      1  0.4655720000000  0.6101890000000  0.2852400000000 1.0
C      1  0.4655970000000  0.3301070000000  0.3285720000000 1.0
C      1  0.4961720000000  0.5112660000000  0.3168870000000 1.0
C      1  0.4966420000000  0.3292920000000  0.4323320000000 1.0
C      1  0.4963410000000  0.3830180000000  0.6413330000000 1.0
C      1  0.4957010000000  0.5980210000000  0.6541390000000 1.0
C      1  0.4951370000000  0.6774470000000  0.4540950000000 1.0
C      1  0.3687990000000  0.5707510000000  0.6890550000000 1.0
C      1  0.3692790000000  0.7016400000000  0.4912290000000 1.0
C      1  0.3693120000000  0.5539650000000  0.3061520000000 1.0
C      1  0.3695520000000  0.3326170000000  0.3888510000000 1.0
C      1  0.3695300000000  0.3425560000000  0.6251500000000 1.0
END
