TITL C-986976-6631-452 0.000210983572717136 3375 -347.995212337206 0 0 60 (C1) n - 1
REM
REM in /home/bkarasulu/work/CARBON/AIRSS/Generating-Clusters/REBO/Higher-Symm/Only-C60
REM
REM
REM
REM
REM
REM ./C.cell (a2850807a9bf4ad07a5b6933b78d9264)
REM AIRSS Version 0.9.1 bugfix July 2018 build 013d7b7c2542+ Fri, 06 Jul 2018 19:26:36 +0100
REM compiler GCC version 9.2.1 20190827 (Red Hat 9.2.1-1)
REM options -cpp -mtune=generic -march=x86-64 -g -O0 -fpre-include=/usr/include/finclude/math-vector-fortran.h
REM seed 1948969071 777273501 -1076949054 1041140445 1368325087 -1895882467 -1025075119 480146680 1908303644 -1619594174 1268781391 -631113118 144984758 -1623877815 98546722 229475710 -1235316436 1380370939 -816496668 1206187757 -1574261630 -913220663 586147113 -460567149 1377615103 1567875465 -1396826106 -1801314828 -467333164 403320119 -1569704306 -593641402 -282258934
REM
CELL 1.54180   15.00000   15.00000   15.00000   90.00000   90.00000   90.00000
LATT -1
SFAC C  
C      1  0.4363040000000  0.2784230000000  0.4816940000000 1.0
C      1  0.3725120000000  0.6632670000000  0.5373720000000 1.0
C      1  0.5914840000000  0.7565180000000  0.4380420000000 1.0
C      1  0.5373790000000  0.2378060000000  0.5165360000000 1.0
C      1  0.4055800000000  0.6215620000000  0.3077080000000 1.0
C      1  0.4870240000000  0.5321300000000  0.4192000000000 1.0
C      1  0.5553430000000  0.2590030000000  0.6229250000000 1.0
C      1  0.4182210000000  0.3757040000000  0.4416670000000 1.0
C      1  0.2539960000000  0.4108260000000  0.4836320000000 1.0
C      1  0.5338890000000  0.6859030000000  0.6580790000000 1.0
C      1  0.5308380000000  0.6172330000000  0.5442190000000 1.0
C      1  0.4450190000000  0.5353600000000  0.3247400000000 1.0
C      1  0.4277480000000  0.4429570000000  0.2985000000000 1.0
C      1  0.5061080000000  0.3821620000000  0.6168990000000 1.0
C      1  0.3258260000000  0.3956650000000  0.6937270000000 1.0
C      1  0.6153840000000  0.4046260000000  0.4691990000000 1.0
C      1  0.5143720000000  0.6340040000000  0.4436670000000 1.0
C      1  0.4272940000000  0.4713280000000  0.4901230000000 1.0
C      1  0.5904200000000  0.4946000000000  0.6884020000000 1.0
C      1  0.7426690000000  0.4757320000000  0.5369370000000 1.0
C      1  0.5267070000000  0.4708680000000  0.6241820000000 1.0
C      1  0.2899580000000  0.3996780000000  0.5879240000000 1.0
C      1  0.5957170000000  0.3584200000000  0.3458430000000 1.0
C      1  0.6454890000000  0.5679270000000  0.4470850000000 1.0
C      1  0.3134400000000  0.6706460000000  0.4399540000000 1.0
C      1  0.6078810000000  0.6389140000000  0.3778820000000 1.0
C      1  0.6310810000000  0.6367310000000  0.5819760000000 1.0
C      1  0.5702980000000  0.3122270000000  0.4369560000000 1.0
C      1  0.6236060000000  0.4143270000000  0.7280640000000 1.0
C      1  0.7043030000000  0.5816520000000  0.5382220000000 1.0
C      1  0.3665620000000  0.4025800000000  0.3626300000000 1.0
C      1  0.2991420000000  0.5816120000000  0.5089550000000 1.0
C      1  0.6386950000000  0.5560520000000  0.3152730000000 1.0
C      1  0.7083100000000  0.4977050000000  0.3531030000000 1.0
C      1  0.2866670000000  0.4502730000000  0.3960190000000 1.0
C      1  0.6131530000000  0.7340730000000  0.5255200000000 1.0
C      1  0.5184130000000  0.3982330000000  0.2897180000000 1.0
C      1  0.5127020000000  0.3463860000000  0.5292810000000 1.0
C      1  0.4780910000000  0.3095110000000  0.6900870000000 1.0
C      1  0.7541650000000  0.5373440000000  0.4437020000000 1.0
C      1  0.4210530000000  0.6983900000000  0.4415060000000 1.0
C      1  0.5674170000000  0.4841250000000  0.3117180000000 1.0
C      1  0.2870800000000  0.5462390000000  0.4017860000000 1.0
C      1  0.5857850000000  0.4893010000000  0.4230740000000 1.0
C      1  0.5762060000000  0.7546220000000  0.6152050000000 1.0
C      1  0.5496690000000  0.7234880000000  0.3515330000000 1.0
C      1  0.4421960000000  0.6494170000000  0.6045520000000 1.0
C      1  0.6036160000000  0.6008580000000  0.6860470000000 1.0
C      1  0.6796150000000  0.4061630000000  0.3461920000000 1.0
C      1  0.3800050000000  0.3099390000000  0.6972850000000 1.0
C      1  0.4585630000000  0.6997460000000  0.3423530000000 1.0
C      1  0.3288340000000  0.2962220000000  0.6070930000000 1.0
C      1  0.6838340000000  0.4072740000000  0.5288890000000 1.0
C      1  0.4365470000000  0.6064250000000  0.7023520000000 1.0
C      1  0.3305440000000  0.4845960000000  0.5246810000000 1.0
C      1  0.4966170000000  0.5203810000000  0.5539910000000 1.0
C      1  0.3151820000000  0.6230760000000  0.3421860000000 1.0
C      1  0.5083280000000  0.5852030000000  0.7412780000000 1.0
C      1  0.5895080000000  0.3285580000000  0.7050970000000 1.0
C      1  0.3576080000000  0.2460040000000  0.5375370000000 1.0
END
