TITL C-986976-6631-598 -1.91544305171417e-06 3375 -348.02313801097 0 0 60 (Th) n - 1
REM
REM in /home/bkarasulu/work/CARBON/AIRSS/Generating-Clusters/REBO/Higher-Symm/Only-C60
REM
REM
REM
REM
REM
REM ./C.cell (a2850807a9bf4ad07a5b6933b78d9264)
REM AIRSS Version 0.9.1 bugfix July 2018 build 013d7b7c2542+ Fri, 06 Jul 2018 19:26:36 +0100
REM compiler GCC version 9.2.1 20190827 (Red Hat 9.2.1-1)
REM options -cpp -mtune=generic -march=x86-64 -g -O0 -fpre-include=/usr/include/finclude/math-vector-fortran.h
REM seed 1610042917 108150979 -716075295 1406495996 1811528770 -1509511638 1343582593 1788966401 -1362697553 1242752626 384030838 -646861490 413981816 -1866585659 -388721165 1136918093 68114241 531082173 1082230903 862085821 1314604125 1016919639 -1882360582 247321488 -218285928 -1488243168 -437440082 -12886114 -1840202505 650115544 807992218 2026863342 -1850571741
REM
CELL 1.54180   15.00000   15.00000   15.00000   90.00000   90.00000   90.00000
LATT -1
SFAC C  
C      1  0.4445540000000  0.5526020000000  0.2561310000000 1.0
C      1  0.2561310000000  0.4445540000000  0.5526020000000 1.0
C      1  0.5526020000000  0.2561310000000  0.4445540000000 1.0
C      1  0.4445540000000  0.4473980000000  0.7438690000000 1.0
C      1  0.5554460000000  0.4473980000000  0.2561310000000 1.0
C      1  0.5554460000000  0.5526020000000  0.7438690000000 1.0
C      1  0.2561310000000  0.5554460000000  0.4473980000000 1.0
C      1  0.7438690000000  0.5554460000000  0.5526020000000 1.0
C      1  0.7438690000000  0.4445540000000  0.4473980000000 1.0
C      1  0.5526020000000  0.7438690000000  0.5554460000000 1.0
C      1  0.4473980000000  0.7438690000000  0.4445540000000 1.0
C      1  0.4473980000000  0.2561310000000  0.5554460000000 1.0
C      1  0.5554460000000  0.5526020000000  0.2561310000000 1.0
C      1  0.7438690000000  0.4445540000000  0.5526020000000 1.0
C      1  0.4473980000000  0.2561310000000  0.4445540000000 1.0
C      1  0.5554460000000  0.4473980000000  0.7438690000000 1.0
C      1  0.4445540000000  0.4473980000000  0.2561310000000 1.0
C      1  0.4445540000000  0.5526020000000  0.7438690000000 1.0
C      1  0.7438690000000  0.5554460000000  0.4473980000000 1.0
C      1  0.2561310000000  0.5554460000000  0.5526020000000 1.0
C      1  0.2561310000000  0.4445540000000  0.4473980000000 1.0
C      1  0.4473980000000  0.7438690000000  0.5554460000000 1.0
C      1  0.5526020000000  0.7438690000000  0.4445540000000 1.0
C      1  0.5526020000000  0.2561310000000  0.5554460000000 1.0
C      1  0.4155690000000  0.3242680000000  0.6248570000000 1.0
C      1  0.6248570000000  0.4155690000000  0.3242680000000 1.0
C      1  0.3242680000000  0.6248570000000  0.4155690000000 1.0
C      1  0.4155690000000  0.6757320000000  0.3751430000000 1.0
C      1  0.5844310000000  0.6757320000000  0.6248570000000 1.0
C      1  0.5844310000000  0.3242680000000  0.3751430000000 1.0
C      1  0.6248570000000  0.5844310000000  0.6757320000000 1.0
C      1  0.3751430000000  0.5844310000000  0.3242680000000 1.0
C      1  0.3751430000000  0.4155690000000  0.6757320000000 1.0
C      1  0.3242680000000  0.3751430000000  0.5844310000000 1.0
C      1  0.6757320000000  0.3751430000000  0.4155690000000 1.0
C      1  0.6757320000000  0.6248570000000  0.5844310000000 1.0
C      1  0.5844310000000  0.3242680000000  0.6248570000000 1.0
C      1  0.3751430000000  0.4155690000000  0.3242680000000 1.0
C      1  0.6757320000000  0.6248570000000  0.4155690000000 1.0
C      1  0.5844310000000  0.6757320000000  0.3751430000000 1.0
C      1  0.4155690000000  0.6757320000000  0.6248570000000 1.0
C      1  0.4155690000000  0.3242680000000  0.3751430000000 1.0
C      1  0.3751430000000  0.5844310000000  0.6757320000000 1.0
C      1  0.6248570000000  0.5844310000000  0.3242680000000 1.0
C      1  0.6248570000000  0.4155690000000  0.6757320000000 1.0
C      1  0.6757320000000  0.3751430000000  0.5844310000000 1.0
C      1  0.3242680000000  0.3751430000000  0.4155690000000 1.0
C      1  0.3242680000000  0.6248570000000  0.5844310000000 1.0
C      1  0.3693180000000  0.6809950000000  0.5000000000000 1.0
C      1  0.5000000000000  0.3693180000000  0.6809950000000 1.0
C      1  0.6306820000000  0.3190050000000  0.5000000000000 1.0
C      1  0.5000000000000  0.6306820000000  0.3190050000000 1.0
C      1  0.5000000000000  0.3693180000000  0.3190050000000 1.0
C      1  0.3190050000000  0.5000000000000  0.3693180000000 1.0
C      1  0.3190050000000  0.5000000000000  0.6306820000000 1.0
C      1  0.5000000000000  0.6306820000000  0.6809950000000 1.0
C      1  0.6809950000000  0.5000000000000  0.3693180000000 1.0
C      1  0.6809950000000  0.5000000000000  0.6306820000000 1.0
C      1  0.3693180000000  0.3190050000000  0.5000000000000 1.0
C      1  0.6306820000000  0.6809950000000  0.5000000000000 1.0
END
