TITL C-986974-580-556 2.06196300589144e-09 3375 -336.220020806756 0 0 60 (C5) n - 1
REM
REM in /home/bkarasulu/work/CARBON/AIRSS/Generating-Clusters/REBO/Higher-Symm/Only-C60
REM
REM
REM
REM
REM
REM ./C.cell (a2850807a9bf4ad07a5b6933b78d9264)
REM AIRSS Version 0.9.1 bugfix July 2018 build 013d7b7c2542+ Fri, 06 Jul 2018 19:26:36 +0100
REM compiler GCC version 9.2.1 20190827 (Red Hat 9.2.1-1)
REM options -cpp -mtune=generic -march=x86-64 -g -O0 -fpre-include=/usr/include/finclude/math-vector-fortran.h
REM seed -1834590892 -1108139178 1180337578 1429483786 -1051167907 901620822 -204790103 -869189595 -1051949028 -1138416685 -231662897 1669489884 -1133090698 -543540011 1781086500 695514076 347812667 -1011519767 515267199 1187594947 984938537 202443820 -1762882077 2138829545 1391693126 1580044601 1458510813 -1386539394 -1454868413 791391930 1556289630 -2147073680 -571469874
REM
CELL 1.54180   15.00000   15.00000   15.00000   90.00000   90.00000   90.00000
LATT -1
SFAC C  
C      1  0.6816780000000  0.4115160000000  0.3412370000000 1.0
C      1  0.6816790000000  0.6236510000000  0.3667860000000 1.0
C      1  0.6816750000000  0.6649040000000  0.5764360000000 1.0
C      1  0.6816760000000  0.4782660000000  0.6804550000000 1.0
C      1  0.6816760000000  0.3216630000000  0.5350940000000 1.0
C      1  0.4457210000000  0.4126530000000  0.5240360000000 1.0
C      1  0.4457220000000  0.4501480000000  0.4243560000000 1.0
C      1  0.4457220000000  0.5565360000000  0.4292140000000 1.0
C      1  0.4457210000000  0.5847940000000  0.5318950000000 1.0
C      1  0.4457210000000  0.4958680000000  0.5904970000000 1.0
C      1  0.2715980000000  0.4913520000000  0.6115740000000 1.0
C      1  0.2715950000000  0.3911930000000  0.5262520000000 1.0
C      1  0.2715980000000  0.4414030000000  0.4046340000000 1.0
C      1  0.2715980000000  0.5725830000000  0.4148160000000 1.0
C      1  0.2715950000000  0.6034680000000  0.5427140000000 1.0
C      1  0.3755840000000  0.2940000000000  0.4567250000000 1.0
C      1  0.3755800000000  0.4774980000000  0.2907140000000 1.0
C      1  0.3755810000000  0.6920940000000  0.4139280000000 1.0
C      1  0.3755810000000  0.6412220000000  0.6560880000000 1.0
C      1  0.3755760000000  0.3951860000000  0.6825400000000 1.0
C      1  0.7479390000000  0.5754830000000  0.5511160000000 1.0
C      1  0.7479380000000  0.4747130000000  0.5875850000000 1.0
C      1  0.7479390000000  0.4088890000000  0.5030170000000 1.0
C      1  0.7479400000000  0.4689780000000  0.4142820000000 1.0
C      1  0.7479390000000  0.5719380000000  0.4440090000000 1.0
C      1  0.5867680000000  0.6382220000000  0.6276640000000 1.0
C      1  0.5867650000000  0.4213080000000  0.6709110000000 1.0
C      1  0.5867690000000  0.3131370000000  0.4779690000000 1.0
C      1  0.5867700000000  0.4632120000000  0.3154750000000 1.0
C      1  0.5867680000000  0.6641210000000  0.4079850000000 1.0
C      1  0.5140130000000  0.4884720000000  0.6758240000000 1.0
C      1  0.5140200000000  0.3292210000000  0.5433670000000 1.0
C      1  0.5140210000000  0.4059820000000  0.3509800000000 1.0
C      1  0.5140170000000  0.6126730000000  0.3645320000000 1.0
C      1  0.5140220000000  0.6636520000000  0.5652970000000 1.0
C      1  0.4193490000000  0.2828260000000  0.5385400000000 1.0
C      1  0.4193480000000  0.3962350000000  0.3053660000000 1.0
C      1  0.4193430000000  0.6530410000000  0.3411690000000 1.0
C      1  0.4193510000000  0.6983530000000  0.5964710000000 1.0
C      1  0.4193380000000  0.4695450000000  0.7184500000000 1.0
C      1  0.3514740000000  0.3921090000000  0.5722410000000 1.0
C      1  0.3514780000000  0.3979490000000  0.4197170000000 1.0
C      1  0.3514760000000  0.5448160000000  0.3781410000000 1.0
C      1  0.3514760000000  0.6297530000000  0.5049700000000 1.0
C      1  0.3514750000000  0.5353730000000  0.6249250000000 1.0
C      1  0.6801900000000  0.3869080000000  0.6151270000000 1.0
C      1  0.6801950000000  0.3555600000000  0.4280190000000 1.0
C      1  0.6801970000000  0.5238250000000  0.3403860000000 1.0
C      1  0.6801900000000  0.6591620000000  0.4733370000000 1.0
C      1  0.6801970000000  0.5745460000000  0.6431380000000 1.0
C      1  0.5523950000000  0.5525060000000  0.2904330000000 1.0
C      1  0.5524080000000  0.7155290000000  0.4851810000000 1.0
C      1  0.5523890000000  0.5807020000000  0.7004080000000 1.0
C      1  0.5524020000000  0.3343450000000  0.6386770000000 1.0
C      1  0.5524020000000  0.3169190000000  0.3853030000000 1.0
C      1  0.3732890000000  0.3138400000000  0.3484760000000 1.0
C      1  0.3732790000000  0.5865800000000  0.2761330000000 1.0
C      1  0.3732920000000  0.7396720000000  0.5131640000000 1.0
C      1  0.3732760000000  0.5615420000000  0.7320000000000 1.0
C      1  0.3732850000000  0.2983650000000  0.6302210000000 1.0
END
