TITL C-986976-6631-1075 4.58188573395892e-06 3375 -335.635298764002 0 0 60 (C2) n - 1
REM
REM in /home/bkarasulu/work/CARBON/AIRSS/Generating-Clusters/REBO/Higher-Symm/Only-C60
REM
REM
REM
REM
REM
REM ./C.cell (a2850807a9bf4ad07a5b6933b78d9264)
REM AIRSS Version 0.9.1 bugfix July 2018 build 013d7b7c2542+ Fri, 06 Jul 2018 19:26:36 +0100
REM compiler GCC version 9.2.1 20190827 (Red Hat 9.2.1-1)
REM options -cpp -mtune=generic -march=x86-64 -g -O0 -fpre-include=/usr/include/finclude/math-vector-fortran.h
REM seed -1865819385 -1696404185 845873669 -84464828 1296874348 35867652 -201144031 1630646126 -1158006813 -293572267 1417132253 -104151770 -1313080077 976769895 1149845367 580137739 1776522164 1958773547 497819800 955494838 -866990432 1735955169 868159818 666088644 2117905452 -1310506862 569074515 -1686927428 1913333921 1284782480 72430300 1492691100 -226992906
REM
CELL 1.54180   15.00000   15.00000   15.00000   90.00000   90.00000   90.00000
LATT -1
SFAC C  
C      1  0.4635640000000  0.4004040000000  0.6271070000000 1.0
C      1  0.5364360000000  0.4004050000000  0.3728940000000 1.0
C      1  0.6325660000000  0.3659000000000  0.6624630000000 1.0
C      1  0.3674350000000  0.3659000000000  0.3375370000000 1.0
C      1  0.7473910000000  0.5735050000000  0.5771360000000 1.0
C      1  0.2526080000000  0.5735040000000  0.4228620000000 1.0
C      1  0.4490380000000  0.3577270000000  0.4117480000000 1.0
C      1  0.5509630000000  0.3577270000000  0.5882520000000 1.0
C      1  0.2750960000000  0.5903500000000  0.5917170000000 1.0
C      1  0.7249030000000  0.5903530000000  0.4082820000000 1.0
C      1  0.5769810000000  0.7468350000000  0.5579150000000 1.0
C      1  0.4230160000000  0.7468350000000  0.4420860000000 1.0
C      1  0.2266810000000  0.5457810000000  0.5095390000000 1.0
C      1  0.7733190000000  0.5457840000000  0.4904600000000 1.0
C      1  0.3196230000000  0.5382920000000  0.3675300000000 1.0
C      1  0.6803770000000  0.5382920000000  0.6324690000000 1.0
C      1  0.6560080000000  0.4174410000000  0.3211520000000 1.0
C      1  0.3439910000000  0.4174390000000  0.6788470000000 1.0
C      1  0.4162280000000  0.5043210000000  0.6955580000000 1.0
C      1  0.5837710000000  0.5043220000000  0.3044420000000 1.0
C      1  0.5860240000000  0.4390590000000  0.7264640000000 1.0
C      1  0.4139770000000  0.4390590000000  0.2735360000000 1.0
C      1  0.6449330000000  0.6610440000000  0.4397190000000 1.0
C      1  0.3550650000000  0.6610420000000  0.5602820000000 1.0
C      1  0.2124810000000  0.4498570000000  0.5317470000000 1.0
C      1  0.7875220000000  0.4498610000000  0.4682500000000 1.0
C      1  0.3794770000000  0.5791230000000  0.6364230000000 1.0
C      1  0.6205220000000  0.5791250000000  0.3635770000000 1.0
C      1  0.5973600000000  0.7417880000000  0.4662500000000 1.0
C      1  0.4026380000000  0.7417870000000  0.5337520000000 1.0
C      1  0.3852250000000  0.3260970000000  0.6258290000000 1.0
C      1  0.6147760000000  0.3260990000000  0.3741710000000 1.0
C      1  0.4599010000000  0.5645030000000  0.4366570000000 1.0
C      1  0.5401000000000  0.5645020000000  0.5633440000000 1.0
C      1  0.4225560000000  0.2612170000000  0.5617240000000 1.0
C      1  0.5774450000000  0.2612180000000  0.4382750000000 1.0
C      1  0.5078260000000  0.5676810000000  0.6706730000000 1.0
C      1  0.4921720000000  0.5676820000000  0.3293270000000 1.0
C      1  0.5879450000000  0.5704500000000  0.4723080000000 1.0
C      1  0.4120560000000  0.5704490000000  0.5276930000000 1.0
C      1  0.6421190000000  0.4532440000000  0.5967560000000 1.0
C      1  0.3578820000000  0.4532450000000  0.4032440000000 1.0
C      1  0.6004580000000  0.4659820000000  0.4309190000000 1.0
C      1  0.3995430000000  0.4659810000000  0.5690810000000 1.0
C      1  0.5345830000000  0.2711710000000  0.5430790000000 1.0
C      1  0.4654180000000  0.2711710000000  0.4569210000000 1.0
C      1  0.5304100000000  0.6618730000000  0.6166880000000 1.0
C      1  0.4695890000000  0.6618730000000  0.3833130000000 1.0
C      1  0.4909080000000  0.4280570000000  0.7253280000000 1.0
C      1  0.5090930000000  0.4280580000000  0.2746720000000 1.0
C      1  0.5503990000000  0.4559760000000  0.5285030000000 1.0
C      1  0.4496020000000  0.4559770000000  0.4714970000000 1.0
C      1  0.7040400000000  0.4792040000000  0.3984070000000 1.0
C      1  0.2959600000000  0.4792010000000  0.6015910000000 1.0
C      1  0.3958940000000  0.5286380000000  0.3002580000000 1.0
C      1  0.6041060000000  0.5286380000000  0.6997410000000 1.0
C      1  0.3120520000000  0.2995180000000  0.3097970000000 1.0
C      1  0.6879480000000  0.2995170000000  0.6902040000000 1.0
C      1  0.4765190000000  0.7549560000000  0.5903300000000 1.0
C      1  0.5234790000000  0.7549570000000  0.4096720000000 1.0
END
