TITL C-986974-580-550 -0.0040398086210728 3375 -322.600626589708 0 0 60 (C2) n - 1
REM
REM in /home/bkarasulu/work/CARBON/AIRSS/Generating-Clusters/REBO/Higher-Symm/Only-C60
REM
REM
REM
REM
REM
REM ./C.cell (a2850807a9bf4ad07a5b6933b78d9264)
REM AIRSS Version 0.9.1 bugfix July 2018 build 013d7b7c2542+ Fri, 06 Jul 2018 19:26:36 +0100
REM compiler GCC version 9.2.1 20190827 (Red Hat 9.2.1-1)
REM options -cpp -mtune=generic -march=x86-64 -g -O0 -fpre-include=/usr/include/finclude/math-vector-fortran.h
REM seed 1100944018 -2070487349 -1915725707 -1271594254 -1871857137 -366741092 -1631255223 131667940 -121375779 1924359895 -2142916565 804799347 663111204 -1299891632 100581034 -249953778 -735890128 1518421670 825638799 -2084645921 1753021915 343741296 -1797546818 1975204645 100201745 355527796 -564075622 686981985 1407033439 422211930 -858803626 768287582 104328529
REM
CELL 1.54180   15.00000   15.00000   15.00000   90.00000   90.00000   90.00000
LATT -1
SFAC C  
C      1  0.3558880000000  0.4118250000000  0.3214160000000 1.0
C      1  0.4166680000000  0.3216050000000  0.3525760000000 1.0
C      1  0.3230250000000  0.3484680000000  0.4092120000000 1.0
C      1  0.3559260000000  0.5881620000000  0.6786100000000 1.0
C      1  0.6444120000000  0.4159890000000  0.6743060000000 1.0
C      1  0.6441880000000  0.5839850000000  0.3258490000000 1.0
C      1  0.4167280000000  0.6783960000000  0.6475730000000 1.0
C      1  0.5832050000000  0.3262380000000  0.6439930000000 1.0
C      1  0.5832880000000  0.6741180000000  0.3558270000000 1.0
C      1  0.3232250000000  0.6514950000000  0.5907240000000 1.0
C      1  0.6745290000000  0.3549430000000  0.5843360000000 1.0
C      1  0.6743500000000  0.6451370000000  0.4157030000000 1.0
C      1  0.6532310000000  0.4091780000000  0.3187790000000 1.0
C      1  0.5921660000000  0.3179690000000  0.3469230000000 1.0
C      1  0.6816910000000  0.3477890000000  0.4095270000000 1.0
C      1  0.6531830000000  0.5907900000000  0.6811910000000 1.0
C      1  0.3474000000000  0.4130660000000  0.6779870000000 1.0
C      1  0.3473850000000  0.5870240000000  0.3219230000000 1.0
C      1  0.5921030000000  0.6819200000000  0.6530950000000 1.0
C      1  0.4080780000000  0.3227360000000  0.6488080000000 1.0
C      1  0.4081630000000  0.6772110000000  0.3513010000000 1.0
C      1  0.6817540000000  0.6522510000000  0.5904990000000 1.0
C      1  0.3199990000000  0.3549240000000  0.5850720000000 1.0
C      1  0.3201260000000  0.6450400000000  0.4149880000000 1.0
C      1  0.4476240000000  0.4444020000000  0.6859590000000 1.0
C      1  0.4417140000000  0.6858190000000  0.4505740000000 1.0
C      1  0.6871820000000  0.4479360000000  0.4416320000000 1.0
C      1  0.4475820000000  0.5555650000000  0.3138540000000 1.0
C      1  0.5528950000000  0.4403960000000  0.3117830000000 1.0
C      1  0.5529260000000  0.5595010000000  0.6881640000000 1.0
C      1  0.4416250000000  0.3140400000000  0.5494580000000 1.0
C      1  0.5588580000000  0.6877470000000  0.5534170000000 1.0
C      1  0.5588850000000  0.3121440000000  0.4465780000000 1.0
C      1  0.6872770000000  0.5521190000000  0.5583230000000 1.0
C      1  0.3106620000000  0.4520570000000  0.5456730000000 1.0
C      1  0.3106820000000  0.5478920000000  0.4543250000000 1.0
C      1  0.5476190000000  0.4557890000000  0.6865460000000 1.0
C      1  0.5456810000000  0.6865630000000  0.4535070000000 1.0
C      1  0.3126400000000  0.4479720000000  0.4420760000000 1.0
C      1  0.5475660000000  0.5441110000000  0.3134670000000 1.0
C      1  0.4527600000000  0.4518050000000  0.3112590000000 1.0
C      1  0.4528390000000  0.5481190000000  0.6886230000000 1.0
C      1  0.5456020000000  0.3134860000000  0.5464970000000 1.0
C      1  0.4552900000000  0.6878920000000  0.5501540000000 1.0
C      1  0.4552500000000  0.3119450000000  0.4498580000000 1.0
C      1  0.3127510000000  0.5519600000000  0.5579210000000 1.0
C      1  0.6867420000000  0.4521630000000  0.5456050000000 1.0
C      1  0.6866730000000  0.5478990000000  0.4543400000000 1.0
C      1  0.2970430000000  0.5029800000000  0.6940650000000 1.0
C      1  0.2971090000000  0.4970340000000  0.3057980000000 1.0
C      1  0.7035410000000  0.4999420000000  0.3073540000000 1.0
C      1  0.7035830000000  0.5001340000000  0.6928490000000 1.0
C      1  0.4973730000000  0.6907840000000  0.2986730000000 1.0
C      1  0.6932780000000  0.2965670000000  0.4997370000000 1.0
C      1  0.4974340000000  0.3095190000000  0.7013110000000 1.0
C      1  0.5025080000000  0.6957720000000  0.7049920000000 1.0
C      1  0.5024560000000  0.3041450000000  0.2951430000000 1.0
C      1  0.6931700000000  0.7035030000000  0.5002540000000 1.0
C      1  0.3061210000000  0.2971100000000  0.4987160000000 1.0
C      1  0.3063500000000  0.7029300000000  0.5013010000000 1.0
END
