TITL C-986976-6631-600 -1.51909417035404e-06 3375 -354.608624659995 0 0 60 (D2) n - 1
REM
REM in /home/bkarasulu/work/CARBON/AIRSS/Generating-Clusters/REBO/Higher-Symm/Only-C60
REM
REM
REM
REM
REM
REM ./C.cell (a2850807a9bf4ad07a5b6933b78d9264)
REM AIRSS Version 0.9.1 bugfix July 2018 build 013d7b7c2542+ Fri, 06 Jul 2018 19:26:36 +0100
REM compiler GCC version 9.2.1 20190827 (Red Hat 9.2.1-1)
REM options -cpp -mtune=generic -march=x86-64 -g -O0 -fpre-include=/usr/include/finclude/math-vector-fortran.h
REM seed 431884416 1724129366 2146471134 1689120543 1189654051 -219530523 -1617051708 -1601149273 84115844 1776901256 -624479842 1431896224 1188930636 2101068857 -260994050 -997074082 -1007297034 1338899338 693466798 457100204 708934063 946162284 299157277 -1937258503 -977926860 -1922281877 -1539709167 -1266243591 -1187930018 1730437666 1991080738 -41780632 1300769496
REM
CELL 1.54180   15.00000   15.00000   15.00000   90.00000   90.00000   90.00000
LATT -1
SFAC C  
C      1  0.4262540000000  0.2808900000000  0.4280780000000 1.0
C      1  0.4262540000000  0.7191100000000  0.5719220000000 1.0
C      1  0.5737460000000  0.7191100000000  0.4280780000000 1.0
C      1  0.5737460000000  0.2808900000000  0.5719220000000 1.0
C      1  0.3226480000000  0.4381420000000  0.6192260000000 1.0
C      1  0.3226480000000  0.5618580000000  0.3807740000000 1.0
C      1  0.6773520000000  0.5618580000000  0.6192260000000 1.0
C      1  0.6773520000000  0.4381420000000  0.3807740000000 1.0
C      1  0.3539980000000  0.4955100000000  0.4525420000000 1.0
C      1  0.3539980000000  0.5044900000000  0.5474580000000 1.0
C      1  0.6460020000000  0.5044900000000  0.4525420000000 1.0
C      1  0.6460020000000  0.4955100000000  0.5474580000000 1.0
C      1  0.4597040000000  0.3767860000000  0.6627350000000 1.0
C      1  0.4597040000000  0.6232140000000  0.3372650000000 1.0
C      1  0.5402960000000  0.6232140000000  0.6627350000000 1.0
C      1  0.5402960000000  0.3767860000000  0.3372650000000 1.0
C      1  0.6322970000000  0.3539860000000  0.3969490000000 1.0
C      1  0.6322970000000  0.6460140000000  0.6030510000000 1.0
C      1  0.3677030000000  0.6460140000000  0.3969490000000 1.0
C      1  0.3677030000000  0.3539860000000  0.6030510000000 1.0
C      1  0.4823970000000  0.7104670000000  0.4036640000000 1.0
C      1  0.4823970000000  0.2895330000000  0.5963360000000 1.0
C      1  0.5176030000000  0.2895330000000  0.4036640000000 1.0
C      1  0.5176030000000  0.7104670000000  0.5963360000000 1.0
C      1  0.2908700000000  0.7080580000000  0.6800840000000 1.0
C      1  0.2908700000000  0.2919420000000  0.3199160000000 1.0
C      1  0.7091300000000  0.2919420000000  0.6800840000000 1.0
C      1  0.7091300000000  0.7080580000000  0.3199160000000 1.0
C      1  0.5122670000000  0.4081220000000  0.5443670000000 1.0
C      1  0.5122670000000  0.5918780000000  0.4556330000000 1.0
C      1  0.4877330000000  0.5918780000000  0.5443670000000 1.0
C      1  0.4877330000000  0.4081220000000  0.4556330000000 1.0
C      1  0.6377060000000  0.3389670000000  0.6459400000000 1.0
C      1  0.6377060000000  0.6610330000000  0.3540600000000 1.0
C      1  0.3622940000000  0.6610330000000  0.6459400000000 1.0
C      1  0.3622940000000  0.3389670000000  0.3540600000000 1.0
C      1  0.6118950000000  0.5660740000000  0.2970050000000 1.0
C      1  0.6118950000000  0.4339260000000  0.7029950000000 1.0
C      1  0.3881050000000  0.4339260000000  0.2970050000000 1.0
C      1  0.3881050000000  0.5660740000000  0.7029950000000 1.0
C      1  0.5194820000000  0.4543440000000  0.7112810000000 1.0
C      1  0.5194820000000  0.5456560000000  0.2887190000000 1.0
C      1  0.4805180000000  0.5456560000000  0.7112810000000 1.0
C      1  0.4805180000000  0.4543440000000  0.2887190000000 1.0
C      1  0.4501250000000  0.4717290000000  0.5997640000000 1.0
C      1  0.4501250000000  0.5282710000000  0.4002360000000 1.0
C      1  0.5498750000000  0.5282710000000  0.5997640000000 1.0
C      1  0.5498750000000  0.4717290000000  0.4002360000000 1.0
C      1  0.6027470000000  0.4095910000000  0.5728270000000 1.0
C      1  0.6027470000000  0.5904090000000  0.4271730000000 1.0
C      1  0.3972530000000  0.5904090000000  0.5728270000000 1.0
C      1  0.3972530000000  0.4095910000000  0.4271730000000 1.0
C      1  0.5930690000000  0.2900380000000  0.4766520000000 1.0
C      1  0.5930690000000  0.7099620000000  0.5233480000000 1.0
C      1  0.4069310000000  0.7099620000000  0.4766520000000 1.0
C      1  0.4069310000000  0.2900380000000  0.5233480000000 1.0
C      1  0.3267950000000  0.5081860000000  0.3002890000000 1.0
C      1  0.3267950000000  0.4918140000000  0.6997110000000 1.0
C      1  0.6732050000000  0.4918140000000  0.3002890000000 1.0
C      1  0.6732050000000  0.5081860000000  0.6997110000000 1.0
END
