TITL C-986978-6805-645 -3.09406184275726e-06 3375 -345.969626801848 0 0 60 (C3) n - 1
REM
REM in /home/bkarasulu/work/CARBON/AIRSS/Generating-Clusters/REBO/Higher-Symm/Only-C60
REM
REM
REM
REM
REM
REM ./C.cell (a2850807a9bf4ad07a5b6933b78d9264)
REM AIRSS Version 0.9.1 bugfix July 2018 build 013d7b7c2542+ Fri, 06 Jul 2018 19:26:36 +0100
REM compiler GCC version 9.2.1 20190827 (Red Hat 9.2.1-1)
REM options -cpp -mtune=generic -march=x86-64 -g -O0 -fpre-include=/usr/include/finclude/math-vector-fortran.h
REM seed -621091038 -1355188488 712092100 1650107711 1159853712 1621474061 -1417074753 769011313 199228706 -26969621 -1903730484 -474761156 1064784810 -1221887726 354886648 1307187568 -466357632 -1955594891 898619023 2003361882 808832974 1324829807 1796286833 -1642214216 -2089841784 1371083130 -604959423 -147981359 172118987 347046087 119652517 1853750947 -548565147
REM
CELL 1.54180   15.00000   15.00000   15.00000   90.00000   90.00000   90.00000
LATT -1
SFAC C  
C      1  0.7087800000000  0.5485040000000  0.4600360000000 1.0
C      1  0.7087810000000  0.5103570000000  0.5619840000000 1.0
C      1  0.7087800000000  0.4411410000000  0.4779740000000 1.0
C      1  0.4888190000000  0.4595480000000  0.6259570000000 1.0
C      1  0.4888170000000  0.4111440000000  0.4019890000000 1.0
C      1  0.4888170000000  0.6293080000000  0.4720540000000 1.0
C      1  0.3580180000000  0.5614310000000  0.6198450000000 1.0
C      1  0.3580170000000  0.3654970000000  0.4932800000000 1.0
C      1  0.3580160000000  0.5730720000000  0.3868790000000 1.0
C      1  0.2507050000000  0.5545730000000  0.4634920000000 1.0
C      1  0.2507060000000  0.5043330000000  0.5655200000000 1.0
C      1  0.2507050000000  0.4410940000000  0.4709970000000 1.0
C      1  0.6441970000000  0.7113700000000  0.5895070000000 1.0
C      1  0.6441980000000  0.3167980000000  0.6382960000000 1.0
C      1  0.6441940000000  0.4718320000000  0.2721920000000 1.0
C      1  0.4274260000000  0.5573250000000  0.7095640000000 1.0
C      1  0.4274240000000  0.2898500000000  0.4448640000000 1.0
C      1  0.4274220000000  0.6528240000000  0.3455740000000 1.0
C      1  0.6268120000000  0.6144470000000  0.5590080000000 1.0
C      1  0.6268130000000  0.3916730000000  0.5696080000000 1.0
C      1  0.6268100000000  0.4938810000000  0.3713800000000 1.0
C      1  0.6586080000000  0.3487750000000  0.4489250000000 1.0
C      1  0.6586070000000  0.6198440000000  0.3945700000000 1.0
C      1  0.6586100000000  0.5313820000000  0.6565000000000 1.0
C      1  0.5893200000000  0.4277990000000  0.4212240000000 1.0
C      1  0.5893210000000  0.6043220000000  0.4768580000000 1.0
C      1  0.5893220000000  0.4678800000000  0.6019150000000 1.0
C      1  0.3420380000000  0.6793510000000  0.4146640000000 1.0
C      1  0.3420420000000  0.4842290000000  0.6979930000000 1.0
C      1  0.3420380000000  0.3364190000000  0.3873480000000 1.0
C      1  0.2936190000000  0.4913140000000  0.3786860000000 1.0
C      1  0.2936200000000  0.6094060000000  0.5531380000000 1.0
C      1  0.2936210000000  0.3992790000000  0.5681830000000 1.0
C      1  0.6211410000000  0.3232570000000  0.3453070000000 1.0
C      1  0.6211410000000  0.7223390000000  0.4242810000000 1.0
C      1  0.6211450000000  0.4544050000000  0.7304090000000 1.0
C      1  0.4380190000000  0.6857000000000  0.5409560000000 1.0
C      1  0.4380210000000  0.3716810000000  0.6403440000000 1.0
C      1  0.4380170000000  0.4426180000000  0.3187020000000 1.0
C      1  0.4669100000000  0.2985600000000  0.5959620000000 1.0
C      1  0.4669060000000  0.5176140000000  0.2775680000000 1.0
C      1  0.4669100000000  0.6838250000000  0.6264710000000 1.0
C      1  0.6192160000000  0.5792280000000  0.3031280000000 1.0
C      1  0.6192200000000  0.6308820000000  0.6670480000000 1.0
C      1  0.6192190000000  0.2898910000000  0.5298210000000 1.0
C      1  0.3466740000000  0.6863740000000  0.5112340000000 1.0
C      1  0.3466760000000  0.3970850000000  0.6557900000000 1.0
C      1  0.3466730000000  0.4165400000000  0.3329810000000 1.0
C      1  0.6407540000000  0.3647780000000  0.7220240000000 1.0
C      1  0.6407490000000  0.3753320000000  0.2718790000000 1.0
C      1  0.6407500000000  0.7598920000000  0.5060920000000 1.0
C      1  0.4292770000000  0.4404870000000  0.4776600000000 1.0
C      1  0.4292770000000  0.5491040000000  0.4596310000000 1.0
C      1  0.4292780000000  0.5104090000000  0.5627110000000 1.0
C      1  0.5195250000000  0.6087910000000  0.2958100000000 1.0
C      1  0.5195290000000  0.6224380000000  0.6963110000000 1.0
C      1  0.5195280000000  0.2687710000000  0.5078790000000 1.0
C      1  0.5301440000000  0.5104660000000  0.7132150000000 1.0
C      1  0.5301410000000  0.3101170000000  0.4024560000000 1.0
C      1  0.5301400000000  0.6794170000000  0.3843280000000 1.0
END
