TITL C-986979-5873-63 6.63327150353293e-07 3375 -360.400107418974 0 0 60 (C1) n - 1
REM
REM in /home/bkarasulu/work/CARBON/AIRSS/Generating-Clusters/REBO/Higher-Symm/Only-C60
REM
REM
REM
REM
REM
REM ./C.cell (a2850807a9bf4ad07a5b6933b78d9264)
REM AIRSS Version 0.9.1 bugfix July 2018 build 013d7b7c2542+ Fri, 06 Jul 2018 19:26:36 +0100
REM compiler GCC version 9.2.1 20190827 (Red Hat 9.2.1-1)
REM options -cpp -mtune=generic -march=x86-64 -g -O0 -fpre-include=/usr/include/finclude/math-vector-fortran.h
REM seed -1543966422 1458936117 332988580 -55960172 -836348121 -255323996 203290737 -163491865 2010133523 -2123218112 1007021029 -728472059 -1442776988 -2064949679 42098706 -409805549 -919400342 828445618 880391872 -156116318 1129753768 -91321057 961081194 1302592983 -1289260785 -1955018397 1692373284 239194256 -125664629 1697247090 -362187022 2114683957 408062871
REM
CELL 1.54180   15.00000   15.00000   15.00000   90.00000   90.00000   90.00000
LATT -1
SFAC C  
C      1  0.3940510000000  0.4288510000000  0.4315400000000 1.0
C      1  0.4013820000000  0.4369690000000  0.5937030000000 1.0
C      1  0.3950620000000  0.5762790000000  0.5043700000000 1.0
C      1  0.3903450000000  0.5267230000000  0.4254150000000 1.0
C      1  0.4073750000000  0.5288870000000  0.5889270000000 1.0
C      1  0.3858210000000  0.3839240000000  0.5126470000000 1.0
C      1  0.6708910000000  0.5655650000000  0.3270560000000 1.0
C      1  0.6701740000000  0.3358030000000  0.5251520000000 1.0
C      1  0.6635760000000  0.6262100000000  0.6228760000000 1.0
C      1  0.6602350000000  0.4614550000000  0.3275540000000 1.0
C      1  0.6768920000000  0.6749490000000  0.5310950000000 1.0
C      1  0.6624670000000  0.3880330000000  0.6162090000000 1.0
C      1  0.5797320000000  0.7038620000000  0.5554530000000 1.0
C      1  0.5606730000000  0.4502840000000  0.3011770000000 1.0
C      1  0.5650880000000  0.3645580000000  0.6441920000000 1.0
C      1  0.5739010000000  0.3108160000000  0.5545390000000 1.0
C      1  0.5707600000000  0.5554090000000  0.2997510000000 1.0
C      1  0.5672430000000  0.6543490000000  0.6478380000000 1.0
C      1  0.5005700000000  0.3978600000000  0.7000510000000 1.0
C      1  0.5179970000000  0.7378240000000  0.4949310000000 1.0
C      1  0.4989800000000  0.3830990000000  0.3099100000000 1.0
C      1  0.5045750000000  0.6192880000000  0.7048720000000 1.0
C      1  0.5095120000000  0.2728740000000  0.4995890000000 1.0
C      1  0.5079470000000  0.6235290000000  0.3045600000000 1.0
C      1  0.3295160000000  0.4421420000000  0.7049960000000 1.0
C      1  0.3518130000000  0.7089570000000  0.4321760000000 1.0
C      1  0.3325130000000  0.3475170000000  0.3465910000000 1.0
C      1  0.3404670000000  0.5468940000000  0.7020310000000 1.0
C      1  0.3399430000000  0.2884810000000  0.4321930000000 1.0
C      1  0.3411110000000  0.6565490000000  0.3421720000000 1.0
C      1  0.2088280000000  0.4530040000000  0.5905910000000 1.0
C      1  0.2347390000000  0.5941290000000  0.5008610000000 1.0
C      1  0.2141380000000  0.4455620000000  0.4281210000000 1.0
C      1  0.2164460000000  0.5453540000000  0.5856690000000 1.0
C      1  0.2156500000000  0.3973210000000  0.5086000000000 1.0
C      1  0.2317330000000  0.5441130000000  0.4212730000000 1.0
C      1  0.7235640000000  0.5569010000000  0.6439960000000 1.0
C      1  0.7378220000000  0.6069070000000  0.3769870000000 1.0
C      1  0.7373730000000  0.3565950000000  0.4630810000000 1.0
C      1  0.7298560000000  0.4518910000000  0.6352810000000 1.0
C      1  0.7249500000000  0.4123160000000  0.3743020000000 1.0
C      1  0.7459170000000  0.6508390000000  0.4726770000000 1.0
C      1  0.8235400000000  0.4411210000000  0.5868310000000 1.0
C      1  0.8263350000000  0.5959260000000  0.5132610000000 1.0
C      1  0.8110730000000  0.4557390000000  0.4150570000000 1.0
C      1  0.8144620000000  0.5449450000000  0.5932880000000 1.0
C      1  0.8265040000000  0.3985530000000  0.5014040000000 1.0
C      1  0.8154200000000  0.5510990000000  0.4197020000000 1.0
C      1  0.4526920000000  0.7346890000000  0.4298390000000 1.0
C      1  0.4342740000000  0.3281980000000  0.3477370000000 1.0
C      1  0.4313200000000  0.4537710000000  0.7270830000000 1.0
C      1  0.4428670000000  0.2722150000000  0.4360420000000 1.0
C      1  0.4428600000000  0.6796900000000  0.3404040000000 1.0
C      1  0.4395700000000  0.5590550000000  0.7297270000000 1.0
C      1  0.2982460000000  0.3924350000000  0.6130940000000 1.0
C      1  0.3228530000000  0.6549980000000  0.5131140000000 1.0
C      1  0.3027770000000  0.4470520000000  0.3646880000000 1.0
C      1  0.3133130000000  0.5921310000000  0.6082330000000 1.0
C      1  0.2943130000000  0.3254330000000  0.5207910000000 1.0
C      1  0.3159520000000  0.5600750000000  0.3547040000000 1.0
END
