TITL C-986979-5873-306 5.06436135910455e-06 3375 -352.379221879716 0 0 60 (Td) n - 1
REM
REM in /home/bkarasulu/work/CARBON/AIRSS/Generating-Clusters/REBO/Higher-Symm/Only-C60
REM
REM
REM
REM
REM
REM ./C.cell (a2850807a9bf4ad07a5b6933b78d9264)
REM AIRSS Version 0.9.1 bugfix July 2018 build 013d7b7c2542+ Fri, 06 Jul 2018 19:26:36 +0100
REM compiler GCC version 9.2.1 20190827 (Red Hat 9.2.1-1)
REM options -cpp -mtune=generic -march=x86-64 -g -O0 -fpre-include=/usr/include/finclude/math-vector-fortran.h
REM seed 1149398549 2039176401 -1577895752 682247862 223551333 1978707746 -973317518 -1469064798 240917425 -171013997 -550262952 857742994 1346100988 354475107 1868942072 -1788158524 1657701334 -625354235 277250301 -1819132477 1207720174 -632363994 1545825166 -1157326037 1067897725 433143349 471260405 -1659308121 94828703 2090316939 -1113089777 -852259136 253702165
REM
CELL 1.54180   15.00000   15.00000   15.00000   90.00000   90.00000   90.00000
LATT -1
SFAC C  
C      1  0.4134710000000  0.2990390000000  0.4789750000000 1.0
C      1  0.4789750000000  0.4134710000000  0.2990390000000 1.0
C      1  0.2990390000000  0.4789750000000  0.4134710000000 1.0
C      1  0.5865290000000  0.7009610000000  0.4789750000000 1.0
C      1  0.5865290000000  0.2990390000000  0.5210250000000 1.0
C      1  0.4134710000000  0.7009610000000  0.5210250000000 1.0
C      1  0.5210250000000  0.5865290000000  0.2990390000000 1.0
C      1  0.5210250000000  0.4134710000000  0.7009610000000 1.0
C      1  0.4789750000000  0.5865290000000  0.7009610000000 1.0
C      1  0.7009610000000  0.5210250000000  0.4134710000000 1.0
C      1  0.7009610000000  0.4789750000000  0.5865290000000 1.0
C      1  0.2990390000000  0.5210250000000  0.5865290000000 1.0
C      1  0.2990390000000  0.4134710000000  0.4789750000000 1.0
C      1  0.4134710000000  0.4789750000000  0.2990390000000 1.0
C      1  0.4789750000000  0.2990390000000  0.4134710000000 1.0
C      1  0.7009610000000  0.5865290000000  0.4789750000000 1.0
C      1  0.2990390000000  0.5865290000000  0.5210250000000 1.0
C      1  0.7009610000000  0.4134710000000  0.5210250000000 1.0
C      1  0.5865290000000  0.5210250000000  0.2990390000000 1.0
C      1  0.4134710000000  0.5210250000000  0.7009610000000 1.0
C      1  0.5865290000000  0.4789750000000  0.7009610000000 1.0
C      1  0.5210250000000  0.7009610000000  0.4134710000000 1.0
C      1  0.4789750000000  0.7009610000000  0.5865290000000 1.0
C      1  0.5210250000000  0.2990390000000  0.5865290000000 1.0
C      1  0.7118470000000  0.4297650000000  0.3591640000000 1.0
C      1  0.3591640000000  0.7118470000000  0.4297650000000 1.0
C      1  0.4297650000000  0.3591640000000  0.7118470000000 1.0
C      1  0.2881530000000  0.5702350000000  0.3591640000000 1.0
C      1  0.2881530000000  0.4297650000000  0.6408360000000 1.0
C      1  0.7118470000000  0.5702350000000  0.6408360000000 1.0
C      1  0.6408360000000  0.2881530000000  0.4297650000000 1.0
C      1  0.6408360000000  0.7118470000000  0.5702350000000 1.0
C      1  0.3591640000000  0.2881530000000  0.5702350000000 1.0
C      1  0.5702350000000  0.6408360000000  0.7118470000000 1.0
C      1  0.5702350000000  0.3591640000000  0.2881530000000 1.0
C      1  0.4297650000000  0.6408360000000  0.2881530000000 1.0
C      1  0.4297650000000  0.7118470000000  0.3591640000000 1.0
C      1  0.7118470000000  0.3591640000000  0.4297650000000 1.0
C      1  0.3591640000000  0.4297650000000  0.7118470000000 1.0
C      1  0.5702350000000  0.2881530000000  0.3591640000000 1.0
C      1  0.4297650000000  0.2881530000000  0.6408360000000 1.0
C      1  0.5702350000000  0.7118470000000  0.6408360000000 1.0
C      1  0.2881530000000  0.6408360000000  0.4297650000000 1.0
C      1  0.7118470000000  0.6408360000000  0.5702350000000 1.0
C      1  0.2881530000000  0.3591640000000  0.5702350000000 1.0
C      1  0.6408360000000  0.5702350000000  0.7118470000000 1.0
C      1  0.3591640000000  0.5702350000000  0.2881530000000 1.0
C      1  0.6408360000000  0.4297650000000  0.2881530000000 1.0
C      1  0.4025530000000  0.4811890000000  0.5974470000000 1.0
C      1  0.5974470000000  0.4811890000000  0.4025530000000 1.0
C      1  0.4811890000000  0.4025530000000  0.5974470000000 1.0
C      1  0.4811890000000  0.5974470000000  0.4025530000000 1.0
C      1  0.5974470000000  0.4025530000000  0.4811890000000 1.0
C      1  0.4025530000000  0.5974470000000  0.4811890000000 1.0
C      1  0.5974470000000  0.5188110000000  0.5974470000000 1.0
C      1  0.5974470000000  0.5974470000000  0.5188110000000 1.0
C      1  0.5188110000000  0.5974470000000  0.5974470000000 1.0
C      1  0.4025530000000  0.5188110000000  0.4025530000000 1.0
C      1  0.4025530000000  0.4025530000000  0.5188110000000 1.0
C      1  0.5188110000000  0.4025530000000  0.4025530000000 1.0
END
