TITL C-986976-6631-831 1.29711814160981e-05 3375 -291.462161141373 0 0 60 (C3i) n - 1
REM
REM in /home/bkarasulu/work/CARBON/AIRSS/Generating-Clusters/REBO/Higher-Symm/Only-C60
REM
REM
REM
REM
REM
REM ./C.cell (a2850807a9bf4ad07a5b6933b78d9264)
REM AIRSS Version 0.9.1 bugfix July 2018 build 013d7b7c2542+ Fri, 06 Jul 2018 19:26:36 +0100
REM compiler GCC version 9.2.1 20190827 (Red Hat 9.2.1-1)
REM options -cpp -mtune=generic -march=x86-64 -g -O0 -fpre-include=/usr/include/finclude/math-vector-fortran.h
REM seed -668817068 930136657 -1270907048 -1759693968 1729304175 1475658936 -1943079709 -974002289 -123469498 -950574509 219087672 -991485341 -1318502040 -1279740528 -664234422 -1622824254 472537517 -1217282062 -895154741 1707055471 -2047440001 -53349543 -1687908267 1887758314 817803969 -2144873373 1274263245 -369327194 1460520772 1919089674 1494897749 1844703877 -969388297
REM
CELL 1.54180   15.00000   15.00000   15.00000   90.00000   90.00000   90.00000
LATT -1
SFAC C  
C      1  0.4717850000000  0.4219750000000  0.2939700000000 1.0
C      1  0.5282140000000  0.6394150000000  0.3294130000000 1.0
C      1  0.4717860000000  0.7174400000000  0.5354430000000 1.0
C      1  0.5282150000000  0.5780250000000  0.7060300000000 1.0
C      1  0.4717860000000  0.3605850000000  0.6705870000000 1.0
C      1  0.5282140000000  0.2825600000000  0.4645570000000 1.0
C      1  0.5571600000000  0.4875090000000  0.5959790000000 1.0
C      1  0.4428400000000  0.4106340000000  0.5371730000000 1.0
C      1  0.5571600000000  0.4231250000000  0.4411930000000 1.0
C      1  0.4428400000000  0.5124910000000  0.4040210000000 1.0
C      1  0.5571600000000  0.5893660000000  0.4628270000000 1.0
C      1  0.4428400000000  0.5768750000000  0.5588070000000 1.0
C      1  0.6140190000000  0.5040600000000  0.7146740000000 1.0
C      1  0.3859830000000  0.3161160000000  0.6108540000000 1.0
C      1  0.6140180000000  0.3120560000000  0.3961780000000 1.0
C      1  0.3859810000000  0.4959400000000  0.2853260000000 1.0
C      1  0.6140170000000  0.6838840000000  0.3891460000000 1.0
C      1  0.3859820000000  0.6879440000000  0.6038220000000 1.0
C      1  0.4225090000000  0.3001320000000  0.5041590000000 1.0
C      1  0.5774910000000  0.3964640000000  0.3289880000000 1.0
C      1  0.4225080000000  0.5963320000000  0.3248300000000 1.0
C      1  0.5774910000000  0.6998680000000  0.4958410000000 1.0
C      1  0.4225090000000  0.6035360000000  0.6710120000000 1.0
C      1  0.5774920000000  0.4036680000000  0.6751700000000 1.0
C      1  0.6749240000000  0.4079040000000  0.3816870000000 1.0
C      1  0.3250750000000  0.5564130000000  0.3610860000000 1.0
C      1  0.6749240000000  0.6485100000000  0.4793980000000 1.0
C      1  0.3250760000000  0.5920960000000  0.6183130000000 1.0
C      1  0.6749250000000  0.4435870000000  0.6389140000000 1.0
C      1  0.3250760000000  0.3514900000000  0.5206020000000 1.0
C      1  0.7126210000000  0.4427660000000  0.4717710000000 1.0
C      1  0.2873790000000  0.4958290000000  0.4363200000000 1.0
C      1  0.7126210000000  0.5530640000000  0.4645470000000 1.0
C      1  0.2873790000000  0.5572340000000  0.5282290000000 1.0
C      1  0.7126210000000  0.5041710000000  0.5636800000000 1.0
C      1  0.2873790000000  0.4469360000000  0.5354530000000 1.0
C      1  0.6215980000000  0.5122340000000  0.4045270000000 1.0
C      1  0.3784010000000  0.5887990000000  0.4628590000000 1.0
C      1  0.6215990000000  0.5765650000000  0.5583310000000 1.0
C      1  0.3784020000000  0.4877660000000  0.5954730000000 1.0
C      1  0.6215990000000  0.4112010000000  0.5371410000000 1.0
C      1  0.3784010000000  0.4234350000000  0.4416690000000 1.0
C      1  0.6546420000000  0.5863870000000  0.6646840000000 1.0
C      1  0.3453590000000  0.4005720000000  0.6571550000000 1.0
C      1  0.6546420000000  0.3141860000000  0.4924700000000 1.0
C      1  0.3453580000000  0.4136130000000  0.3353160000000 1.0
C      1  0.6546410000000  0.5994280000000  0.3428450000000 1.0
C      1  0.3453580000000  0.6858140000000  0.5075300000000 1.0
C      1  0.5386510000000  0.2836480000000  0.6369440000000 1.0
C      1  0.4613500000000  0.2732270000000  0.3811060000000 1.0
C      1  0.5386490000000  0.4895790000000  0.2441620000000 1.0
C      1  0.4613490000000  0.7163520000000  0.3630560000000 1.0
C      1  0.5386500000000  0.7267730000000  0.6188940000000 1.0
C      1  0.4613510000000  0.5104210000000  0.7558380000000 1.0
C      1  0.4653630000000  0.6544800000000  0.4455250000000 1.0
C      1  0.5346370000000  0.6244170000000  0.6065460000000 1.0
C      1  0.4653640000000  0.4699370000000  0.6610210000000 1.0
C      1  0.5346370000000  0.3455200000000  0.5544750000000 1.0
C      1  0.4653630000000  0.3755830000000  0.3934540000000 1.0
C      1  0.5346360000000  0.5300630000000  0.3389790000000 1.0
END
