TITL C-986976-6631-478 0.00127809773959805 3375 -337.362051403754 0 0 60 (C1) n - 1
REM
REM in /home/bkarasulu/work/CARBON/AIRSS/Generating-Clusters/REBO/Higher-Symm/Only-C60
REM
REM
REM
REM
REM
REM ./C.cell (a2850807a9bf4ad07a5b6933b78d9264)
REM AIRSS Version 0.9.1 bugfix July 2018 build 013d7b7c2542+ Fri, 06 Jul 2018 19:26:36 +0100
REM compiler GCC version 9.2.1 20190827 (Red Hat 9.2.1-1)
REM options -cpp -mtune=generic -march=x86-64 -g -O0 -fpre-include=/usr/include/finclude/math-vector-fortran.h
REM seed -1606828618 951957646 -980879860 -382753017 -223509519 -397079325 1205836424 1012092805 426357443 812479886 1914523388 -436866716 2085078587 420322751 -1868342291 -165850944 1340336181 1352924077 1692187464 -9909302 -1017225049 459481772 928165433 -875538167 1927823041 -297286937 423040633 1619514765 1858867742 -1007944044 -563029498 56546020 -484430271
REM
CELL 1.54180   15.00000   15.00000   15.00000   90.00000   90.00000   90.00000
LATT -1
SFAC C  
C      1  0.3563540000000  0.5621870000000  0.4178640000000 1.0
C      1  0.6261520000000  0.5946140000000  0.4423600000000 1.0
C      1  0.5166580000000  0.3501130000000  0.4095740000000 1.0
C      1  0.5536740000000  0.5961030000000  0.5967760000000 1.0
C      1  0.5293800000000  0.4280310000000  0.6211360000000 1.0
C      1  0.4389000000000  0.4808630000000  0.6275000000000 1.0
C      1  0.6567420000000  0.5450350000000  0.3487260000000 1.0
C      1  0.4703180000000  0.3267990000000  0.3086640000000 1.0
C      1  0.3532810000000  0.6064220000000  0.3127610000000 1.0
C      1  0.4734530000000  0.7061940000000  0.4679640000000 1.0
C      1  0.6651080000000  0.3936400000000  0.4788740000000 1.0
C      1  0.3388530000000  0.3860170000000  0.4772840000000 1.0
C      1  0.6679530000000  0.5104310000000  0.6143840000000 1.0
C      1  0.4292210000000  0.3431770000000  0.6021610000000 1.0
C      1  0.4006690000000  0.6333850000000  0.6105410000000 1.0
C      1  0.4067500000000  0.3362950000000  0.4022460000000 1.0
C      1  0.3968670000000  0.6654690000000  0.3989560000000 1.0
C      1  0.6846950000000  0.4958500000000  0.4476700000000 1.0
C      1  0.5821640000000  0.4179940000000  0.7140050000000 1.0
C      1  0.3955350000000  0.4576210000000  0.7280090000000 1.0
C      1  0.5339550000000  0.6188730000000  0.6947310000000 1.0
C      1  0.6183250000000  0.6749080000000  0.6827060000000 1.0
C      1  0.5581700000000  0.3213580000000  0.6954880000000 1.0
C      1  0.3348550000000  0.5308560000000  0.6964440000000 1.0
C      1  0.6560350000000  0.4770560000000  0.7009280000000 1.0
C      1  0.4100390000000  0.3653560000000  0.6869260000000 1.0
C      1  0.4399610000000  0.6405640000000  0.6920910000000 1.0
C      1  0.2717970000000  0.4460650000000  0.4210080000000 1.0
C      1  0.5667280000000  0.7355400000000  0.4182630000000 1.0
C      1  0.6464770000000  0.3207600000000  0.4174620000000 1.0
C      1  0.4430920000000  0.4847270000000  0.3520670000000 1.0
C      1  0.5249540000000  0.5576400000000  0.3643740000000 1.0
C      1  0.5477150000000  0.4550970000000  0.3341410000000 1.0
C      1  0.7054630000000  0.6515210000000  0.5331150000000 1.0
C      1  0.5104820000000  0.2588100000000  0.5307980000000 1.0
C      1  0.2976850000000  0.5914190000000  0.5338440000000 1.0
C      1  0.5440200000000  0.6856530000000  0.5422630000000 1.0
C      1  0.6122570000000  0.3818670000000  0.5570670000000 1.0
C      1  0.3530780000000  0.4443000000000  0.5622110000000 1.0
C      1  0.5682620000000  0.7129500000000  0.3249570000000 1.0
C      1  0.6438080000000  0.3282310000000  0.3219390000000 1.0
C      1  0.2881350000000  0.4485530000000  0.3262800000000 1.0
C      1  0.4384820000000  0.5539390000000  0.5453070000000 1.0
C      1  0.5859010000000  0.5102920000000  0.5357480000000 1.0
C      1  0.4751690000000  0.4096690000000  0.5218630000000 1.0
C      1  0.7113440000000  0.5553090000000  0.5361790000000 1.0
C      1  0.4069900000000  0.2965420000000  0.5056610000000 1.0
C      1  0.3750600000000  0.6652100000000  0.5086430000000 1.0
C      1  0.3173530000000  0.5296970000000  0.6032980000000 1.0
C      1  0.6352320000000  0.7005780000000  0.5902210000000 1.0
C      1  0.5605790000000  0.3004900000000  0.6015910000000 1.0
C      1  0.5649740000000  0.3689770000000  0.2870830000000 1.0
C      1  0.3611140000000  0.5037950000000  0.2984440000000 1.0
C      1  0.5863550000000  0.6214680000000  0.3093670000000 1.0
C      1  0.2600720000000  0.5398470000000  0.4560780000000 1.0
C      1  0.6456710000000  0.6959670000000  0.4574440000000 1.0
C      1  0.5657400000000  0.2673400000000  0.4512680000000 1.0
C      1  0.4225950000000  0.4874330000000  0.4577590000000 1.0
C      1  0.5204590000000  0.5764500000000  0.4699560000000 1.0
C      1  0.5488900000000  0.4486560000000  0.4475320000000 1.0
END
