TITL C-986979-5873-19 -0.0478559183988003 3375 -360.471726602727 0 0 60 (C1) n - 1
REM
REM in /home/bkarasulu/work/CARBON/AIRSS/Generating-Clusters/REBO/Higher-Symm/Only-C60
REM
REM
REM
REM
REM
REM ./C.cell (a2850807a9bf4ad07a5b6933b78d9264)
REM AIRSS Version 0.9.1 bugfix July 2018 build 013d7b7c2542+ Fri, 06 Jul 2018 19:26:36 +0100
REM compiler GCC version 9.2.1 20190827 (Red Hat 9.2.1-1)
REM options -cpp -mtune=generic -march=x86-64 -g -O0 -fpre-include=/usr/include/finclude/math-vector-fortran.h
REM seed -1511875967 -476984515 -1365816332 -1519762589 1220494879 -1836393094 -1152150737 -1125624493 -1989119012 -1628475535 1294944708 -1986959225 -1440776834 832679439 1050357603 -1502048399 -995240085 -1126181524 416626599 1457412350 -23844244 1135703315 -1163539123 -943142154 1065368672 -40440289 936684088 -1133412695 -1214188577 1221956341 1357357751 -1538298804 746675006
REM
CELL 1.54180   15.00000   15.00000   15.00000   90.00000   90.00000   90.00000
LATT -1
SFAC C  
C      1  0.4491780000000  0.3140840000000  0.4377280000000 1.0
C      1  0.5551100000000  0.3212290000000  0.5476060000000 1.0
C      1  0.5559850000000  0.3142000000000  0.4337430000000 1.0
C      1  0.4415640000000  0.3230880000000  0.5506610000000 1.0
C      1  0.4443060000000  0.6606010000000  0.6080050000000 1.0
C      1  0.5542850000000  0.6557430000000  0.4072100000000 1.0
C      1  0.5498920000000  0.6520300000000  0.6180780000000 1.0
C      1  0.4493590000000  0.6495760000000  0.3974020000000 1.0
C      1  0.2617950000000  0.4702530000000  0.4509810000000 1.0
C      1  0.7406490000000  0.4736220000000  0.5497870000000 1.0
C      1  0.7388090000000  0.4728050000000  0.4511130000000 1.0
C      1  0.2581370000000  0.4763420000000  0.5495310000000 1.0
C      1  0.2837250000000  0.6584770000000  0.5415210000000 1.0
C      1  0.7197820000000  0.6523150000000  0.4475410000000 1.0
C      1  0.7134800000000  0.6557060000000  0.5526290000000 1.0
C      1  0.2798320000000  0.6489400000000  0.4371420000000 1.0
C      1  0.3734330000000  0.7126600000000  0.5525850000000 1.0
C      1  0.6293220000000  0.7020310000000  0.4615250000000 1.0
C      1  0.6221150000000  0.7088130000000  0.5649560000000 1.0
C      1  0.3703210000000  0.6995120000000  0.4497240000000 1.0
C      1  0.2946820000000  0.5528170000000  0.4138030000000 1.0
C      1  0.7112600000000  0.5587770000000  0.5864040000000 1.0
C      1  0.7062680000000  0.5572320000000  0.4181520000000 1.0
C      1  0.2861500000000  0.5637040000000  0.5815490000000 1.0
C      1  0.6275870000000  0.5218800000000  0.7213990000000 1.0
C      1  0.3782680000000  0.5181340000000  0.2891790000000 1.0
C      1  0.3860950000000  0.5339770000000  0.7087810000000 1.0
C      1  0.6094710000000  0.5258810000000  0.3005130000000 1.0
C      1  0.6696790000000  0.3277660000000  0.5489600000000 1.0
C      1  0.3402390000000  0.3281380000000  0.4582160000000 1.0
C      1  0.3277030000000  0.3302320000000  0.5562030000000 1.0
C      1  0.6645580000000  0.3284750000000  0.4506240000000 1.0
C      1  0.2931420000000  0.3918240000000  0.4048450000000 1.0
C      1  0.7117900000000  0.3960410000000  0.5983250000000 1.0
C      1  0.7090530000000  0.3963670000000  0.4006860000000 1.0
C      1  0.2876060000000  0.4018280000000  0.6024210000000 1.0
C      1  0.5441750000000  0.4120520000000  0.2788920000000 1.0
C      1  0.4580130000000  0.4223180000000  0.7063510000000 1.0
C      1  0.4551380000000  0.4097980000000  0.2803060000000 1.0
C      1  0.5442360000000  0.4194790000000  0.7051320000000 1.0
C      1  0.4456610000000  0.4933860000000  0.5462620000000 1.0
C      1  0.5522480000000  0.4812140000000  0.4373250000000 1.0
C      1  0.5530880000000  0.4906780000000  0.5455880000000 1.0
C      1  0.4497540000000  0.4799490000000  0.4383410000000 1.0
C      1  0.3445060000000  0.4128270000000  0.3097470000000 1.0
C      1  0.6558640000000  0.4189030000000  0.6848500000000 1.0
C      1  0.6547440000000  0.4218420000000  0.3072980000000 1.0
C      1  0.3463320000000  0.4298850000000  0.6866680000000 1.0
C      1  0.3960800000000  0.5688780000000  0.4484640000000 1.0
C      1  0.6068070000000  0.5768390000000  0.5638100000000 1.0
C      1  0.6047110000000  0.5712170000000  0.4528920000000 1.0
C      1  0.3905310000000  0.5808490000000  0.5586380000000 1.0
C      1  0.4240450000000  0.4021090000000  0.3860450000000 1.0
C      1  0.5798900000000  0.4115470000000  0.6001030000000 1.0
C      1  0.5777040000000  0.4041600000000  0.3839400000000 1.0
C      1  0.4197950000000  0.4148040000000  0.6017940000000 1.0
C      1  0.5594960000000  0.5769080000000  0.7016120000000 1.0
C      1  0.4420100000000  0.5754290000000  0.3126700000000 1.0
C      1  0.4579840000000  0.5869630000000  0.6887240000000 1.0
C      1  0.5425610000000  0.5828660000000  0.3250190000000 1.0
END
