TITL C-986975-4297-276 1.86389754891981e-06 3375 -350.503072785996 0 0 60 (C6) n - 1
REM
REM in /home/bkarasulu/work/CARBON/AIRSS/Generating-Clusters/REBO/Higher-Symm/Only-C60
REM
REM
REM
REM
REM
REM ./C.cell (a2850807a9bf4ad07a5b6933b78d9264)
REM AIRSS Version 0.9.1 bugfix July 2018 build 013d7b7c2542+ Fri, 06 Jul 2018 19:26:36 +0100
REM compiler GCC version 9.2.1 20190827 (Red Hat 9.2.1-1)
REM options -cpp -mtune=generic -march=x86-64 -g -O0 -fpre-include=/usr/include/finclude/math-vector-fortran.h
REM seed -1160065035 -141781059 2037813926 -614085336 1717873134 -1286109414 241725922 -1033527918 1876447558 -1182554676 -173282728 529151555 933792580 1765943399 1593601642 35182471 1585682044 740463762 965754388 -2045291732 -1184974430 -685631938 339392009 1508284073 -358756743 1999214917 -1169243897 769359956 -823266590 -1667431073 140760135 -372339777 1920577934
REM
CELL 1.54180   15.00000   15.00000   15.00000   90.00000   90.00000   90.00000
LATT -1
SFAC C  
C      1  0.5661010000000  0.6117270000000  0.3000660000000 1.0
C      1  0.5661010000000  0.7290110000000  0.4967920000000 1.0
C      1  0.5661010000000  0.6172840000000  0.6967250000000 1.0
C      1  0.5661010000000  0.3882730000000  0.6999340000000 1.0
C      1  0.5661010000000  0.2709890000000  0.5032080000000 1.0
C      1  0.5661010000000  0.3827160000000  0.3032750000000 1.0
C      1  0.4338990000000  0.3882730000000  0.3000660000000 1.0
C      1  0.4338990000000  0.2709890000000  0.4967920000000 1.0
C      1  0.4338990000000  0.3827160000000  0.6967250000000 1.0
C      1  0.4338990000000  0.6117270000000  0.6999340000000 1.0
C      1  0.4338990000000  0.7290110000000  0.5032080000000 1.0
C      1  0.4338990000000  0.6172840000000  0.3032750000000 1.0
C      1  0.2834610000000  0.5889920000000  0.5664680000000 1.0
C      1  0.2834610000000  0.4869330000000  0.6103030000000 1.0
C      1  0.2834610000000  0.3979410000000  0.5438350000000 1.0
C      1  0.2834610000000  0.4110080000000  0.4335320000000 1.0
C      1  0.2834610000000  0.5130670000000  0.3896970000000 1.0
C      1  0.2834610000000  0.6020590000000  0.4561650000000 1.0
C      1  0.7165390000000  0.4110080000000  0.5664680000000 1.0
C      1  0.7165390000000  0.5130670000000  0.6103030000000 1.0
C      1  0.7165390000000  0.6020590000000  0.5438350000000 1.0
C      1  0.7165390000000  0.5889920000000  0.4335320000000 1.0
C      1  0.7165390000000  0.4869330000000  0.3896970000000 1.0
C      1  0.7165390000000  0.3979410000000  0.4561650000000 1.0
C      1  0.4964980000000  0.4535760000000  0.7411340000000 1.0
C      1  0.4964980000000  0.2679600000000  0.5803630000000 1.0
C      1  0.4964980000000  0.3143840000000  0.3392290000000 1.0
C      1  0.4964980000000  0.5464240000000  0.2588660000000 1.0
C      1  0.4964980000000  0.7320400000000  0.4196370000000 1.0
C      1  0.4964980000000  0.6856160000000  0.6607710000000 1.0
C      1  0.5035020000000  0.5464240000000  0.7411340000000 1.0
C      1  0.5035020000000  0.7320400000000  0.5803630000000 1.0
C      1  0.5035020000000  0.6856160000000  0.3392290000000 1.0
C      1  0.5035020000000  0.4535760000000  0.2588660000000 1.0
C      1  0.5035020000000  0.2679600000000  0.4196370000000 1.0
C      1  0.5035020000000  0.3143840000000  0.6607710000000 1.0
C      1  0.4467360000000  0.4833120000000  0.3922710000000 1.0
C      1  0.4467360000000  0.5849520000000  0.4316830000000 1.0
C      1  0.4467360000000  0.6016400000000  0.5394120000000 1.0
C      1  0.4467360000000  0.5166880000000  0.6077290000000 1.0
C      1  0.4467360000000  0.4150480000000  0.5683170000000 1.0
C      1  0.4467360000000  0.3983600000000  0.4605880000000 1.0
C      1  0.5532640000000  0.5166880000000  0.3922710000000 1.0
C      1  0.5532640000000  0.4150480000000  0.4316830000000 1.0
C      1  0.5532640000000  0.3983600000000  0.5394120000000 1.0
C      1  0.5532640000000  0.4833120000000  0.6077290000000 1.0
C      1  0.5532640000000  0.5849520000000  0.5683170000000 1.0
C      1  0.5532640000000  0.6016400000000  0.4605880000000 1.0
C      1  0.3568540000000  0.4365850000000  0.3524440000000 1.0
C      1  0.3568540000000  0.5960790000000  0.3713030000000 1.0
C      1  0.3568540000000  0.6594950000000  0.5188590000000 1.0
C      1  0.3568540000000  0.5634150000000  0.6475560000000 1.0
C      1  0.3568540000000  0.4039210000000  0.6286970000000 1.0
C      1  0.3568540000000  0.3405050000000  0.4811410000000 1.0
C      1  0.6431460000000  0.5634150000000  0.3524440000000 1.0
C      1  0.6431460000000  0.4039210000000  0.3713030000000 1.0
C      1  0.6431460000000  0.3405050000000  0.5188590000000 1.0
C      1  0.6431460000000  0.4365850000000  0.6475560000000 1.0
C      1  0.6431460000000  0.5960790000000  0.6286970000000 1.0
C      1  0.6431460000000  0.6594950000000  0.4811410000000 1.0
END
