TITL C-986979-5873-655 0.00347646701546907 3375 -338.150413652772 0 0 60 (C3) n - 1
REM
REM in /home/bkarasulu/work/CARBON/AIRSS/Generating-Clusters/REBO/Higher-Symm/Only-C60
REM
REM
REM
REM
REM
REM ./C.cell (a2850807a9bf4ad07a5b6933b78d9264)
REM AIRSS Version 0.9.1 bugfix July 2018 build 013d7b7c2542+ Fri, 06 Jul 2018 19:26:36 +0100
REM compiler GCC version 9.2.1 20190827 (Red Hat 9.2.1-1)
REM options -cpp -mtune=generic -march=x86-64 -g -O0 -fpre-include=/usr/include/finclude/math-vector-fortran.h
REM seed -1461359171 -683924190 -1637697566 504986957 -1039020242 -483714717 1077904356 664173755 1732077557 1786810927 1111786262 -128513277 -1157460234 823776913 951128599 -2044919178 1287130997 -1457750584 -1868776657 -573251745 1144815577 -299056644 1092406720 -1424679041 1542593071 -232389463 -1474071407 -1812547237 837876570 -1953363585 1101741812 804595911 -133015519
REM
CELL 1.54180   15.00000   15.00000   15.00000   90.00000   90.00000   90.00000
LATT -1
SFAC C  
C      1  0.2716170000000  0.6615380000000  0.4905770000000 1.0
C      1  0.6223390000000  0.6615150000000  0.3068940000000 1.0
C      1  0.6060600000000  0.6615640000000  0.7024840000000 1.0
C      1  0.5458430000000  0.2816090000000  0.3368870000000 1.0
C      1  0.6183430000000  0.2816320000000  0.6212320000000 1.0
C      1  0.3357930000000  0.2816450000000  0.5419030000000 1.0
C      1  0.5796620000000  0.5994630000000  0.2575800000000 1.0
C      1  0.6700950000000  0.5994950000000  0.6901810000000 1.0
C      1  0.2502360000000  0.5994950000000  0.5521950000000 1.0
C      1  0.5344290000000  0.5531770000000  0.3736950000000 1.0
C      1  0.5921570000000  0.5532050000000  0.5929480000000 1.0
C      1  0.3734160000000  0.5532130000000  0.5333510000000 1.0
C      1  0.6586140000000  0.3188610000000  0.4638290000000 1.0
C      1  0.4519830000000  0.3188820000000  0.6554690000000 1.0
C      1  0.3894010000000  0.3188480000000  0.3807320000000 1.0
C      1  0.6761450000000  0.4917230000000  0.6911300000000 1.0
C      1  0.2464120000000  0.4917430000000  0.5569910000000 1.0
C      1  0.5774250000000  0.4916960000000  0.2518770000000 1.0
C      1  0.3755920000000  0.4862670000000  0.6903570000000 1.0
C      1  0.3973690000000  0.4862180000000  0.2970970000000 1.0
C      1  0.7270410000000  0.4862460000000  0.5125570000000 1.0
C      1  0.5504970000000  0.4913390000000  0.6474570000000 1.0
C      1  0.3470700000000  0.4913280000000  0.4700210000000 1.0
C      1  0.6024780000000  0.4913240000000  0.3825190000000 1.0
C      1  0.4571940000000  0.2736480000000  0.3483030000000 1.0
C      1  0.6527950000000  0.2736830000000  0.5387630000000 1.0
C      1  0.3899890000000  0.2737030000000  0.6129780000000 1.0
C      1  0.3288800000000  0.3582430000000  0.4664780000000 1.0
C      1  0.6146340000000  0.3582190000000  0.3685560000000 1.0
C      1  0.5565030000000  0.3582290000000  0.6649750000000 1.0
C      1  0.2906440000000  0.4061440000000  0.5553870000000 1.0
C      1  0.5567400000000  0.4061000000000  0.2910180000000 1.0
C      1  0.6526130000000  0.4061260000000  0.6536180000000 1.0
C      1  0.5375080000000  0.6402680000000  0.4069780000000 1.0
C      1  0.5617930000000  0.6403000000000  0.5789820000000 1.0
C      1  0.4007050000000  0.6403010000000  0.5140250000000 1.0
C      1  0.6971770000000  0.5130080000000  0.3549920000000 1.0
C      1  0.5269940000000  0.5130280000000  0.7432290000000 1.0
C      1  0.2758660000000  0.5129960000000  0.4017830000000 1.0
C      1  0.7363440000000  0.6381060000000  0.4381890000000 1.0
C      1  0.4353240000000  0.6381100000000  0.7355500000000 1.0
C      1  0.3282920000000  0.6380980000000  0.3262310000000 1.0
C      1  0.3152700000000  0.5472000000000  0.3219410000000 1.0
C      1  0.7465970000000  0.5472150000000  0.4290510000000 1.0
C      1  0.4381470000000  0.5472260000000  0.7490260000000 1.0
C      1  0.6420490000000  0.6790230000000  0.4169460000000 1.0
C      1  0.5008810000000  0.6790370000000  0.6645320000000 1.0
C      1  0.3570690000000  0.6790330000000  0.4184980000000 1.0
C      1  0.4809160000000  0.5453100000000  0.2802860000000 1.0
C      1  0.6998020000000  0.5453240000000  0.5933200000000 1.0
C      1  0.3192590000000  0.5453680000000  0.6263920000000 1.0
C      1  0.6968350000000  0.3949140000000  0.5724860000000 1.0
C      1  0.3387850000000  0.3949400000000  0.6342580000000 1.0
C      1  0.4643690000000  0.3948860000000  0.2933010000000 1.0
C      1  0.3756410000000  0.4263130000000  0.3871890000000 1.0
C      1  0.6599050000000  0.4263140000000  0.4486890000000 1.0
C      1  0.4644760000000  0.4263420000000  0.6641210000000 1.0
C      1  0.5948150000000  0.6937410000000  0.5141470000000 1.0
C      1  0.4403190000000  0.6937570000000  0.5750410000000 1.0
C      1  0.4648580000000  0.6937200000000  0.4107800000000 1.0
END
