TITL C-986975-4297-858 -2.04430553159044e-05 3375 -358.595488473862 0 0 60 (Td) n - 1
REM
REM in /home/bkarasulu/work/CARBON/AIRSS/Generating-Clusters/REBO/Higher-Symm/Only-C60
REM
REM
REM
REM
REM
REM ./C.cell (a2850807a9bf4ad07a5b6933b78d9264)
REM AIRSS Version 0.9.1 bugfix July 2018 build 013d7b7c2542+ Fri, 06 Jul 2018 19:26:36 +0100
REM compiler GCC version 9.2.1 20190827 (Red Hat 9.2.1-1)
REM options -cpp -mtune=generic -march=x86-64 -g -O0 -fpre-include=/usr/include/finclude/math-vector-fortran.h
REM seed 1618597573 1243599329 1825955450 2061148067 736019197 -722481803 1269128587 718737812 2000493858 -248433787 -1605198358 818480543 -1006638608 -107247606 -1145561646 -1671565742 72169196 2024812837 395209241 -2063554557 -2064566492 725785381 826997921 1609841719 186976993 1925590345 2030465099 -63014628 -465227371 -80822217 1837219109 -25468549 -1749674674
REM
CELL 1.54180   15.00000   15.00000   15.00000   90.00000   90.00000   90.00000
LATT -1
SFAC C  
C      1  0.5322880000000  0.2353680000000  0.4083810000000 1.0
C      1  0.2353680000000  0.4083810000000  0.5322880000000 1.0
C      1  0.4083810000000  0.5322880000000  0.2353680000000 1.0
C      1  0.4677120000000  0.2353680000000  0.5916190000000 1.0
C      1  0.4677120000000  0.7646320000000  0.4083810000000 1.0
C      1  0.5322880000000  0.7646320000000  0.5916190000000 1.0
C      1  0.7646320000000  0.4083810000000  0.4677120000000 1.0
C      1  0.7646320000000  0.5916190000000  0.5322880000000 1.0
C      1  0.2353680000000  0.5916190000000  0.4677120000000 1.0
C      1  0.5916190000000  0.5322880000000  0.7646320000000 1.0
C      1  0.5916190000000  0.4677120000000  0.2353680000000 1.0
C      1  0.4083810000000  0.4677120000000  0.7646320000000 1.0
C      1  0.4083810000000  0.2353680000000  0.5322880000000 1.0
C      1  0.5322880000000  0.4083810000000  0.2353680000000 1.0
C      1  0.2353680000000  0.5322880000000  0.4083810000000 1.0
C      1  0.5916190000000  0.2353680000000  0.4677120000000 1.0
C      1  0.4083810000000  0.7646320000000  0.4677120000000 1.0
C      1  0.5916190000000  0.7646320000000  0.5322880000000 1.0
C      1  0.4677120000000  0.4083810000000  0.7646320000000 1.0
C      1  0.5322880000000  0.5916190000000  0.7646320000000 1.0
C      1  0.4677120000000  0.5916190000000  0.2353680000000 1.0
C      1  0.7646320000000  0.5322880000000  0.5916190000000 1.0
C      1  0.2353680000000  0.4677120000000  0.5916190000000 1.0
C      1  0.7646320000000  0.4677120000000  0.4083810000000 1.0
C      1  0.4620440000000  0.3908020000000  0.3106120000000 1.0
C      1  0.3908020000000  0.3106120000000  0.4620440000000 1.0
C      1  0.3106120000000  0.4620440000000  0.3908020000000 1.0
C      1  0.5379560000000  0.3908020000000  0.6893880000000 1.0
C      1  0.5379560000000  0.6091980000000  0.3106120000000 1.0
C      1  0.4620440000000  0.6091980000000  0.6893880000000 1.0
C      1  0.6091980000000  0.3106120000000  0.5379560000000 1.0
C      1  0.6091980000000  0.6893880000000  0.4620440000000 1.0
C      1  0.3908020000000  0.6893880000000  0.5379560000000 1.0
C      1  0.6893880000000  0.4620440000000  0.6091980000000 1.0
C      1  0.6893880000000  0.5379560000000  0.3908020000000 1.0
C      1  0.3106120000000  0.5379560000000  0.6091980000000 1.0
C      1  0.3106120000000  0.3908020000000  0.4620440000000 1.0
C      1  0.4620440000000  0.3106120000000  0.3908020000000 1.0
C      1  0.3908020000000  0.4620440000000  0.3106120000000 1.0
C      1  0.6893880000000  0.3908020000000  0.5379560000000 1.0
C      1  0.3106120000000  0.6091980000000  0.5379560000000 1.0
C      1  0.6893880000000  0.6091980000000  0.4620440000000 1.0
C      1  0.5379560000000  0.3106120000000  0.6091980000000 1.0
C      1  0.4620440000000  0.6893880000000  0.6091980000000 1.0
C      1  0.5379560000000  0.6893880000000  0.3908020000000 1.0
C      1  0.6091980000000  0.4620440000000  0.6893880000000 1.0
C      1  0.3908020000000  0.5379560000000  0.6893880000000 1.0
C      1  0.6091980000000  0.5379560000000  0.3106120000000 1.0
C      1  0.5237700000000  0.6000480000000  0.6000480000000 1.0
C      1  0.6000480000000  0.6000480000000  0.5237700000000 1.0
C      1  0.3999520000000  0.4762300000000  0.6000480000000 1.0
C      1  0.6000480000000  0.4762300000000  0.3999520000000 1.0
C      1  0.4762300000000  0.6000480000000  0.3999520000000 1.0
C      1  0.4762300000000  0.3999520000000  0.6000480000000 1.0
C      1  0.5237700000000  0.3999520000000  0.3999520000000 1.0
C      1  0.3999520000000  0.6000480000000  0.4762300000000 1.0
C      1  0.3999520000000  0.3999520000000  0.5237700000000 1.0
C      1  0.6000480000000  0.3999520000000  0.4762300000000 1.0
C      1  0.6000480000000  0.5237700000000  0.6000480000000 1.0
C      1  0.3999520000000  0.5237700000000  0.3999520000000 1.0
END
