TITL C-986978-6805-431 -1.08635051614467e-06 3375 -356.163861481116 0 0 60 (D5) n - 1
REM
REM in /home/bkarasulu/work/CARBON/AIRSS/Generating-Clusters/REBO/Higher-Symm/Only-C60
REM
REM
REM
REM
REM
REM ./C.cell (a2850807a9bf4ad07a5b6933b78d9264)
REM AIRSS Version 0.9.1 bugfix July 2018 build 013d7b7c2542+ Fri, 06 Jul 2018 19:26:36 +0100
REM compiler GCC version 9.2.1 20190827 (Red Hat 9.2.1-1)
REM options -cpp -mtune=generic -march=x86-64 -g -O0 -fpre-include=/usr/include/finclude/math-vector-fortran.h
REM seed -34685983 -195747593 1916971645 285946668 2034481511 305811375 -167188415 635820361 -2084707035 -2135414206 -109481203 871792420 1811580714 557597810 1841937659 -1796761215 2001624933 30100184 1140652696 -123023309 -842138712 1817831812 1636162538 -87066849 201964139 494083839 -2036261017 1303633273 1823471604 1817236720 435035769 1574972694 -1235854570
REM
CELL 1.54180   15.00000   15.00000   15.00000   90.00000   90.00000   90.00000
LATT -1
SFAC C  
C      1  0.4805140000000  0.7334390000000  0.6153090000000 1.0
C      1  0.4805140000000  0.4624710000000  0.7576460000000 1.0
C      1  0.4805140000000  0.2433670000000  0.5439250000000 1.0
C      1  0.4805140000000  0.3789210000000  0.2695010000000 1.0
C      1  0.4805140000000  0.6818020000000  0.3136190000000 1.0
C      1  0.5194860000000  0.2665610000000  0.6153090000000 1.0
C      1  0.5194860000000  0.5375290000000  0.7576460000000 1.0
C      1  0.5194860000000  0.7566330000000  0.5439250000000 1.0
C      1  0.5194860000000  0.6210790000000  0.2695010000000 1.0
C      1  0.5194860000000  0.3181980000000  0.3136190000000 1.0
C      1  0.6462560000000  0.3999360000000  0.6183430000000 1.0
C      1  0.6462560000000  0.3565280000000  0.4414030000000 1.0
C      1  0.6462550000000  0.5113940000000  0.3454430000000 1.0
C      1  0.6462550000000  0.6505140000000  0.4630750000000 1.0
C      1  0.6462550000000  0.5816300000000  0.6317360000000 1.0
C      1  0.3537440000000  0.6000640000000  0.6183430000000 1.0
C      1  0.3537440000000  0.6434720000000  0.4414030000000 1.0
C      1  0.3537450000000  0.4886060000000  0.3454430000000 1.0
C      1  0.3537450000000  0.3494860000000  0.4630750000000 1.0
C      1  0.3537450000000  0.4183700000000  0.6317360000000 1.0
C      1  0.6878400000000  0.4891120000000  0.6378330000000 1.0
C      1  0.6878410000000  0.3655490000000  0.5322370000000 1.0
C      1  0.6878410000000  0.4277930000000  0.3820910000000 1.0
C      1  0.6878400000000  0.5898260000000  0.3948910000000 1.0
C      1  0.6878400000000  0.6277230000000  0.5529480000000 1.0
C      1  0.3121600000000  0.5108880000000  0.6378330000000 1.0
C      1  0.3121590000000  0.6344510000000  0.5322370000000 1.0
C      1  0.3121590000000  0.5722070000000  0.3820910000000 1.0
C      1  0.3121600000000  0.4101740000000  0.3948910000000 1.0
C      1  0.3121600000000  0.3722770000000  0.5529480000000 1.0
C      1  0.4594460000000  0.4198380000000  0.6658910000000 1.0
C      1  0.4594470000000  0.3174570000000  0.4750240000000 1.0
C      1  0.4594460000000  0.4673440000000  0.3186730000000 1.0
C      1  0.4594450000000  0.6623610000000  0.4129090000000 1.0
C      1  0.4594450000000  0.6330000000000  0.6275020000000 1.0
C      1  0.5405540000000  0.5801620000000  0.6658910000000 1.0
C      1  0.5405530000000  0.6825430000000  0.4750240000000 1.0
C      1  0.5405540000000  0.5326560000000  0.3186730000000 1.0
C      1  0.5405550000000  0.3376390000000  0.4129090000000 1.0
C      1  0.5405550000000  0.3670000000000  0.6275020000000 1.0
C      1  0.2275080000000  0.5442150000000  0.4279050000000 1.0
C      1  0.2275080000000  0.5822290000000  0.5197730000000 1.0
C      1  0.2275080000000  0.5066050000000  0.5843160000000 1.0
C      1  0.2275080000000  0.4218520000000  0.5323370000000 1.0
C      1  0.2275080000000  0.4450960000000  0.4356700000000 1.0
C      1  0.7724920000000  0.4557850000000  0.4279050000000 1.0
C      1  0.7724920000000  0.4177710000000  0.5197730000000 1.0
C      1  0.7724920000000  0.4933950000000  0.5843160000000 1.0
C      1  0.7724920000000  0.5781480000000  0.5323370000000 1.0
C      1  0.7724920000000  0.5549040000000  0.4356700000000 1.0
C      1  0.4439260000000  0.4412500000000  0.4287440000000 1.0
C      1  0.4439250000000  0.5496140000000  0.4221050000000 1.0
C      1  0.4439250000000  0.5894140000000  0.5231150000000 1.0
C      1  0.4439260000000  0.5056470000000  0.5921800000000 1.0
C      1  0.4439270000000  0.4140770000000  0.5338560000000 1.0
C      1  0.5560740000000  0.5587500000000  0.4287440000000 1.0
C      1  0.5560750000000  0.4503860000000  0.4221050000000 1.0
C      1  0.5560750000000  0.4105860000000  0.5231150000000 1.0
C      1  0.5560740000000  0.4943530000000  0.5921800000000 1.0
C      1  0.5560730000000  0.5859230000000  0.5338560000000 1.0
END
