TITL C-986974-580-835 -5.92274394842879e-06 3375 -345.910130498844 0 0 60 (C1) n - 1
REM
REM in /home/bkarasulu/work/CARBON/AIRSS/Generating-Clusters/REBO/Higher-Symm/Only-C60
REM
REM
REM
REM
REM
REM ./C.cell (a2850807a9bf4ad07a5b6933b78d9264)
REM AIRSS Version 0.9.1 bugfix July 2018 build 013d7b7c2542+ Fri, 06 Jul 2018 19:26:36 +0100
REM compiler GCC version 9.2.1 20190827 (Red Hat 9.2.1-1)
REM options -cpp -mtune=generic -march=x86-64 -g -O0 -fpre-include=/usr/include/finclude/math-vector-fortran.h
REM seed 1699416748 -1906221227 -1398648755 1119165943 -1003532768 -191234044 -1351870656 266569243 -916296010 -1149355265 1786188501 -441448012 -9988595 -1435811399 1884590849 -641585420 572994672 -648944700 2038069757 1790231177 -366694310 -1498303537 -184373050 1277847124 801669792 275458684 -614996266 2095912653 847153928 -1648310588 -733434594 1113395697 -1135935556
REM
CELL 1.54180   15.00000   15.00000   15.00000   90.00000   90.00000   90.00000
LATT -1
SFAC C  
C      1  0.5313090000000  0.4853110000000  0.4449440000000 1.0
C      1  0.5186460000000  0.4963850000000  0.5514210000000 1.0
C      1  0.3906070000000  0.3505860000000  0.3822280000000 1.0
C      1  0.3920500000000  0.3690210000000  0.6187060000000 1.0
C      1  0.5149900000000  0.2533800000000  0.4453970000000 1.0
C      1  0.5054490000000  0.2708220000000  0.5433720000000 1.0
C      1  0.4876720000000  0.6797650000000  0.7297330000000 1.0
C      1  0.4628030000000  0.6535370000000  0.2930760000000 1.0
C      1  0.4186520000000  0.5500570000000  0.6651490000000 1.0
C      1  0.4346650000000  0.5064730000000  0.3562590000000 1.0
C      1  0.6229310000000  0.2306280000000  0.4252570000000 1.0
C      1  0.6181300000000  0.2642490000000  0.5285130000000 1.0
C      1  0.3061730000000  0.5973390000000  0.5429830000000 1.0
C      1  0.3331830000000  0.5982630000000  0.4375310000000 1.0
C      1  0.3943410000000  0.6304940000000  0.5885180000000 1.0
C      1  0.4266790000000  0.6321580000000  0.4307870000000 1.0
C      1  0.5692040000000  0.4621470000000  0.6313140000000 1.0
C      1  0.5732780000000  0.4514420000000  0.3616900000000 1.0
C      1  0.4940130000000  0.5889040000000  0.7202640000000 1.0
C      1  0.4891430000000  0.5629080000000  0.3014420000000 1.0
C      1  0.4085470000000  0.5014760000000  0.5625490000000 1.0
C      1  0.4213650000000  0.5017110000000  0.4611410000000 1.0
C      1  0.3215950000000  0.3520630000000  0.5483280000000 1.0
C      1  0.3231040000000  0.3469780000000  0.4574710000000 1.0
C      1  0.4523050000000  0.7235410000000  0.5596220000000 1.0
C      1  0.4841750000000  0.7276870000000  0.4511650000000 1.0
C      1  0.5811340000000  0.6376690000000  0.6323340000000 1.0
C      1  0.5982860000000  0.6339130000000  0.3810410000000 1.0
C      1  0.6819890000000  0.6381750000000  0.4501300000000 1.0
C      1  0.6598400000000  0.6575080000000  0.5582050000000 1.0
C      1  0.5960310000000  0.7139520000000  0.4560800000000 1.0
C      1  0.5614610000000  0.7166930000000  0.5587530000000 1.0
C      1  0.6773030000000  0.4851050000000  0.3604560000000 1.0
C      1  0.6719070000000  0.4984300000000  0.6341480000000 1.0
C      1  0.4994360000000  0.5996280000000  0.5724190000000 1.0
C      1  0.5145580000000  0.5898760000000  0.4291960000000 1.0
C      1  0.2733670000000  0.4275330000000  0.6069570000000 1.0
C      1  0.2805600000000  0.4238540000000  0.3967010000000 1.0
C      1  0.5532430000000  0.3585280000000  0.3367570000000 1.0
C      1  0.5554540000000  0.3671550000000  0.6509400000000 1.0
C      1  0.2894140000000  0.5368990000000  0.6380750000000 1.0
C      1  0.3039780000000  0.5279430000000  0.3531340000000 1.0
C      1  0.2523530000000  0.5179420000000  0.4510700000000 1.0
C      1  0.2283260000000  0.5123300000000  0.5485370000000 1.0
C      1  0.7226870000000  0.4503020000000  0.5482530000000 1.0
C      1  0.7262640000000  0.4233980000000  0.4383350000000 1.0
C      1  0.6949660000000  0.3478770000000  0.5427500000000 1.0
C      1  0.6943080000000  0.3197360000000  0.4342210000000 1.0
C      1  0.4581140000000  0.7284380000000  0.3448720000000 1.0
C      1  0.4654970000000  0.7421150000000  0.6669630000000 1.0
C      1  0.3600080000000  0.4565230000000  0.6761630000000 1.0
C      1  0.3639360000000  0.4369520000000  0.3201590000000 1.0
C      1  0.4783610000000  0.3167310000000  0.3820660000000 1.0
C      1  0.4764460000000  0.3297430000000  0.6116740000000 1.0
C      1  0.6320560000000  0.3146610000000  0.6273740000000 1.0
C      1  0.6316290000000  0.3032680000000  0.3429370000000 1.0
C      1  0.5902390000000  0.5497800000000  0.6936700000000 1.0
C      1  0.5962540000000  0.5494290000000  0.3140150000000 1.0
C      1  0.7236400000000  0.5371290000000  0.4473600000000 1.0
C      1  0.7119430000000  0.5634590000000  0.5553930000000 1.0
END
