TITL C-986978-6805-272 -0.0031701759060224 3375 -348.494104945969 0 0 60 (C1) n - 1
REM
REM in /home/bkarasulu/work/CARBON/AIRSS/Generating-Clusters/REBO/Higher-Symm/Only-C60
REM
REM
REM
REM
REM
REM ./C.cell (a2850807a9bf4ad07a5b6933b78d9264)
REM AIRSS Version 0.9.1 bugfix July 2018 build 013d7b7c2542+ Fri, 06 Jul 2018 19:26:36 +0100
REM compiler GCC version 9.2.1 20190827 (Red Hat 9.2.1-1)
REM options -cpp -mtune=generic -march=x86-64 -g -O0 -fpre-include=/usr/include/finclude/math-vector-fortran.h
REM seed -953943010 -728681550 52641991 1076851867 -134313059 -1466119427 -1572716849 948488857 -1497116662 69072453 -136983142 148426124 -929237965 590098670 1232806204 942890544 37105457 -1646428185 -81943202 244085348 877531558 175495762 -1652295077 1784830534 723811889 -219197637 294433276 1841027781 1089183421 2083393294 2032513989 436970855 -1214564760
REM
CELL 1.54180   15.00000   15.00000   15.00000   90.00000   90.00000   90.00000
LATT -1
SFAC C  
C      1  0.6307760000000  0.4444080000000  0.7088150000000 1.0
C      1  0.6330530000000  0.3417500000000  0.3499450000000 1.0
C      1  0.6240560000000  0.7020120000000  0.4408520000000 1.0
C      1  0.6299310000000  0.4419610000000  0.2969070000000 1.0
C      1  0.6285520000000  0.3482480000000  0.6486420000000 1.0
C      1  0.6249560000000  0.6968660000000  0.5540900000000 1.0
C      1  0.6294350000000  0.4245510000000  0.4512090000000 1.0
C      1  0.5908460000000  0.5766200000000  0.4617130000000 1.0
C      1  0.6026900000000  0.4916590000000  0.5896540000000 1.0
C      1  0.6012670000000  0.4194900000000  0.5405720000000 1.0
C      1  0.5824860000000  0.5715170000000  0.5482910000000 1.0
C      1  0.6279580000000  0.5046640000000  0.4136470000000 1.0
C      1  0.3035680000000  0.4177580000000  0.4517830000000 1.0
C      1  0.2896940000000  0.5866450000000  0.4492110000000 1.0
C      1  0.2955700000000  0.5032370000000  0.5983120000000 1.0
C      1  0.2962300000000  0.4180370000000  0.5493160000000 1.0
C      1  0.2853750000000  0.5881870000000  0.5487940000000 1.0
C      1  0.3022640000000  0.5014770000000  0.4019550000000 1.0
C      1  0.4437420000000  0.5035700000000  0.4001080000000 1.0
C      1  0.4180890000000  0.5918150000000  0.5495830000000 1.0
C      1  0.4291030000000  0.4206520000000  0.5537340000000 1.0
C      1  0.4296520000000  0.5051240000000  0.6043610000000 1.0
C      1  0.4225400000000  0.5914060000000  0.4527260000000 1.0
C      1  0.4445470000000  0.4163610000000  0.4508480000000 1.0
C      1  0.3579360000000  0.3497670000000  0.5979260000000 1.0
C      1  0.3680500000000  0.4965370000000  0.3220350000000 1.0
C      1  0.3477810000000  0.6669600000000  0.5847040000000 1.0
C      1  0.3685460000000  0.3508420000000  0.4080620000000 1.0
C      1  0.3574410000000  0.4978340000000  0.6845540000000 1.0
C      1  0.3516910000000  0.6645150000000  0.4139410000000 1.0
C      1  0.5232180000000  0.6682160000000  0.2880630000000 1.0
C      1  0.5327650000000  0.5980020000000  0.7558050000000 1.0
C      1  0.5249240000000  0.2339340000000  0.4582240000000 1.0
C      1  0.5317510000000  0.6698000000000  0.7134490000000 1.0
C      1  0.5266170000000  0.5974930000000  0.2449580000000 1.0
C      1  0.5245330000000  0.2323140000000  0.5409950000000 1.0
C      1  0.6635260000000  0.3033100000000  0.5501740000000 1.0
C      1  0.6552850000000  0.5528120000000  0.2953020000000 1.0
C      1  0.6721310000000  0.6261870000000  0.6292270000000 1.0
C      1  0.6627870000000  0.2973000000000  0.4504030000000 1.0
C      1  0.6757220000000  0.5459410000000  0.6851820000000 1.0
C      1  0.6531130000000  0.6305440000000  0.3574710000000 1.0
C      1  0.5168550000000  0.3646920000000  0.5497880000000 1.0
C      1  0.5386560000000  0.5212160000000  0.3531380000000 1.0
C      1  0.5058730000000  0.6138540000000  0.5958630000000 1.0
C      1  0.5367980000000  0.3650290000000  0.4383880000000 1.0
C      1  0.5221000000000  0.5153110000000  0.6523560000000 1.0
C      1  0.5133960000000  0.6162770000000  0.4101270000000 1.0
C      1  0.4324190000000  0.7239510000000  0.5483630000000 1.0
C      1  0.4369050000000  0.3516500000000  0.6672490000000 1.0
C      1  0.4426570000000  0.4332680000000  0.2869730000000 1.0
C      1  0.4321010000000  0.7240380000000  0.4513320000000 1.0
C      1  0.4424270000000  0.3504970000000  0.3351070000000 1.0
C      1  0.4375670000000  0.4343340000000  0.7167340000000 1.0
C      1  0.5336550000000  0.4846320000000  0.2539830000000 1.0
C      1  0.5275750000000  0.7162120000000  0.6096820000000 1.0
C      1  0.5274830000000  0.2987270000000  0.6328570000000 1.0
C      1  0.5331580000000  0.4843790000000  0.7516600000000 1.0
C      1  0.5244610000000  0.7196660000000  0.3891030000000 1.0
C      1  0.5317170000000  0.2919440000000  0.3617540000000 1.0
END
