TITL C-986976-6631-804 -9.5189684502985e-06 3375 -358.296410319791 0 0 60 (C1) n - 1
REM
REM in /home/bkarasulu/work/CARBON/AIRSS/Generating-Clusters/REBO/Higher-Symm/Only-C60
REM
REM
REM
REM
REM
REM ./C.cell (a2850807a9bf4ad07a5b6933b78d9264)
REM AIRSS Version 0.9.1 bugfix July 2018 build 013d7b7c2542+ Fri, 06 Jul 2018 19:26:36 +0100
REM compiler GCC version 9.2.1 20190827 (Red Hat 9.2.1-1)
REM options -cpp -mtune=generic -march=x86-64 -g -O0 -fpre-include=/usr/include/finclude/math-vector-fortran.h
REM seed 1434690963 -689988686 -1348324912 696769202 469741747 1382364177 988472352 194363812 -1799113333 943367539 -981441887 1937724896 999464516 211236895 2020766709 1012553282 -1515677585 -13566823 -871653780 2126812600 -145775131 -694339435 -1580034949 -821569279 -1060866654 -367612958 2138385481 2072563164 1070591663 1534969303 1810811181 -486798049 422443785
REM
CELL 1.54180   15.00000   15.00000   15.00000   90.00000   90.00000   90.00000
LATT -1
SFAC C  
C      1  0.5442330000000  0.6431530000000  0.5086740000000 1.0
C      1  0.6496790000000  0.4877390000000  0.5095460000000 1.0
C      1  0.5453390000000  0.3389580000000  0.5124000000000 1.0
C      1  0.3889420000000  0.4168500000000  0.5182510000000 1.0
C      1  0.3826970000000  0.5774280000000  0.5092460000000 1.0
C      1  0.4514430000000  0.6467930000000  0.5077590000000 1.0
C      1  0.3429060000000  0.4975020000000  0.5115690000000 1.0
C      1  0.4560010000000  0.3640230000000  0.5185420000000 1.0
C      1  0.6091880000000  0.4006580000000  0.5110440000000 1.0
C      1  0.6086600000000  0.5681890000000  0.5097260000000 1.0
C      1  0.7024130000000  0.3826500000000  0.5723070000000 1.0
C      1  0.4564370000000  0.2631340000000  0.5765460000000 1.0
C      1  0.2467900000000  0.4903120000000  0.5727990000000 1.0
C      1  0.4115540000000  0.7349110000000  0.5700080000000 1.0
C      1  0.6591690000000  0.6492120000000  0.5755560000000 1.0
C      1  0.2942580000000  0.3875410000000  0.5790330000000 1.0
C      1  0.5682090000000  0.2444620000000  0.5710190000000 1.0
C      1  0.7454400000000  0.4845880000000  0.5726230000000 1.0
C      1  0.5869810000000  0.7288430000000  0.5724520000000 1.0
C      1  0.3345960000000  0.6579010000000  0.5709340000000 1.0
C      1  0.2487790000000  0.5068770000000  0.4067670000000 1.0
C      1  0.4212260000000  0.7444310000000  0.4012850000000 1.0
C      1  0.6885000000000  0.6542310000000  0.4098840000000 1.0
C      1  0.7103230000000  0.3572700000000  0.4060180000000 1.0
C      1  0.4254240000000  0.2638320000000  0.4120910000000 1.0
C      1  0.7518960000000  0.5066150000000  0.4062080000000 1.0
C      1  0.5824150000000  0.7395270000000  0.4033270000000 1.0
C      1  0.3024530000000  0.6563350000000  0.4050020000000 1.0
C      1  0.3000380000000  0.3582900000000  0.4140940000000 1.0
C      1  0.5851000000000  0.2597480000000  0.4049540000000 1.0
C      1  0.2239260000000  0.5517360000000  0.4892950000000 1.0
C      1  0.4547930000000  0.7777850000000  0.4844120000000 1.0
C      1  0.7248030000000  0.6318620000000  0.4949850000000 1.0
C      1  0.7057120000000  0.3115080000000  0.4905170000000 1.0
C      1  0.3822120000000  0.2555290000000  0.4982640000000 1.0
C      1  0.7670430000000  0.5476930000000  0.4916970000000 1.0
C      1  0.5488740000000  0.7742470000000  0.4857560000000 1.0
C      1  0.2652680000000  0.6375610000000  0.4910820000000 1.0
C      1  0.3063100000000  0.3144230000000  0.4998710000000 1.0
C      1  0.6360300000000  0.2456830000000  0.4869100000000 1.0
C      1  0.5436820000000  0.6489470000000  0.6414450000000 1.0
C      1  0.6556360000000  0.4871570000000  0.6423740000000 1.0
C      1  0.5497190000000  0.3289210000000  0.6449590000000 1.0
C      1  0.3789790000000  0.4046050000000  0.6506020000000 1.0
C      1  0.3756590000000  0.5799790000000  0.6423350000000 1.0
C      1  0.4480740000000  0.6530730000000  0.6404660000000 1.0
C      1  0.3349910000000  0.4963180000000  0.6443120000000 1.0
C      1  0.4500630000000  0.3479250000000  0.6507000000000 1.0
C      1  0.6161220000000  0.3933210000000  0.6440670000000 1.0
C      1  0.6142020000000  0.5710610000000  0.6428270000000 1.0
C      1  0.3756310000000  0.4121960000000  0.3785610000000 1.0
C      1  0.3743420000000  0.5975730000000  0.3702890000000 1.0
C      1  0.5477760000000  0.6545830000000  0.3670830000000 1.0
C      1  0.6598320000000  0.5014700000000  0.3704670000000 1.0
C      1  0.5538300000000  0.3496470000000  0.3753650000000 1.0
C      1  0.6325050000000  0.4085400000000  0.3728930000000 1.0
C      1  0.6227120000000  0.5908820000000  0.3683390000000 1.0
C      1  0.4512830000000  0.6566560000000  0.3674260000000 1.0
C      1  0.3431260000000  0.5047590000000  0.3745950000000 1.0
C      1  0.4557760000000  0.3523560000000  0.3784400000000 1.0
END
