TITL C-986979-5873-343 0.0035708125025898 3375 -350.955768386596 0 0 60 (C1) n - 1
REM
REM in /home/bkarasulu/work/CARBON/AIRSS/Generating-Clusters/REBO/Higher-Symm/Only-C60
REM
REM
REM
REM
REM
REM ./C.cell (a2850807a9bf4ad07a5b6933b78d9264)
REM AIRSS Version 0.9.1 bugfix July 2018 build 013d7b7c2542+ Fri, 06 Jul 2018 19:26:36 +0100
REM compiler GCC version 9.2.1 20190827 (Red Hat 9.2.1-1)
REM options -cpp -mtune=generic -march=x86-64 -g -O0 -fpre-include=/usr/include/finclude/math-vector-fortran.h
REM seed 345835639 -837180785 -1811492176 -1664559008 -1576494687 -863280189 1393485697 197449105 39299592 1369818049 -621168186 -921097342 351927835 -391479631 -568016456 1732009032 -1236755023 -311433858 -786119186 -958209075 -1130699005 711481400 922455231 918098905 387838737 1860011459 959771628 645484895 1220041613 358074767 -935694634 -2084704785 -1176185093
REM
CELL 1.54180   15.00000   15.00000   15.00000   90.00000   90.00000   90.00000
LATT -1
SFAC C  
C      1  0.4904410000000  0.2926870000000  0.4289420000000 1.0
C      1  0.4424570000000  0.2911860000000  0.5451210000000 1.0
C      1  0.5670310000000  0.2912600000000  0.5286110000000 1.0
C      1  0.4895630000000  0.6235260000000  0.2733260000000 1.0
C      1  0.3081050000000  0.6231250000000  0.6226170000000 1.0
C      1  0.7022080000000  0.6224800000000  0.6041800000000 1.0
C      1  0.6510900000000  0.5868330000000  0.3036270000000 1.0
C      1  0.2569480000000  0.5826070000000  0.4672330000000 1.0
C      1  0.5941090000000  0.5827460000000  0.7266210000000 1.0
C      1  0.6639490000000  0.4931810000000  0.3303320000000 1.0
C      1  0.2674080000000  0.4878600000000  0.4437340000000 1.0
C      1  0.5679740000000  0.4880570000000  0.7301320000000 1.0
C      1  0.2355590000000  0.4302870000000  0.5287630000000 1.0
C      1  0.6567860000000  0.4300290000000  0.7128930000000 1.0
C      1  0.6064880000000  0.4327650000000  0.2626450000000 1.0
C      1  0.4402250000000  0.3247880000000  0.6732690000000 1.0
C      1  0.6781190000000  0.3268120000000  0.4657200000000 1.0
C      1  0.3804110000000  0.3251420000000  0.3626870000000 1.0
C      1  0.3771950000000  0.4815080000000  0.6529510000000 1.0
C      1  0.6890070000000  0.4851960000000  0.5235020000000 1.0
C      1  0.4283890000000  0.4824170000000  0.3180160000000 1.0
C      1  0.5244260000000  0.3436660000000  0.6110960000000 1.0
C      1  0.5821170000000  0.3466740000000  0.4260350000000 1.0
C      1  0.3917100000000  0.3437270000000  0.4670690000000 1.0
C      1  0.5803120000000  0.4290620000000  0.3725680000000 1.0
C      1  0.3438890000000  0.4237550000000  0.4976920000000 1.0
C      1  0.5739550000000  0.4247670000000  0.6362000000000 1.0
C      1  0.4926890000000  0.5511370000000  0.5617400000000 1.0
C      1  0.5777080000000  0.5384250000000  0.4614020000000 1.0
C      1  0.4458610000000  0.5488570000000  0.4647550000000 1.0
C      1  0.7427790000000  0.5585230000000  0.5470310000000 1.0
C      1  0.4202810000000  0.5589150000000  0.2640470000000 1.0
C      1  0.3357160000000  0.5586500000000  0.6869580000000 1.0
C      1  0.3095670000000  0.6517760000000  0.4311700000000 1.0
C      1  0.5366660000000  0.6516460000000  0.6983590000000 1.0
C      1  0.6563940000000  0.6571650000000  0.3662630000000 1.0
C      1  0.4029480000000  0.4875310000000  0.5513660000000 1.0
C      1  0.5855030000000  0.4894810000000  0.5593730000000 1.0
C      1  0.4987470000000  0.4917470000000  0.3940080000000 1.0
C      1  0.3898510000000  0.2500190000000  0.6299110000000 1.0
C      1  0.6673840000000  0.2517030000000  0.5305770000000 1.0
C      1  0.4441650000000  0.2511440000000  0.3408060000000 1.0
C      1  0.3723610000000  0.7037700000000  0.4985830000000 1.0
C      1  0.5623800000000  0.7023710000000  0.6088930000000 1.0
C      1  0.5648710000000  0.7028900000000  0.3919970000000 1.0
C      1  0.4187990000000  0.6374610000000  0.4231010000000 1.0
C      1  0.4726010000000  0.6383970000000  0.6095200000000 1.0
C      1  0.6137980000000  0.6360950000000  0.4658390000000 1.0
C      1  0.5745240000000  0.5885970000000  0.2402050000000 1.0
C      1  0.2383420000000  0.5870010000000  0.5647740000000 1.0
C      1  0.6877250000000  0.5863830000000  0.6934190000000 1.0
C      1  0.6347370000000  0.6716240000000  0.5582200000000 1.0
C      1  0.4845000000000  0.6724220000000  0.3554120000000 1.0
C      1  0.3808370000000  0.6741660000000  0.5871730000000 1.0
C      1  0.3802730000000  0.4030130000000  0.3110400000000 1.0
C      1  0.3954700000000  0.4026710000000  0.6990160000000 1.0
C      1  0.7227160000000  0.4056040000000  0.4883240000000 1.0
C      1  0.5689970000000  0.4984350000000  0.2013540000000 1.0
C      1  0.2042970000000  0.4986050000000  0.5907500000000 1.0
C      1  0.7266450000000  0.4976350000000  0.7090340000000 1.0
END
