TITL C-986974-580-128 6.09599472748499e-06 3375 -346.650406849331 0 0 60 (C1) n - 1
REM
REM in /home/bkarasulu/work/CARBON/AIRSS/Generating-Clusters/REBO/Higher-Symm/Only-C60
REM
REM
REM
REM
REM
REM ./C.cell (a2850807a9bf4ad07a5b6933b78d9264)
REM AIRSS Version 0.9.1 bugfix July 2018 build 013d7b7c2542+ Fri, 06 Jul 2018 19:26:36 +0100
REM compiler GCC version 9.2.1 20190827 (Red Hat 9.2.1-1)
REM options -cpp -mtune=generic -march=x86-64 -g -O0 -fpre-include=/usr/include/finclude/math-vector-fortran.h
REM seed -1567133008 -559855319 1247732186 1466310625 46373675 -1387159675 1973922871 1587765234 581083597 2083250800 1965194855 -1305399981 142223701 360828388 -1652303861 351395300 -1812085836 1202316563 -745597725 -1808452781 1767164408 677562702 452623624 -37820392 1783643439 -598643010 1523359069 -28410119 -427560971 -464704346 -794539558 -1527386621 -1395593554
REM
CELL 1.54180   15.00000   15.00000   15.00000   90.00000   90.00000   90.00000
LATT -1
SFAC C  
C      1  0.4148910000000  0.3448700000000  0.3937610000000 1.0
C      1  0.5670120000000  0.3408750000000  0.3923710000000 1.0
C      1  0.6697150000000  0.4480170000000  0.3921600000000 1.0
C      1  0.6559690000000  0.6034390000000  0.3906640000000 1.0
C      1  0.5162880000000  0.6855090000000  0.3860140000000 1.0
C      1  0.3646890000000  0.6271240000000  0.3867370000000 1.0
C      1  0.3168200000000  0.4706660000000  0.3925540000000 1.0
C      1  0.5227680000000  0.2937910000000  0.5536550000000 1.0
C      1  0.6726590000000  0.3891760000000  0.5548040000000 1.0
C      1  0.6964360000000  0.5599720000000  0.5522270000000 1.0
C      1  0.5603940000000  0.6909720000000  0.5529770000000 1.0
C      1  0.3934110000000  0.6745980000000  0.5509990000000 1.0
C      1  0.2917840000000  0.5375450000000  0.5493720000000 1.0
C      1  0.3616300000000  0.3485090000000  0.5581610000000 1.0
C      1  0.4537300000000  0.6899120000000  0.6326910000000 1.0
C      1  0.3236170000000  0.5905560000000  0.6315320000000 1.0
C      1  0.3226780000000  0.4049380000000  0.6283000000000 1.0
C      1  0.4609370000000  0.3055480000000  0.6359490000000 1.0
C      1  0.6245090000000  0.3485120000000  0.6363340000000 1.0
C      1  0.6950760000000  0.4979830000000  0.6336150000000 1.0
C      1  0.6183390000000  0.6553150000000  0.6248860000000 1.0
C      1  0.3881850000000  0.2813870000000  0.4685090000000 1.0
C      1  0.5964500000000  0.2751920000000  0.4665600000000 1.0
C      1  0.7360270000000  0.4306670000000  0.4679590000000 1.0
C      1  0.7067550000000  0.6390140000000  0.4707570000000 1.0
C      1  0.5145950000000  0.7488020000000  0.4657210000000 1.0
C      1  0.3183480000000  0.6733100000000  0.4649150000000 1.0
C      1  0.2524680000000  0.4641890000000  0.4720680000000 1.0
C      1  0.4743340000000  0.3891340000000  0.6824730000000 1.0
C      1  0.5696510000000  0.4122190000000  0.6838940000000 1.0
C      1  0.6121940000000  0.5002510000000  0.6815130000000 1.0
C      1  0.5705210000000  0.5886550000000  0.6781130000000 1.0
C      1  0.4747800000000  0.6090690000000  0.6803690000000 1.0
C      1  0.3968210000000  0.5489190000000  0.6788390000000 1.0
C      1  0.3956500000000  0.4493140000000  0.6785360000000 1.0
C      1  0.3747430000000  0.5139220000000  0.4811710000000 1.0
C      1  0.4114000000000  0.4105480000000  0.4857900000000 1.0
C      1  0.5122950000000  0.3751160000000  0.4858080000000 1.0
C      1  0.6045220000000  0.4310550000000  0.4831850000000 1.0
C      1  0.6182450000000  0.5407090000000  0.4784970000000 1.0
C      1  0.5390160000000  0.6188510000000  0.4754280000000 1.0
C      1  0.4315050000000  0.6052640000000  0.4764270000000 1.0
C      1  0.4843930000000  0.7701620000000  0.5690050000000 1.0
C      1  0.2842500000000  0.6687690000000  0.5693190000000 1.0
C      1  0.2473160000000  0.4461920000000  0.5830600000000 1.0
C      1  0.4001170000000  0.2455300000000  0.5712930000000 1.0
C      1  0.6278950000000  0.2648740000000  0.5713670000000 1.0
C      1  0.7653750000000  0.4477370000000  0.5717120000000 1.0
C      1  0.7085090000000  0.6651830000000  0.5786550000000 1.0
C      1  0.5144460000000  0.6205800000000  0.3038070000000 1.0
C      1  0.4090960000000  0.5779800000000  0.3056520000000 1.0
C      1  0.3751190000000  0.4750100000000  0.3165450000000 1.0
C      1  0.4419850000000  0.4039690000000  0.3208530000000 1.0
C      1  0.5413990000000  0.4030990000000  0.3201540000000 1.0
C      1  0.6117160000000  0.4735890000000  0.3177970000000 1.0
C      1  0.6100180000000  0.5707490000000  0.3135520000000 1.0
C      1  0.4993740000000  0.4983750000000  0.6109130000000 1.0
C      1  0.4998400000000  0.5017600000000  0.5251590000000 1.0
C      1  0.4931370000000  0.5226350000000  0.3535290000000 1.0
C      1  0.4992780000000  0.4978130000000  0.4364380000000 1.0
END
