TITL C-986976-6631-697 -1.54901647499966e-05 3375 -360.023420158491 0 0 60 (S10) n - 1
REM
REM in /home/bkarasulu/work/CARBON/AIRSS/Generating-Clusters/REBO/Higher-Symm/Only-C60
REM
REM
REM
REM
REM
REM ./C.cell (a2850807a9bf4ad07a5b6933b78d9264)
REM AIRSS Version 0.9.1 bugfix July 2018 build 013d7b7c2542+ Fri, 06 Jul 2018 19:26:36 +0100
REM compiler GCC version 9.2.1 20190827 (Red Hat 9.2.1-1)
REM options -cpp -mtune=generic -march=x86-64 -g -O0 -fpre-include=/usr/include/finclude/math-vector-fortran.h
REM seed 294231399 1181795618 -1549420337 -1045015157 1945725531 -1294117748 -632774762 689123976 -1381476311 945755480 -537775588 -1212492880 -1415750316 -521317416 -497753756 410695336 -555938522 1903604057 1917904296 -2112939148 1033554865 960562994 65060036 943022163 -538706184 -1233554906 1302979904 -2026264947 1719111196 -1777365753 2036967293 1525238583 906380219
REM
CELL 1.54180   15.00000   15.00000   15.00000   90.00000   90.00000   90.00000
LATT -1
SFAC C  
C      1  0.3150770000000  0.4431030000000  0.5621610000000 1.0
C      1  0.6849240000000  0.4174320000000  0.5168490000000 1.0
C      1  0.3150770000000  0.4232970000000  0.4650960000000 1.0
C      1  0.6849240000000  0.4584620000000  0.4266800000000 1.0
C      1  0.3150770000000  0.5094910000000  0.4162650000000 1.0
C      1  0.6849240000000  0.5568970000000  0.4378390000000 1.0
C      1  0.3150760000000  0.5825680000000  0.4831510000000 1.0
C      1  0.6849230000000  0.5767030000000  0.5349040000000 1.0
C      1  0.3150760000000  0.5415380000000  0.5733200000000 1.0
C      1  0.6849230000000  0.4905090000000  0.5837350000000 1.0
C      1  0.5741350000000  0.5866540000000  0.6607370000000 1.0
C      1  0.4258620000000  0.4756250000000  0.6809720000000 1.0
C      1  0.5741370000000  0.3739080000000  0.6320830000000 1.0
C      1  0.4258640000000  0.3203520000000  0.5327420000000 1.0
C      1  0.5741370000000  0.3354170000000  0.4208950000000 1.0
C      1  0.4258650000000  0.4133460000000  0.3392630000000 1.0
C      1  0.5741380000000  0.5243750000000  0.3190280000000 1.0
C      1  0.4258640000000  0.6260920000000  0.3679170000000 1.0
C      1  0.5741360000000  0.6796480000000  0.4672580000000 1.0
C      1  0.4258630000000  0.6645830000000  0.5791050000000 1.0
C      1  0.4563950000000  0.2600820000000  0.4458250000000 1.0
C      1  0.5436080000000  0.3377460000000  0.3151520000000 1.0
C      1  0.4563970000000  0.4773850000000  0.2550850000000 1.0
C      1  0.5436070000000  0.6256620000000  0.2885660000000 1.0
C      1  0.4563950000000  0.7259390000000  0.4028080000000 1.0
C      1  0.5436050000000  0.7399180000000  0.5541750000000 1.0
C      1  0.4563920000000  0.6622540000000  0.6848480000000 1.0
C      1  0.5436030000000  0.5226150000000  0.7449150000000 1.0
C      1  0.4563920000000  0.3743380000000  0.7114340000000 1.0
C      1  0.5436040000000  0.2740610000000  0.5971920000000 1.0
C      1  0.5560420000000  0.6881290000000  0.6499640000000 1.0
C      1  0.4439540000000  0.5640530000000  0.7319020000000 1.0
C      1  0.5560410000000  0.4155120000000  0.7252620000000 1.0
C      1  0.4439550000000  0.2992410000000  0.6325800000000 1.0
C      1  0.5560430000000  0.2596550000000  0.4892570000000 1.0
C      1  0.4439580000000  0.3118710000000  0.3500360000000 1.0
C      1  0.5560460000000  0.4359470000000  0.2680980000000 1.0
C      1  0.4439590000000  0.5844880000000  0.2747380000000 1.0
C      1  0.5560450000000  0.7007590000000  0.3674200000000 1.0
C      1  0.4439570000000  0.7403450000000  0.5107430000000 1.0
C      1  0.3719460000000  0.5923350000000  0.6467840000000 1.0
C      1  0.6280510000000  0.4884230000000  0.6730260000000 1.0
C      1  0.3719460000000  0.3889310000000  0.6331740000000 1.0
C      1  0.6280530000000  0.3318660000000  0.5424580000000 1.0
C      1  0.3719480000000  0.3390200000000  0.4355210000000 1.0
C      1  0.6280540000000  0.4076650000000  0.3532160000000 1.0
C      1  0.3719490000000  0.5115770000000  0.3269740000000 1.0
C      1  0.6280540000000  0.6110690000000  0.3668260000000 1.0
C      1  0.3719470000000  0.6681340000000  0.4575420000000 1.0
C      1  0.6280520000000  0.6609800000000  0.5644790000000 1.0
C      1  0.4381440000000  0.4910680000000  0.5792020000000 1.0
C      1  0.5618560000000  0.4462210000000  0.5588270000000 1.0
C      1  0.4381450000000  0.4219130000000  0.5159800000000 1.0
C      1  0.5618560000000  0.4274340000000  0.4670310000000 1.0
C      1  0.4381450000000  0.4606710000000  0.4306740000000 1.0
C      1  0.5618560000000  0.5089320000000  0.4207980000000 1.0
C      1  0.4381440000000  0.5537790000000  0.4411730000000 1.0
C      1  0.5618560000000  0.5780870000000  0.4840200000000 1.0
C      1  0.4381440000000  0.5725660000000  0.5329690000000 1.0
C      1  0.5618550000000  0.5393290000000  0.5693260000000 1.0
END
