TITL C-986975-4297-436 -1.18102264888021e-06 3375 -352.139996783744 0 0 60 (D2) n - 1
REM
REM in /home/bkarasulu/work/CARBON/AIRSS/Generating-Clusters/REBO/Higher-Symm/Only-C60
REM
REM
REM
REM
REM
REM ./C.cell (a2850807a9bf4ad07a5b6933b78d9264)
REM AIRSS Version 0.9.1 bugfix July 2018 build 013d7b7c2542+ Fri, 06 Jul 2018 19:26:36 +0100
REM compiler GCC version 9.2.1 20190827 (Red Hat 9.2.1-1)
REM options -cpp -mtune=generic -march=x86-64 -g -O0 -fpre-include=/usr/include/finclude/math-vector-fortran.h
REM seed -562935189 547259366 1694198628 1828258008 1277624540 -375070620 -1563424648 2029599471 -197127956 -853459860 -1840058346 -1224185807 147393824 -789234231 1527856179 251029227 1891616291 -134795939 1578614948 1401241561 2092806706 2142347705 -741030848 1501802580 2065819887 -599672926 -665865381 1038175721 1801248328 -1019871167 -1401684475 221921897 1301881696
REM
CELL 1.54180   15.00000   15.00000   15.00000   90.00000   90.00000   90.00000
LATT -1
SFAC C  
C      1  0.5604670000000  0.7269570000000  0.4475480000000 1.0
C      1  0.5433180000000  0.7253330000000  0.5500900000000 1.0
C      1  0.4395330000000  0.7269570000000  0.5524520000000 1.0
C      1  0.4566820000000  0.7253330000000  0.4499100000000 1.0
C      1  0.4499100000000  0.2817040000000  0.4566820000000 1.0
C      1  0.4475480000000  0.2800800000000  0.5604670000000 1.0
C      1  0.5500900000000  0.2817040000000  0.5433180000000 1.0
C      1  0.5524520000000  0.2800800000000  0.4395330000000 1.0
C      1  0.2577830000000  0.4698000000000  0.3968820000000 1.0
C      1  0.6008600000000  0.4680940000000  0.2522880000000 1.0
C      1  0.7422170000000  0.4698000000000  0.6031180000000 1.0
C      1  0.3991400000000  0.4680940000000  0.7477120000000 1.0
C      1  0.7477120000000  0.5389430000000  0.3991400000000 1.0
C      1  0.3968820000000  0.5372380000000  0.2577840000000 1.0
C      1  0.2522880000000  0.5389430000000  0.6008600000000 1.0
C      1  0.6031180000000  0.5372380000000  0.7422160000000 1.0
C      1  0.4033410000000  0.3618750000000  0.4113720000000 1.0
C      1  0.5931030000000  0.3645820000000  0.4000710000000 1.0
C      1  0.5966590000000  0.3618750000000  0.5886280000000 1.0
C      1  0.4068970000000  0.3645820000000  0.5999290000000 1.0
C      1  0.5999290000000  0.6424550000000  0.4068980000000 1.0
C      1  0.4113710000000  0.6451620000000  0.4033410000000 1.0
C      1  0.4000710000000  0.6424550000000  0.5931020000000 1.0
C      1  0.5886290000000  0.6451620000000  0.5966590000000 1.0
C      1  0.4521270000000  0.6066630000000  0.3174870000000 1.0
C      1  0.6827500000000  0.6045900000000  0.4524820000000 1.0
C      1  0.5478730000000  0.6066630000000  0.6825130000000 1.0
C      1  0.3172500000000  0.6045900000000  0.5475180000000 1.0
C      1  0.5475180000000  0.4024470000000  0.3172510000000 1.0
C      1  0.3174860000000  0.4003740000000  0.4521270000000 1.0
C      1  0.4524820000000  0.4024470000000  0.6827490000000 1.0
C      1  0.6825140000000  0.4003740000000  0.5478730000000 1.0
C      1  0.2566600000000  0.4485670000000  0.6020960000000 1.0
C      1  0.3951210000000  0.4469460000000  0.2621720000000 1.0
C      1  0.7433400000000  0.4485670000000  0.3979040000000 1.0
C      1  0.6048790000000  0.4469460000000  0.7378280000000 1.0
C      1  0.7378290000000  0.5600920000000  0.6048790000000 1.0
C      1  0.6020960000000  0.5584700000000  0.2566600000000 1.0
C      1  0.2621710000000  0.5600920000000  0.3951210000000 1.0
C      1  0.3979040000000  0.5584700000000  0.7433400000000 1.0
C      1  0.4248830000000  0.4396920000000  0.5194230000000 1.0
C      1  0.4817770000000  0.4400120000000  0.4264740000000 1.0
C      1  0.5751170000000  0.4396920000000  0.4805770000000 1.0
C      1  0.5182230000000  0.4400120000000  0.5735260000000 1.0
C      1  0.5735270000000  0.5670250000000  0.5182230000000 1.0
C      1  0.5194230000000  0.5673450000000  0.4248840000000 1.0
C      1  0.4264730000000  0.5670250000000  0.4817770000000 1.0
C      1  0.4805770000000  0.5673450000000  0.5751160000000 1.0
C      1  0.5594050000000  0.6184880000000  0.3093600000000 1.0
C      1  0.6875930000000  0.6203740000000  0.5593520000000 1.0
C      1  0.4405950000000  0.6184880000000  0.6906400000000 1.0
C      1  0.3124070000000  0.6203740000000  0.4406480000000 1.0
C      1  0.4406480000000  0.3866640000000  0.3124080000000 1.0
C      1  0.3093600000000  0.3885490000000  0.5594050000000 1.0
C      1  0.5593520000000  0.3866640000000  0.6875920000000 1.0
C      1  0.6906400000000  0.3885490000000  0.4405950000000 1.0
C      1  0.4984470000000  0.5037390000000  0.3385030000000 1.0
C      1  0.5015530000000  0.5037390000000  0.6614970000000 1.0
C      1  0.6614980000000  0.5032980000000  0.5015530000000 1.0
C      1  0.3385020000000  0.5032980000000  0.4984470000000 1.0
END
