TITL C-986976-6631-989 3.53465145644275e-06 3375 -354.885491266879 0 0 60 (D3) n - 1
REM
REM in /home/bkarasulu/work/CARBON/AIRSS/Generating-Clusters/REBO/Higher-Symm/Only-C60
REM
REM
REM
REM
REM
REM ./C.cell (a2850807a9bf4ad07a5b6933b78d9264)
REM AIRSS Version 0.9.1 bugfix July 2018 build 013d7b7c2542+ Fri, 06 Jul 2018 19:26:36 +0100
REM compiler GCC version 9.2.1 20190827 (Red Hat 9.2.1-1)
REM options -cpp -mtune=generic -march=x86-64 -g -O0 -fpre-include=/usr/include/finclude/math-vector-fortran.h
REM seed -2003948364 908838297 -238152595 469983624 -1540515415 -40216808 -788256275 -768529188 -936379682 1301045014 879150170 -901390632 104392852 -239819739 547327480 -565964184 41427697 -1692455250 -1956266312 2056432462 -1922826102 1168196970 -193776430 -1876393019 -1408884001 2093828226 447983945 691563799 1151216325 -2009700206 288906840 1451478874 1060811638
REM
CELL 1.54180   15.00000   15.00000   15.00000   90.00000   90.00000   90.00000
LATT -1
SFAC C  
C      1  0.4907780000000  0.4464250000000  0.7000220000000 1.0
C      1  0.3313980000000  0.4464020000000  0.3919960000000 1.0
C      1  0.6778470000000  0.4464520000000  0.4079820000000 1.0
C      1  0.5092220000000  0.5535750000000  0.7000220000000 1.0
C      1  0.6686020000000  0.5535980000000  0.3919960000000 1.0
C      1  0.3221530000000  0.5535480000000  0.4079820000000 1.0
C      1  0.6655710000000  0.4192570000000  0.6607460000000 1.0
C      1  0.2780210000000  0.4192040000000  0.5630060000000 1.0
C      1  0.5564420000000  0.4192430000000  0.2762480000000 1.0
C      1  0.3344290000000  0.5807430000000  0.6607460000000 1.0
C      1  0.7219790000000  0.5807960000000  0.5630060000000 1.0
C      1  0.4435580000000  0.5807570000000  0.2762480000000 1.0
C      1  0.5375630000000  0.3353850000000  0.4484050000000 1.0
C      1  0.5259350000000  0.3353840000000  0.5583100000000 1.0
C      1  0.4365690000000  0.3353700000000  0.4932870000000 1.0
C      1  0.4624370000000  0.6646150000000  0.4484050000000 1.0
C      1  0.4740650000000  0.6646160000000  0.5583100000000 1.0
C      1  0.5634310000000  0.6646300000000  0.4932870000000 1.0
C      1  0.3703130000000  0.5133130000000  0.4999940000000 1.0
C      1  0.5648460000000  0.5133410000000  0.3876930000000 1.0
C      1  0.5648350000000  0.5133410000000  0.6123140000000 1.0
C      1  0.6296870000000  0.4866870000000  0.4999940000000 1.0
C      1  0.4351540000000  0.4866590000000  0.3876930000000 1.0
C      1  0.4351650000000  0.4866590000000  0.6123140000000 1.0
C      1  0.5814730000000  0.3827520000000  0.6871320000000 1.0
C      1  0.2972260000000  0.3827130000000  0.4769770000000 1.0
C      1  0.6213500000000  0.3827590000000  0.3358900000000 1.0
C      1  0.4185270000000  0.6172480000000  0.6871320000000 1.0
C      1  0.7027740000000  0.6172870000000  0.4769770000000 1.0
C      1  0.3786500000000  0.6172410000000  0.3358900000000 1.0
C      1  0.4574150000000  0.4122860000000  0.2765090000000 1.0
C      1  0.7148600000000  0.4123220000000  0.5748540000000 1.0
C      1  0.3277620000000  0.4122690000000  0.6486360000000 1.0
C      1  0.5425850000000  0.5877140000000  0.2765090000000 1.0
C      1  0.2851400000000  0.5876780000000  0.5748540000000 1.0
C      1  0.6722380000000  0.5877310000000  0.6486360000000 1.0
C      1  0.5013720000000  0.6777340000000  0.6555470000000 1.0
C      1  0.3645720000000  0.6777130000000  0.4234350000000 1.0
C      1  0.6339840000000  0.6777520000000  0.4210190000000 1.0
C      1  0.4986280000000  0.3222660000000  0.6555470000000 1.0
C      1  0.6354280000000  0.3222870000000  0.4234350000000 1.0
C      1  0.3660160000000  0.3222480000000  0.4210190000000 1.0
C      1  0.5915070000000  0.5756430000000  0.5370280000000 1.0
C      1  0.4221640000000  0.5756180000000  0.5607420000000 1.0
C      1  0.4862970000000  0.5756270000000  0.4022290000000 1.0
C      1  0.4084930000000  0.4243570000000  0.5370280000000 1.0
C      1  0.5778360000000  0.4243820000000  0.5607420000000 1.0
C      1  0.5137030000000  0.4243730000000  0.4022290000000 1.0
C      1  0.6858510000000  0.5057670000000  0.6997470000000 1.0
C      1  0.2340880000000  0.5057050000000  0.5610780000000 1.0
C      1  0.5800590000000  0.5057540000000  0.2391740000000 1.0
C      1  0.3141490000000  0.4942330000000  0.6997470000000 1.0
C      1  0.7659120000000  0.4942950000000  0.5610780000000 1.0
C      1  0.4199410000000  0.4942460000000  0.2391740000000 1.0
C      1  0.5903450000000  0.6288960000000  0.6731510000000 1.0
C      1  0.3048490000000  0.6288560000000  0.4916800000000 1.0
C      1  0.6047530000000  0.6288990000000  0.3351700000000 1.0
C      1  0.4096550000000  0.3711040000000  0.6731510000000 1.0
C      1  0.6951510000000  0.3711440000000  0.4916800000000 1.0
C      1  0.3952470000000  0.3711010000000  0.3351700000000 1.0
END
