TITL C-986975-4297-1015 -4.63551926167326e-06 3375 -345.116996537217 0 0 60 (C2) n - 1
REM
REM in /home/bkarasulu/work/CARBON/AIRSS/Generating-Clusters/REBO/Higher-Symm/Only-C60
REM
REM
REM
REM
REM
REM ./C.cell (a2850807a9bf4ad07a5b6933b78d9264)
REM AIRSS Version 0.9.1 bugfix July 2018 build 013d7b7c2542+ Fri, 06 Jul 2018 19:26:36 +0100
REM compiler GCC version 9.2.1 20190827 (Red Hat 9.2.1-1)
REM options -cpp -mtune=generic -march=x86-64 -g -O0 -fpre-include=/usr/include/finclude/math-vector-fortran.h
REM seed 1052898521 1275947207 1176762748 -537075947 366945596 1980001080 289334417 1845780 -494456331 342078253 1912131044 -1311942274 560194486 881627705 1335925879 -1539593390 -1153079035 1553274481 -2144799491 -1023531125 -1099067993 -1333586231 1326981953 -237546731 296623412 290858706 -1542300635 865653957 -1438096951 1310101951 1081748960 -2026789143 1591483032
REM
CELL 1.54180   15.00000   15.00000   15.00000   90.00000   90.00000   90.00000
LATT -1
SFAC C  
C      1  0.5600180000000  0.2675210000000  0.3671110000000 1.0
C      1  0.4399820000000  0.2675210000000  0.6328900000000 1.0
C      1  0.5424690000000  0.5212610000000  0.4457580000000 1.0
C      1  0.4575310000000  0.5212610000000  0.5542420000000 1.0
C      1  0.7317860000000  0.4914710000000  0.5973660000000 1.0
C      1  0.2682140000000  0.4914710000000  0.4026340000000 1.0
C      1  0.4074850000000  0.5370320000000  0.3323040000000 1.0
C      1  0.5925150000000  0.5370330000000  0.6676960000000 1.0
C      1  0.5047720000000  0.7204700000000  0.6264730000000 1.0
C      1  0.4952280000000  0.7204690000000  0.3735260000000 1.0
C      1  0.6563620000000  0.6507460000000  0.6470220000000 1.0
C      1  0.3436370000000  0.6507450000000  0.3529770000000 1.0
C      1  0.4398890000000  0.5638230000000  0.4300170000000 1.0
C      1  0.5601110000000  0.5638230000000  0.5699830000000 1.0
C      1  0.4567430000000  0.4134720000000  0.5342710000000 1.0
C      1  0.5432570000000  0.4134720000000  0.4657290000000 1.0
C      1  0.7307140000000  0.4740140000000  0.5024230000000 1.0
C      1  0.2692860000000  0.4740140000000  0.4975770000000 1.0
C      1  0.3138430000000  0.6589940000000  0.5064300000000 1.0
C      1  0.6861570000000  0.6589940000000  0.4935690000000 1.0
C      1  0.6618070000000  0.7105120000000  0.5715170000000 1.0
C      1  0.3381930000000  0.7105120000000  0.4284820000000 1.0
C      1  0.6376770000000  0.5676610000000  0.4873830000000 1.0
C      1  0.3623230000000  0.5676610000000  0.5126170000000 1.0
C      1  0.6979960000000  0.4223680000000  0.6551130000000 1.0
C      1  0.3020040000000  0.4223680000000  0.3448870000000 1.0
C      1  0.4257910000000  0.7595400000000  0.4368480000000 1.0
C      1  0.5742080000000  0.7595400000000  0.5631510000000 1.0
C      1  0.4549580000000  0.4612480000000  0.7283200000000 1.0
C      1  0.5450420000000  0.4612470000000  0.2716800000000 1.0
C      1  0.6209420000000  0.4882870000000  0.3433250000000 1.0
C      1  0.3790580000000  0.4882870000000  0.6566750000000 1.0
C      1  0.4492090000000  0.6628940000000  0.4843930000000 1.0
C      1  0.5507910000000  0.6628940000000  0.5156060000000 1.0
C      1  0.3279610000000  0.4911890000000  0.5805250000000 1.0
C      1  0.6720390000000  0.4911890000000  0.4194750000000 1.0
C      1  0.4478020000000  0.6306630000000  0.5931230000000 1.0
C      1  0.5521980000000  0.6306630000000  0.4068770000000 1.0
C      1  0.4005670000000  0.3235740000000  0.4929050000000 1.0
C      1  0.5994330000000  0.3235740000000  0.5070950000000 1.0
C      1  0.2845450000000  0.5773420000000  0.3642680000000 1.0
C      1  0.7154550000000  0.5773420000000  0.6357320000000 1.0
C      1  0.7002450000000  0.3315310000000  0.6314650000000 1.0
C      1  0.2997550000000  0.3315300000000  0.3685360000000 1.0
C      1  0.6184460000000  0.4527530000000  0.6969590000000 1.0
C      1  0.3815540000000  0.4527530000000  0.3030410000000 1.0
C      1  0.3801830000000  0.2982780000000  0.4037870000000 1.0
C      1  0.6198170000000  0.2982790000000  0.5962140000000 1.0
C      1  0.4617770000000  0.3969680000000  0.2843810000000 1.0
C      1  0.5382230000000  0.3969690000000  0.7156190000000 1.0
C      1  0.4517840000000  0.6369840000000  0.3194770000000 1.0
C      1  0.5482160000000  0.6369850000000  0.6805230000000 1.0
C      1  0.5324890000000  0.3741320000000  0.3700610000000 1.0
C      1  0.4675110000000  0.3741320000000  0.6299390000000 1.0
C      1  0.3915570000000  0.2534990000000  0.5575880000000 1.0
C      1  0.6084440000000  0.2534990000000  0.4424130000000 1.0
C      1  0.4619430000000  0.5626580000000  0.6806590000000 1.0
C      1  0.5380570000000  0.5626570000000  0.3193410000000 1.0
C      1  0.5437450000000  0.2991170000000  0.6611470000000 1.0
C      1  0.4562550000000  0.2991170000000  0.3388540000000 1.0
END
