TITL C-986979-5873-887 0.044407081332496 3375 -360.360082411241 0 0 60 (C1) n - 1
REM
REM in /home/bkarasulu/work/CARBON/AIRSS/Generating-Clusters/REBO/Higher-Symm/Only-C60
REM
REM
REM
REM
REM
REM ./C.cell (a2850807a9bf4ad07a5b6933b78d9264)
REM AIRSS Version 0.9.1 bugfix July 2018 build 013d7b7c2542+ Fri, 06 Jul 2018 19:26:36 +0100
REM compiler GCC version 9.2.1 20190827 (Red Hat 9.2.1-1)
REM options -cpp -mtune=generic -march=x86-64 -g -O0 -fpre-include=/usr/include/finclude/math-vector-fortran.h
REM seed 449747961 -1339907609 -1409604958 862775182 -1583543240 1961436524 -51440963 998043582 1039106633 -572229271 1723441647 608958063 -2077583719 705136962 53062662 1005285319 -529326285 -587346207 -758344556 883836594 -2124413585 -1915768139 -1874550275 -1138487398 342562788 1322382547 -1357554564 -1641953547 1652098564 827383050 948724161 -2026916862 -1845397701
REM
CELL 1.54180   15.00000   15.00000   15.00000   90.00000   90.00000   90.00000
LATT -1
SFAC C  
C      1  0.2694960000000  0.3402530000000  0.4105190000000 1.0
C      1  0.2715510000000  0.6510450000000  0.4089340000000 1.0
C      1  0.2920850000000  0.4934180000000  0.6552930000000 1.0
C      1  0.7362110000000  0.6633490000000  0.4059750000000 1.0
C      1  0.7235630000000  0.3499700000000  0.4154070000000 1.0
C      1  0.7085870000000  0.5087950000000  0.6583910000000 1.0
C      1  0.7298210000000  0.6604680000000  0.5805160000000 1.0
C      1  0.7275770000000  0.3489520000000  0.5829390000000 1.0
C      1  0.7108380000000  0.5066370000000  0.3347090000000 1.0
C      1  0.2647310000000  0.3361370000000  0.5850460000000 1.0
C      1  0.2775560000000  0.6510100000000  0.5762150000000 1.0
C      1  0.2876490000000  0.4922830000000  0.3317890000000 1.0
C      1  0.0964865000000  0.5759440000000  0.4680930000000 1.0
C      1  0.0480694000000  0.4980940000000  0.6041500000000 1.0
C      1  0.0922448000000  0.4170640000000  0.4681820000000 1.0
C      1  0.9030530000000  0.4225530000000  0.4691630000000 1.0
C      1  0.9522770000000  0.5016440000000  0.6043450000000 1.0
C      1  0.9082860000000  0.5815600000000  0.4677820000000 1.0
C      1  0.9081040000000  0.4219500000000  0.5710240000000 1.0
C      1  0.9518190000000  0.5003020000000  0.4352090000000 1.0
C      1  0.9132940000000  0.5835010000000  0.5694640000000 1.0
C      1  0.0925422000000  0.5771280000000  0.5699180000000 1.0
C      1  0.0480346000000  0.4976860000000  0.4349990000000 1.0
C      1  0.0864070000000  0.4155980000000  0.5699200000000 1.0
C      1  0.6382670000000  0.3760910000000  0.3979480000000 1.0
C      1  0.6524890000000  0.6664580000000  0.4406230000000 1.0
C      1  0.6289940000000  0.4616090000000  0.6457360000000 1.0
C      1  0.3569060000000  0.6265390000000  0.3906630000000 1.0
C      1  0.3518640000000  0.3406740000000  0.4500960000000 1.0
C      1  0.3726460000000  0.5351860000000  0.6341560000000 1.0
C      1  0.3631180000000  0.6248320000000  0.5922210000000 1.0
C      1  0.3480920000000  0.3333690000000  0.5495000000000 1.0
C      1  0.3683670000000  0.5374620000000  0.3457330000000 1.0
C      1  0.6418430000000  0.3728640000000  0.6003890000000 1.0
C      1  0.6479390000000  0.6592040000000  0.5398600000000 1.0
C      1  0.6296290000000  0.4659130000000  0.3563140000000 1.0
C      1  0.7729860000000  0.5079870000000  0.5949150000000 1.0
C      1  0.7990540000000  0.4181100000000  0.4423030000000 1.0
C      1  0.8059200000000  0.5927000000000  0.4387160000000 1.0
C      1  0.2253230000000  0.4938010000000  0.5943300000000 1.0
C      1  0.1994150000000  0.5816810000000  0.4393020000000 1.0
C      1  0.1954370000000  0.4074480000000  0.4403440000000 1.0
C      1  0.2210350000000  0.4933380000000  0.3934230000000 1.0
C      1  0.2008650000000  0.5833880000000  0.5498690000000 1.0
C      1  0.1937990000000  0.4068320000000  0.5531430000000 1.0
C      1  0.7790630000000  0.5059860000000  0.3944230000000 1.0
C      1  0.8002300000000  0.4187310000000  0.5530930000000 1.0
C      1  0.8058100000000  0.5938120000000  0.5513870000000 1.0
C      1  0.4482380000000  0.5908790000000  0.4371330000000 1.0
C      1  0.4456480000000  0.4804720000000  0.5863780000000 1.0
C      1  0.4395190000000  0.3920250000000  0.4229090000000 1.0
C      1  0.5456150000000  0.4146890000000  0.4457780000000 1.0
C      1  0.5474630000000  0.5113910000000  0.6031950000000 1.0
C      1  0.5587380000000  0.6121030000000  0.4530550000000 1.0
C      1  0.5518540000000  0.4091720000000  0.5514940000000 1.0
C      1  0.5546020000000  0.5199040000000  0.4021830000000 1.0
C      1  0.5606390000000  0.6077340000000  0.5665150000000 1.0
C      1  0.4548380000000  0.5857350000000  0.5426940000000 1.0
C      1  0.4521740000000  0.4884820000000  0.3858060000000 1.0
C      1  0.4413040000000  0.3880560000000  0.5363930000000 1.0
END
