TITL C-986974-580-84 -0.0658800743530802 3375 -336.784908379272 0 0 60 (S4) n - 1
REM
REM in /home/bkarasulu/work/CARBON/AIRSS/Generating-Clusters/REBO/Higher-Symm/Only-C60
REM
REM
REM
REM
REM
REM ./C.cell (a2850807a9bf4ad07a5b6933b78d9264)
REM AIRSS Version 0.9.1 bugfix July 2018 build 013d7b7c2542+ Fri, 06 Jul 2018 19:26:36 +0100
REM compiler GCC version 9.2.1 20190827 (Red Hat 9.2.1-1)
REM options -cpp -mtune=generic -march=x86-64 -g -O0 -fpre-include=/usr/include/finclude/math-vector-fortran.h
REM seed 111475917 450670875 -1134386015 -1289642026 -1389041574 -1849724096 -1180772877 -565798708 81373529 -1132887063 1189432571 1465652200 1787952499 -1072113356 -987716282 -952243844 -1525497390 -1562905759 -620050003 276820430 15590882 -112193895 -311802429 1447280046 797510970 168424643 1666524622 1658624181 -113990721 -681795211 1876126164 -1194898220 1991062158
REM
CELL 1.54180   15.00000   15.00000   15.00000   90.00000   90.00000   90.00000
LATT -1
SFAC C  
C      1  0.5348640000000  0.5500820000000  0.6716020000000 1.0
C      1  0.5500880000000  0.4651420000000  0.3284050000000 1.0
C      1  0.4651360000000  0.4499180000000  0.6716020000000 1.0
C      1  0.4499120000000  0.5348580000000  0.3284050000000 1.0
C      1  0.6100730000000  0.4165100000000  0.7227610000000 1.0
C      1  0.4165290000000  0.3899250000000  0.2772220000000 1.0
C      1  0.3899270000000  0.5834900000000  0.7227610000000 1.0
C      1  0.5834710000000  0.6100750000000  0.2772220000000 1.0
C      1  0.4915450000000  0.7093560000000  0.5781630000000 1.0
C      1  0.7093550000000  0.5084550000000  0.4218480000000 1.0
C      1  0.5084550000000  0.2906440000000  0.5781630000000 1.0
C      1  0.2906450000000  0.4915450000000  0.4218480000000 1.0
C      1  0.4711820000000  0.4120620000000  0.5378040000000 1.0
C      1  0.4120530000000  0.5288060000000  0.4621840000000 1.0
C      1  0.5288180000000  0.5879380000000  0.5378040000000 1.0
C      1  0.5879470000000  0.4711940000000  0.4621840000000 1.0
C      1  0.2799030000000  0.4304880000000  0.5185020000000 1.0
C      1  0.4304910000000  0.7200930000000  0.4814980000000 1.0
C      1  0.7200970000000  0.5695120000000  0.5185020000000 1.0
C      1  0.5695090000000  0.2799070000000  0.4814980000000 1.0
C      1  0.3828390000000  0.4211330000000  0.6021940000000 1.0
C      1  0.4211340000000  0.6171510000000  0.3978030000000 1.0
C      1  0.6171610000000  0.5788670000000  0.6021940000000 1.0
C      1  0.5788660000000  0.3828490000000  0.3978030000000 1.0
C      1  0.6534250000000  0.3570110000000  0.4800030000000 1.0
C      1  0.3570070000000  0.3465660000000  0.5200240000000 1.0
C      1  0.3465750000000  0.6429890000000  0.4800030000000 1.0
C      1  0.6429930000000  0.6534340000000  0.5200240000000 1.0
C      1  0.4299590000000  0.5131490000000  0.7446820000000 1.0
C      1  0.5131350000000  0.5700350000000  0.2553130000000 1.0
C      1  0.5700410000000  0.4868510000000  0.7446820000000 1.0
C      1  0.4868650000000  0.4299650000000  0.2553130000000 1.0
C      1  0.2910970000000  0.5622800000000  0.5066160000000 1.0
C      1  0.5622820000000  0.7089140000000  0.4933790000000 1.0
C      1  0.7089030000000  0.4377200000000  0.5066160000000 1.0
C      1  0.4377180000000  0.2910860000000  0.4933790000000 1.0
C      1  0.6178640000000  0.3049590000000  0.5750030000000 1.0
C      1  0.3049820000000  0.3821470000000  0.4249970000000 1.0
C      1  0.3821360000000  0.6950410000000  0.5750030000000 1.0
C      1  0.6950180000000  0.6178530000000  0.4249970000000 1.0
C      1  0.6383430000000  0.3923440000000  0.6279240000000 1.0
C      1  0.3923400000000  0.3616690000000  0.3720640000000 1.0
C      1  0.3616570000000  0.6076560000000  0.6279240000000 1.0
C      1  0.6076600000000  0.6383310000000  0.3720640000000 1.0
C      1  0.4355880000000  0.5719450000000  0.5492600000000 1.0
C      1  0.5719580000000  0.5644250000000  0.4507160000000 1.0
C      1  0.5644120000000  0.4280550000000  0.5492600000000 1.0
C      1  0.4280420000000  0.4355750000000  0.4507160000000 1.0
C      1  0.4124340000000  0.2534700000000  0.3889410000000 1.0
C      1  0.2534650000000  0.5875660000000  0.6110670000000 1.0
C      1  0.5875660000000  0.7465300000000  0.3889410000000 1.0
C      1  0.7465350000000  0.4124340000000  0.6110670000000 1.0
C      1  0.4917300000000  0.6956910000000  0.4021870000000 1.0
C      1  0.6956940000000  0.5082690000000  0.5978270000000 1.0
C      1  0.5082690000000  0.3043090000000  0.4021870000000 1.0
C      1  0.3043060000000  0.4917310000000  0.5978270000000 1.0
C      1  0.6542030000000  0.4799980000000  0.3471210000000 1.0
C      1  0.4800080000000  0.3457950000000  0.6528910000000 1.0
C      1  0.3457970000000  0.5200020000000  0.3471210000000 1.0
C      1  0.5199920000000  0.6542050000000  0.6528910000000 1.0
END
