TITL C-986973-6940-612 -7.63759434753333e-06 3375 -326.335615388063 0 0 60 (C1) n - 1
REM
REM in /home/bkarasulu/work/CARBON/AIRSS/Generating-Clusters/REBO/Higher-Symm/Only-C60
REM
REM
REM
REM
REM
REM ./C.cell (a2850807a9bf4ad07a5b6933b78d9264)
REM AIRSS Version 0.9.1 bugfix July 2018 build 013d7b7c2542+ Fri, 06 Jul 2018 19:26:36 +0100
REM compiler GCC version 9.2.1 20190827 (Red Hat 9.2.1-1)
REM options -cpp -mtune=generic -march=x86-64 -g -O0 -fpre-include=/usr/include/finclude/math-vector-fortran.h
REM seed 357061704 1204787179 -1152511274 1507656070 66032798 -491169179 1062205140 -1141248148 -1251345301 -647854114 776521959 906068756 -2098524431 -1080771976 -336564655 -737217365 1790045819 -1172844317 1498399009 -1670808405 191896261 -309521439 -372290017 -984091118 587033991 665161847 -990396149 -1636683707 270580585 -1279045913 -285070546 938069945 289496268
REM
CELL 1.54180   15.00000   15.00000   15.00000   90.00000   90.00000   90.00000
LATT -1
SFAC C  
C      1  0.5554720000000  0.3441930000000  0.5869370000000 1.0
C      1  0.5841890000000  0.5563930000000  0.3560330000000 1.0
C      1  0.3549370000000  0.5929520000000  0.5566670000000 1.0
C      1  0.5454220000000  0.6505200000000  0.4039380000000 1.0
C      1  0.4456910000000  0.6435030000000  0.5936060000000 1.0
C      1  0.4474040000000  0.3683520000000  0.4133230000000 1.0
C      1  0.5969940000000  0.4328480000000  0.6375130000000 1.0
C      1  0.4074380000000  0.4553910000000  0.3594800000000 1.0
C      1  0.4021720000000  0.5571680000000  0.6500980000000 1.0
C      1  0.3549530000000  0.4156520000000  0.4518910000000 1.0
C      1  0.6492330000000  0.3959120000000  0.5496230000000 1.0
C      1  0.6351400000000  0.5977880000000  0.4424560000000 1.0
C      1  0.4466750000000  0.3538610000000  0.6027060000000 1.0
C      1  0.3951570000000  0.5627910000000  0.3613300000000 1.0
C      1  0.6428850000000  0.5818350000000  0.5505880000000 1.0
C      1  0.4376790000000  0.6502910000000  0.4081480000000 1.0
C      1  0.5525650000000  0.6301650000000  0.5897410000000 1.0
C      1  0.5544920000000  0.3577470000000  0.4017590000000 1.0
C      1  0.4099600000000  0.4485920000000  0.6458890000000 1.0
C      1  0.5956000000000  0.4479200000000  0.3498870000000 1.0
C      1  0.5891110000000  0.5407440000000  0.6415130000000 1.0
C      1  0.6412280000000  0.4101510000000  0.4427900000000 1.0
C      1  0.3598730000000  0.4034770000000  0.5605610000000 1.0
C      1  0.3451160000000  0.6049100000000  0.4493730000000 1.0
C      1  0.2616190000000  0.5483190000000  0.5357300000000 1.0
C      1  0.5619810000000  0.2472120000000  0.5384150000000 1.0
C      1  0.5397400000000  0.5325110000000  0.2639980000000 1.0
C      1  0.2535130000000  0.4547930000000  0.4399730000000 1.0
C      1  0.7497130000000  0.4306550000000  0.5701510000000 1.0
C      1  0.7322510000000  0.5646020000000  0.4536940000000 1.0
C      1  0.5697480000000  0.7470510000000  0.4481930000000 1.0
C      1  0.4339730000000  0.7457890000000  0.5630760000000 1.0
C      1  0.4660040000000  0.2703810000000  0.4484480000000 1.0
C      1  0.5645960000000  0.4489460000000  0.7344560000000 1.0
C      1  0.4444850000000  0.4394390000000  0.2580900000000 1.0
C      1  0.4423880000000  0.5784920000000  0.7487580000000 1.0
C      1  0.7439240000000  0.5442900000000  0.5607640000000 1.0
C      1  0.4560480000000  0.2600390000000  0.5604540000000 1.0
C      1  0.4281010000000  0.5471290000000  0.2654120000000 1.0
C      1  0.7343470000000  0.4524890000000  0.4646520000000 1.0
C      1  0.2640520000000  0.4363740000000  0.5468270000000 1.0
C      1  0.2454060000000  0.5681660000000  0.4296430000000 1.0
C      1  0.4611380000000  0.7416020000000  0.4520940000000 1.0
C      1  0.5413360000000  0.7287830000000  0.5576490000000 1.0
C      1  0.5716200000000  0.2545600000000  0.4252130000000 1.0
C      1  0.4540600000000  0.4711660000000  0.7372560000000 1.0
C      1  0.5574910000000  0.4258470000000  0.2508790000000 1.0
C      1  0.5547190000000  0.5581870000000  0.7429340000000 1.0
C      1  0.6321710000000  0.1868420000000  0.4830970000000 1.0
C      1  0.3889380000000  0.8124580000000  0.4917230000000 1.0
C      1  0.4986280000000  0.3945780000000  0.8004100000000 1.0
C      1  0.1892280000000  0.5011130000000  0.3668410000000 1.0
C      1  0.2000110000000  0.4970330000000  0.6091340000000 1.0
C      1  0.4909610000000  0.6058130000000  0.2001370000000 1.0
C      1  0.7953740000000  0.5037570000000  0.3906470000000 1.0
C      1  0.8078690000000  0.4960300000000  0.6329550000000 1.0
C      1  0.3902920000000  0.2066230000000  0.4934730000000 1.0
C      1  0.6219720000000  0.7955370000000  0.5286940000000 1.0
C      1  0.4890480000000  0.3631750000000  0.1962360000000 1.0
C      1  0.5138670000000  0.6370650000000  0.8040450000000 1.0
END
