TITL C-986975-4297-850 -0.0244944218241787 3375 -342.397898371413 0 0 60 (C2) n - 1
REM
REM in /home/bkarasulu/work/CARBON/AIRSS/Generating-Clusters/REBO/Higher-Symm/Only-C60
REM
REM
REM
REM
REM
REM ./C.cell (a2850807a9bf4ad07a5b6933b78d9264)
REM AIRSS Version 0.9.1 bugfix July 2018 build 013d7b7c2542+ Fri, 06 Jul 2018 19:26:36 +0100
REM compiler GCC version 9.2.1 20190827 (Red Hat 9.2.1-1)
REM options -cpp -mtune=generic -march=x86-64 -g -O0 -fpre-include=/usr/include/finclude/math-vector-fortran.h
REM seed -1888492910 643490418 235350517 -1078390226 -1774206155 -216346480 1120710457 332713766 2021042802 -39985885 -2023138843 -1903162363 -33325272 131995511 1013499937 -1771588618 -2108457321 -258493928 -403977717 77965024 -933819759 593044393 -2080236060 1257399024 1874713110 911003905 -720944639 456897973 -1396529927 1085591385 279350797 670623355 1413791697
REM
CELL 1.54180   15.00000   15.00000   15.00000   90.00000   90.00000   90.00000
LATT -1
SFAC C  
C      1  0.6501900000000  0.4566990000000  0.5133520000000 1.0
C      1  0.6497100000000  0.5394260000000  0.4834530000000 1.0
C      1  0.3503150000000  0.5393540000000  0.5164770000000 1.0
C      1  0.3497810000000  0.4566050000000  0.4865790000000 1.0
C      1  0.5569080000000  0.4550430000000  0.4187910000000 1.0
C      1  0.5576640000000  0.5473720000000  0.5785620000000 1.0
C      1  0.4424770000000  0.5471890000000  0.4214820000000 1.0
C      1  0.4430020000000  0.4549250000000  0.5812110000000 1.0
C      1  0.6352460000000  0.3857440000000  0.6247430000000 1.0
C      1  0.6361570000000  0.6112360000000  0.3725280000000 1.0
C      1  0.3639470000000  0.6111970000000  0.6273820000000 1.0
C      1  0.3646520000000  0.3856840000000  0.3751770000000 1.0
C      1  0.7128680000000  0.4682550000000  0.6294670000000 1.0
C      1  0.7152280000000  0.5300670000000  0.3694240000000 1.0
C      1  0.2847950000000  0.5301100000000  0.6305180000000 1.0
C      1  0.2870850000000  0.4682520000000  0.3704910000000 1.0
C      1  0.5427410000000  0.5247790000000  0.2819880000000 1.0
C      1  0.5415380000000  0.4751700000000  0.7193740000000 1.0
C      1  0.4584500000000  0.4751610000000  0.2806550000000 1.0
C      1  0.4572380000000  0.5247920000000  0.7180300000000 1.0
C      1  0.2372150000000  0.4803800000000  0.5529880000000 1.0
C      1  0.2397800000000  0.5189910000000  0.4458160000000 1.0
C      1  0.7601940000000  0.5190090000000  0.5542040000000 1.0
C      1  0.7628220000000  0.4804040000000  0.4470170000000 1.0
C      1  0.4557390000000  0.5623910000000  0.5908940000000 1.0
C      1  0.4547950000000  0.4399620000000  0.4082250000000 1.0
C      1  0.5451670000000  0.4402200000000  0.5917370000000 1.0
C      1  0.5443300000000  0.5625630000000  0.4090670000000 1.0
C      1  0.6439630000000  0.6278960000000  0.6388010000000 1.0
C      1  0.6438120000000  0.3722240000000  0.3620640000000 1.0
C      1  0.3560930000000  0.3721580000000  0.6379850000000 1.0
C      1  0.3561250000000  0.6277780000000  0.3613480000000 1.0
C      1  0.6240720000000  0.5239000000000  0.6684980000000 1.0
C      1  0.6263060000000  0.4755120000000  0.3308880000000 1.0
C      1  0.3736620000000  0.4755050000000  0.6691260000000 1.0
C      1  0.3759560000000  0.5238480000000  0.3315700000000 1.0
C      1  0.4638970000000  0.2931900000000  0.5315380000000 1.0
C      1  0.4654590000000  0.7088560000000  0.4680870000000 1.0
C      1  0.5346180000000  0.7089260000000  0.5319960000000 1.0
C      1  0.5360420000000  0.2932370000000  0.4684920000000 1.0
C      1  0.2792730000000  0.3803330000000  0.5687150000000 1.0
C      1  0.2823830000000  0.6155070000000  0.4321660000000 1.0
C      1  0.7176250000000  0.6155470000000  0.5678450000000 1.0
C      1  0.7206920000000  0.3803390000000  0.4312480000000 1.0
C      1  0.7001320000000  0.3573010000000  0.5371520000000 1.0
C      1  0.6908910000000  0.6452020000000  0.4634020000000 1.0
C      1  0.3091340000000  0.6451210000000  0.5365500000000 1.0
C      1  0.2998200000000  0.3572420000000  0.4628130000000 1.0
C      1  0.5363490000000  0.6312780000000  0.3205570000000 1.0
C      1  0.5358650000000  0.3693450000000  0.6787390000000 1.0
C      1  0.4640010000000  0.3692660000000  0.3211190000000 1.0
C      1  0.4637500000000  0.6312470000000  0.6793510000000 1.0
C      1  0.4070800000000  0.6255240000000  0.4840990000000 1.0
C      1  0.4107000000000  0.3780960000000  0.5168940000000 1.0
C      1  0.5892130000000  0.3781710000000  0.4831580000000 1.0
C      1  0.5930700000000  0.6256420000000  0.5160120000000 1.0
C      1  0.4441740000000  0.3235170000000  0.6328700000000 1.0
C      1  0.4445570000000  0.6768300000000  0.3678190000000 1.0
C      1  0.5554770000000  0.6769150000000  0.6322910000000 1.0
C      1  0.5557740000000  0.3235660000000  0.3671760000000 1.0
END
