TITL C-986976-6631-854 0.0141495805468242 3375 -339.280801285894 0 0 60 (C1) n - 1
REM
REM in /home/bkarasulu/work/CARBON/AIRSS/Generating-Clusters/REBO/Higher-Symm/Only-C60
REM
REM
REM
REM
REM
REM ./C.cell (a2850807a9bf4ad07a5b6933b78d9264)
REM AIRSS Version 0.9.1 bugfix July 2018 build 013d7b7c2542+ Fri, 06 Jul 2018 19:26:36 +0100
REM compiler GCC version 9.2.1 20190827 (Red Hat 9.2.1-1)
REM options -cpp -mtune=generic -march=x86-64 -g -O0 -fpre-include=/usr/include/finclude/math-vector-fortran.h
REM seed -323670093 956108924 -1954991022 -369285492 -1547067737 -730106906 -1184843814 -1991257022 -1156364644 1297374665 -408493966 1359103619 864104010 -1405460673 -1757063011 159370535 -1560496985 -114657117 -931514757 1813452210 -1630115039 238279248 -226545638 -2115565931 354738748 116398516 -1437102030 -294458300 -1317816127 -512559416 -1876105148 -109184374 424461367
REM
CELL 1.54180   15.00000   15.00000   15.00000   90.00000   90.00000   90.00000
LATT -1
SFAC C  
C      1  0.5690240000000  0.5023580000000  0.7470140000000 1.0
C      1  0.5224870000000  0.3087160000000  0.3983350000000 1.0
C      1  0.5539490000000  0.6737770000000  0.3956690000000 1.0
C      1  0.3885610000000  0.6395250000000  0.6227820000000 1.0
C      1  0.3982430000000  0.2870380000000  0.5539440000000 1.0
C      1  0.3875620000000  0.5497960000000  0.2985890000000 1.0
C      1  0.5035030000000  0.6022050000000  0.5196490000000 1.0
C      1  0.5099260000000  0.4645510000000  0.5994630000000 1.0
C      1  0.4960760000000  0.4782770000000  0.4148310000000 1.0
C      1  0.4329660000000  0.3912290000000  0.6798210000000 1.0
C      1  0.3981360000000  0.3803650000000  0.2986730000000 1.0
C      1  0.4064520000000  0.7380970000000  0.4841090000000 1.0
C      1  0.5472130000000  0.4127040000000  0.5387570000000 1.0
C      1  0.5478880000000  0.5330660000000  0.3878050000000 1.0
C      1  0.5545340000000  0.5885610000000  0.5801430000000 1.0
C      1  0.5328840000000  0.4805960000000  0.2662320000000 1.0
C      1  0.5321990000000  0.7182750000000  0.6000460000000 1.0
C      1  0.5591720000000  0.3033970000000  0.6138500000000 1.0
C      1  0.3419110000000  0.3491320000000  0.3929610000000 1.0
C      1  0.3466680000000  0.6842560000000  0.4034460000000 1.0
C      1  0.3749000000000  0.4783820000000  0.6321100000000 1.0
C      1  0.4137950000000  0.6323380000000  0.3332280000000 1.0
C      1  0.4120660000000  0.5667620000000  0.6761620000000 1.0
C      1  0.4121860000000  0.2885540000000  0.4584300000000 1.0
C      1  0.3233820000000  0.3859180000000  0.6579480000000 1.0
C      1  0.2987620000000  0.4255270000000  0.3303110000000 1.0
C      1  0.3067580000000  0.6856400000000  0.5030600000000 1.0
C      1  0.4432660000000  0.7072480000000  0.5834410000000 1.0
C      1  0.4686110000000  0.3150950000000  0.6145320000000 1.0
C      1  0.4424050000000  0.4762920000000  0.2734340000000 1.0
C      1  0.6114070000000  0.3967240000000  0.7452520000000 1.0
C      1  0.5850340000000  0.3299480000000  0.3054020000000 1.0
C      1  0.6004040000000  0.7501430000000  0.4660480000000 1.0
C      1  0.6981570000000  0.4219060000000  0.5620990000000 1.0
C      1  0.6749810000000  0.4950170000000  0.3873030000000 1.0
C      1  0.6853000000000  0.6050350000000  0.5800100000000 1.0
C      1  0.3145470000000  0.3387790000000  0.5738080000000 1.0
C      1  0.3096600000000  0.5164650000000  0.3496780000000 1.0
C      1  0.3214040000000  0.6113550000000  0.5598100000000 1.0
C      1  0.4568410000000  0.3916620000000  0.4419890000000 1.0
C      1  0.4608480000000  0.6238480000000  0.4312530000000 1.0
C      1  0.4948050000000  0.5173520000000  0.6747180000000 1.0
C      1  0.6180100000000  0.4379790000000  0.3090630000000 1.0
C      1  0.6306410000000  0.6989130000000  0.5615400000000 1.0
C      1  0.6401390000000  0.3639960000000  0.6404550000000 1.0
C      1  0.3546530000000  0.4033100000000  0.4920350000000 1.0
C      1  0.3502570000000  0.5727710000000  0.4338740000000 1.0
C      1  0.3450120000000  0.5065770000000  0.5259710000000 1.0
C      1  0.5007290000000  0.4105720000000  0.7525960000000 1.0
C      1  0.4749750000000  0.3142740000000  0.2964470000000 1.0
C      1  0.4940150000000  0.7605920000000  0.4382480000000 1.0
C      1  0.5785570000000  0.3547980000000  0.4811150000000 1.0
C      1  0.6320560000000  0.5996120000000  0.3767090000000 1.0
C      1  0.6218910000000  0.5548780000000  0.6606780000000 1.0
C      1  0.6426150000000  0.3661150000000  0.3933110000000 1.0
C      1  0.6690750000000  0.6617120000000  0.4610680000000 1.0
C      1  0.6795660000000  0.4609260000000  0.6870460000000 1.0
C      1  0.7030180000000  0.5563920000000  0.4786520000000 1.0
C      1  0.7325170000000  0.5093520000000  0.6041890000000 1.0
C      1  0.6934020000000  0.4213180000000  0.4708580000000 1.0
END
