TITL C-986978-6805-979 -0.000355346649913167 3375 -341.443940913888 0 0 60 (C1) n - 1
REM
REM in /home/bkarasulu/work/CARBON/AIRSS/Generating-Clusters/REBO/Higher-Symm/Only-C60
REM
REM
REM
REM
REM
REM ./C.cell (a2850807a9bf4ad07a5b6933b78d9264)
REM AIRSS Version 0.9.1 bugfix July 2018 build 013d7b7c2542+ Fri, 06 Jul 2018 19:26:36 +0100
REM compiler GCC version 9.2.1 20190827 (Red Hat 9.2.1-1)
REM options -cpp -mtune=generic -march=x86-64 -g -O0 -fpre-include=/usr/include/finclude/math-vector-fortran.h
REM seed -322174426 -1724782664 64974247 -1431316987 -499918613 -1962990020 788219510 1665647944 1483971796 709867146 -1494264745 1238609576 -1121905120 -1523230040 -687894995 762501915 -2054477391 867172718 -234302688 2146339380 -1761099352 1855524548 -1896671665 1348291551 -1341080461 -1927836125 -1265886616 2132005878 919474266 1417719646 -1663535105 -1846684981 115315244
REM
CELL 1.54180   15.00000   15.00000   15.00000   90.00000   90.00000   90.00000
LATT -1
SFAC C  
C      1  0.4788520000000  0.5954430000000  0.6391310000000 1.0
C      1  0.5672170000000  0.5239990000000  0.6325880000000 1.0
C      1  0.5195580000000  0.4211670000000  0.6316160000000 1.0
C      1  0.4334020000000  0.4914090000000  0.6349340000000 1.0
C      1  0.6246930000000  0.5459990000000  0.2948670000000 1.0
C      1  0.5525790000000  0.3645660000000  0.2955530000000 1.0
C      1  0.3754950000000  0.4513210000000  0.2965160000000 1.0
C      1  0.4501250000000  0.6339270000000  0.2983720000000 1.0
C      1  0.5787640000000  0.3598420000000  0.3833150000000 1.0
C      1  0.3660870000000  0.4219910000000  0.3827560000000 1.0
C      1  0.4245380000000  0.6407180000000  0.3862080000000 1.0
C      1  0.6327380000000  0.5757240000000  0.3810130000000 1.0
C      1  0.3289530000000  0.6623100000000  0.4163650000000 1.0
C      1  0.6570010000000  0.6707720000000  0.4126030000000 1.0
C      1  0.6731580000000  0.3383460000000  0.4173550000000 1.0
C      1  0.3406470000000  0.3278470000000  0.4146400000000 1.0
C      1  0.4723440000000  0.5752570000000  0.2295200000000 1.0
C      1  0.5620760000000  0.5217360000000  0.2297950000000 1.0
C      1  0.5271730000000  0.4232170000000  0.2277390000000 1.0
C      1  0.4372220000000  0.4766430000000  0.2310540000000 1.0
C      1  0.3768090000000  0.2880160000000  0.5592930000000 1.0
C      1  0.2867340000000  0.6207620000000  0.5586580000000 1.0
C      1  0.6285790000000  0.7106910000000  0.5593980000000 1.0
C      1  0.7094670000000  0.3807890000000  0.5621320000000 1.0
C      1  0.3362210000000  0.5503640000000  0.6262980000000 1.0
C      1  0.5665080000000  0.6571930000000  0.6297050000000 1.0
C      1  0.6509670000000  0.4466080000000  0.6295370000000 1.0
C      1  0.4454280000000  0.3371140000000  0.6270860000000 1.0
C      1  0.7145980000000  0.5041150000000  0.4571580000000 1.0
C      1  0.5055530000000  0.2827360000000  0.4622890000000 1.0
C      1  0.2865330000000  0.4960830000000  0.4581920000000 1.0
C      1  0.4950690000000  0.7180480000000  0.4670680000000 1.0
C      1  0.6386060000000  0.3086030000000  0.5721380000000 1.0
C      1  0.3139620000000  0.3679060000000  0.5692930000000 1.0
C      1  0.3568730000000  0.6925020000000  0.5723680000000 1.0
C      1  0.6956220000000  0.6348710000000  0.5644130000000 1.0
C      1  0.4507100000000  0.3931640000000  0.5281490000000 1.0
C      1  0.3941430000000  0.5492570000000  0.5285060000000 1.0
C      1  0.5509750000000  0.6076770000000  0.5287930000000 1.0
C      1  0.6036450000000  0.4519120000000  0.5270410000000 1.0
C      1  0.7209450000000  0.4088890000000  0.4701700000000 1.0
C      1  0.4089490000000  0.2769000000000  0.4685170000000 1.0
C      1  0.2792670000000  0.5916300000000  0.4671050000000 1.0
C      1  0.5918570000000  0.7217080000000  0.4702220000000 1.0
C      1  0.3445230000000  0.4215150000000  0.6453800000000 1.0
C      1  0.4023030000000  0.6623320000000  0.6533970000000 1.0
C      1  0.6701170000000  0.5743880000000  0.6354030000000 1.0
C      1  0.5835460000000  0.3336540000000  0.6474330000000 1.0
C      1  0.6078360000000  0.5429290000000  0.4813700000000 1.0
C      1  0.5426340000000  0.3899150000000  0.4815860000000 1.0
C      1  0.3939770000000  0.4581540000000  0.4807120000000 1.0
C      1  0.4571400000000  0.6110460000000  0.4861630000000 1.0
C      1  0.7229060000000  0.6082940000000  0.4732250000000 1.0
C      1  0.6111830000000  0.2765050000000  0.4819900000000 1.0
C      1  0.2792060000000  0.3921160000000  0.4790910000000 1.0
C      1  0.3885880000000  0.7243630000000  0.4834400000000 1.0
C      1  0.3808660000000  0.3591590000000  0.7177320000000 1.0
C      1  0.3367860000000  0.6195940000000  0.7163780000000 1.0
C      1  0.6298100000000  0.6256190000000  0.7164330000000 1.0
C      1  0.6379390000000  0.3806480000000  0.7207960000000 1.0
END
