TITL C-986979-5873-1016 1.73366262744929e-06 3375 -334.729728208082 0 0 60 (C1) n - 1
REM
REM in /home/bkarasulu/work/CARBON/AIRSS/Generating-Clusters/REBO/Higher-Symm/Only-C60
REM
REM
REM
REM
REM
REM ./C.cell (a2850807a9bf4ad07a5b6933b78d9264)
REM AIRSS Version 0.9.1 bugfix July 2018 build 013d7b7c2542+ Fri, 06 Jul 2018 19:26:36 +0100
REM compiler GCC version 9.2.1 20190827 (Red Hat 9.2.1-1)
REM options -cpp -mtune=generic -march=x86-64 -g -O0 -fpre-include=/usr/include/finclude/math-vector-fortran.h
REM seed -505632892 1232109612 847280545 -363834142 -7225182 801769718 806975480 2037347799 1372903274 -1268740658 1630080304 1881235409 -1346304024 1868442744 495109966 78631092 -1977624086 421258135 -394038043 672132576 -2024245048 385657260 711707976 921324567 1122993774 -975102747 1902854648 -920166321 1147197404 1705493712 1109673906 707566445 -2082434861
REM
CELL 1.54180   15.00000   15.00000   15.00000   90.00000   90.00000   90.00000
LATT -1
SFAC C  
C      1  0.6589400000000  0.6004110000000  0.4531150000000 1.0
C      1  0.5375750000000  0.6127360000000  0.5286720000000 1.0
C      1  0.5094750000000  0.3693470000000  0.3508040000000 1.0
C      1  0.5808880000000  0.5277760000000  0.7155980000000 1.0
C      1  0.4888350000000  0.4747820000000  0.2187140000000 1.0
C      1  0.3967800000000  0.2697530000000  0.3930290000000 1.0
C      1  0.6826230000000  0.5119240000000  0.3126330000000 1.0
C      1  0.2993660000000  0.5845000000000  0.3666600000000 1.0
C      1  0.6473360000000  0.6878560000000  0.5116560000000 1.0
C      1  0.2833480000000  0.4024220000000  0.3143350000000 1.0
C      1  0.5016270000000  0.5777120000000  0.3526830000000 1.0
C      1  0.3981690000000  0.5241120000000  0.4487920000000 1.0
C      1  0.2305310000000  0.5559480000000  0.4522000000000 1.0
C      1  0.5092580000000  0.4744370000000  0.3097760000000 1.0
C      1  0.7119830000000  0.5181160000000  0.5977680000000 1.0
C      1  0.3550600000000  0.4480740000000  0.7103960000000 1.0
C      1  0.4708570000000  0.6224070000000  0.6727060000000 1.0
C      1  0.5435000000000  0.4093070000000  0.5058900000000 1.0
C      1  0.6150050000000  0.3712860000000  0.6110170000000 1.0
C      1  0.5722270000000  0.4181630000000  0.6873420000000 1.0
C      1  0.4854290000000  0.2988930000000  0.4049070000000 1.0
C      1  0.4815170000000  0.4442860000000  0.7460510000000 1.0
C      1  0.3748100000000  0.5413240000000  0.7153570000000 1.0
C      1  0.4786460000000  0.5571410000000  0.7598740000000 1.0
C      1  0.6514700000000  0.5712020000000  0.6509640000000 1.0
C      1  0.3741370000000  0.5347060000000  0.5437090000000 1.0
C      1  0.3044760000000  0.6949770000000  0.3950700000000 1.0
C      1  0.7043770000000  0.3170860000000  0.5291420000000 1.0
C      1  0.5825640000000  0.7203820000000  0.6631300000000 1.0
C      1  0.6441320000000  0.4350570000000  0.5190720000000 1.0
C      1  0.3901200000000  0.6928580000000  0.4700690000000 1.0
C      1  0.3916800000000  0.4367120000000  0.3831010000000 1.0
C      1  0.3060630000000  0.4575920000000  0.5547680000000 1.0
C      1  0.6337870000000  0.3124820000000  0.4686880000000 1.0
C      1  0.5318080000000  0.2991750000000  0.4969300000000 1.0
C      1  0.5041680000000  0.3500780000000  0.5951350000000 1.0
C      1  0.5822900000000  0.6293390000000  0.3709460000000 1.0
C      1  0.6390060000000  0.3651170000000  0.3890390000000 1.0
C      1  0.4060410000000  0.6119540000000  0.3950080000000 1.0
C      1  0.5994970000000  0.4648610000000  0.3717420000000 1.0
C      1  0.7223570000000  0.3503190000000  0.3308240000000 1.0
C      1  0.6112680000000  0.6535650000000  0.6046770000000 1.0
C      1  0.5770920000000  0.7042520000000  0.4405370000000 1.0
C      1  0.3318640000000  0.3996970000000  0.6216590000000 1.0
C      1  0.5001070000000  0.4955200000000  0.6441970000000 1.0
C      1  0.3148450000000  0.4947280000000  0.3226210000000 1.0
C      1  0.3299390000000  0.6587380000000  0.5604670000000 1.0
C      1  0.7345930000000  0.4561890000000  0.4535270000000 1.0
C      1  0.7411550000000  0.4454860000000  0.3603680000000 1.0
C      1  0.7242570000000  0.5400690000000  0.5044670000000 1.0
C      1  0.5719500000000  0.5305610000000  0.4585620000000 1.0
C      1  0.7203780000000  0.4051630000000  0.5998040000000 1.0
C      1  0.3405850000000  0.3393890000000  0.3677840000000 1.0
C      1  0.4362720000000  0.3804400000000  0.6625200000000 1.0
C      1  0.4662800000000  0.5688300000000  0.5867250000000 1.0
C      1  0.4883090000000  0.7026130000000  0.4846620000000 1.0
C      1  0.3461570000000  0.5927320000000  0.6377190000000 1.0
C      1  0.2307550000000  0.4759770000000  0.5011280000000 1.0
C      1  0.2666430000000  0.6453680000000  0.4804030000000 1.0
C      1  0.4857920000000  0.4640700000000  0.4408580000000 1.0
END
