TITL C-986978-6805-1021 3.009415875588e-06 3375 -375.820220721972 0 0 60 (D6h) n - 1
REM
REM in /home/bkarasulu/work/CARBON/AIRSS/Generating-Clusters/REBO/Higher-Symm/Only-C60
REM
REM
REM
REM
REM
REM ./C.cell (a2850807a9bf4ad07a5b6933b78d9264)
REM AIRSS Version 0.9.1 bugfix July 2018 build 013d7b7c2542+ Fri, 06 Jul 2018 19:26:36 +0100
REM compiler GCC version 9.2.1 20190827 (Red Hat 9.2.1-1)
REM options -cpp -mtune=generic -march=x86-64 -g -O0 -fpre-include=/usr/include/finclude/math-vector-fortran.h
REM seed -447910904 2064751207 1337029660 -750818289 -640262099 425989843 -29227237 -1135154124 565309160 -581934256 -833721372 -1821591264 -812208794 -1236864939 686145074 119475050 -1462076020 -400266705 -1725100257 -332769077 330535246 -1916436422 1339251368 593645779 -1125147107 1421468776 -312762285 -217900102 2129232818 1204252693 1597897240 447970375 1325733490
REM
CELL 1.54180   15.00000   15.00000   15.00000   90.00000   90.00000   90.00000
LATT -1
SFAC C  
C      1  0.2332560000000  0.4491260000000  0.5820660000000 1.0
C      1  0.2332560000000  0.4034920000000  0.4969750000000 1.0
C      1  0.2332560000000  0.4543650000000  0.4149090000000 1.0
C      1  0.2332560000000  0.5508740000000  0.4179340000000 1.0
C      1  0.2332560000000  0.5965080000000  0.5030250000000 1.0
C      1  0.2332560000000  0.5456350000000  0.5850910000000 1.0
C      1  0.7667440000000  0.4491260000000  0.5820660000000 1.0
C      1  0.7667440000000  0.4034920000000  0.4969750000000 1.0
C      1  0.7667440000000  0.4543650000000  0.4149090000000 1.0
C      1  0.7667440000000  0.5508740000000  0.4179340000000 1.0
C      1  0.7667440000000  0.5965080000000  0.5030250000000 1.0
C      1  0.7667440000000  0.5456350000000  0.5850910000000 1.0
C      1  0.5666170000000  0.4215770000000  0.4513850000000 1.0
C      1  0.5666170000000  0.5028900000000  0.4077760000000 1.0
C      1  0.5666180000000  0.5813130000000  0.4563910000000 1.0
C      1  0.5666180000000  0.5784230000000  0.5486150000000 1.0
C      1  0.5666180000000  0.4971100000000  0.5922240000000 1.0
C      1  0.5666180000000  0.4186870000000  0.5436090000000 1.0
C      1  0.4333820000000  0.4215770000000  0.4513850000000 1.0
C      1  0.4333820000000  0.5028900000000  0.4077760000000 1.0
C      1  0.4333820000000  0.5813130000000  0.4563910000000 1.0
C      1  0.4333820000000  0.5784230000000  0.5486150000000 1.0
C      1  0.4333820000000  0.4971100000000  0.5922240000000 1.0
C      1  0.4333820000000  0.4186870000000  0.5436090000000 1.0
C      1  0.3447670000000  0.5059770000000  0.3093040000000 1.0
C      1  0.3447670000000  0.6681360000000  0.4098280000000 1.0
C      1  0.3447670000000  0.6621590000000  0.6005240000000 1.0
C      1  0.3447670000000  0.4940230000000  0.6906960000000 1.0
C      1  0.3447670000000  0.3318640000000  0.5901720000000 1.0
C      1  0.3447670000000  0.3378410000000  0.3994760000000 1.0
C      1  0.6552330000000  0.5059770000000  0.3093040000000 1.0
C      1  0.6552330000000  0.6681360000000  0.4098280000000 1.0
C      1  0.6552330000000  0.6621590000000  0.6005240000000 1.0
C      1  0.6552330000000  0.4940230000000  0.6906960000000 1.0
C      1  0.6552330000000  0.3318640000000  0.5901720000000 1.0
C      1  0.6552330000000  0.3378410000000  0.3994760000000 1.0
C      1  0.4504570000000  0.6716870000000  0.4079240000000 1.0
C      1  0.4504570000000  0.6655840000000  0.6026470000000 1.0
C      1  0.4504570000000  0.4938970000000  0.6947230000000 1.0
C      1  0.4504570000000  0.3283130000000  0.5920760000000 1.0
C      1  0.4504570000000  0.3344160000000  0.3973530000000 1.0
C      1  0.4504570000000  0.5061030000000  0.3052770000000 1.0
C      1  0.5495430000000  0.6716870000000  0.4079240000000 1.0
C      1  0.5495430000000  0.6655840000000  0.6026470000000 1.0
C      1  0.5495430000000  0.4938970000000  0.6947230000000 1.0
C      1  0.5495430000000  0.3283130000000  0.5920760000000 1.0
C      1  0.5495430000000  0.3344160000000  0.3973530000000 1.0
C      1  0.5495430000000  0.5061030000000  0.3052770000000 1.0
C      1  0.6954210000000  0.5876530000000  0.3586030000000 1.0
C      1  0.6954210000000  0.6662800000000  0.5052120000000 1.0
C      1  0.6954210000000  0.5786260000000  0.6466080000000 1.0
C      1  0.6954210000000  0.4123470000000  0.6413970000000 1.0
C      1  0.6954210000000  0.3337200000000  0.4947880000000 1.0
C      1  0.6954210000000  0.4213740000000  0.3533920000000 1.0
C      1  0.3045790000000  0.5876530000000  0.3586030000000 1.0
C      1  0.3045790000000  0.6662800000000  0.5052120000000 1.0
C      1  0.3045790000000  0.5786270000000  0.6466080000000 1.0
C      1  0.3045790000000  0.4123470000000  0.6413970000000 1.0
C      1  0.3045790000000  0.3337200000000  0.4947880000000 1.0
C      1  0.3045790000000  0.4213740000000  0.3533920000000 1.0
END
