TITL C-986979-5873-291 0.00295942275660886 3375 -332.239729760773 0 0 60 (C1) n - 1
REM
REM in /home/bkarasulu/work/CARBON/AIRSS/Generating-Clusters/REBO/Higher-Symm/Only-C60
REM
REM
REM
REM
REM
REM ./C.cell (a2850807a9bf4ad07a5b6933b78d9264)
REM AIRSS Version 0.9.1 bugfix July 2018 build 013d7b7c2542+ Fri, 06 Jul 2018 19:26:36 +0100
REM compiler GCC version 9.2.1 20190827 (Red Hat 9.2.1-1)
REM options -cpp -mtune=generic -march=x86-64 -g -O0 -fpre-include=/usr/include/finclude/math-vector-fortran.h
REM seed -589163373 -40950808 -1085104750 -1987712503 -11904845 -1226025492 500024106 1662172946 1864646615 43058080 -607368407 2028646000 -837162497 -266768673 30623911 -246932121 -1764112976 -661188746 -1694976279 767219058 1980735789 -547391771 1023127045 -290807725 1150002231 -962482637 810778214 -53305721 -183338659 1730486491 1469986422 684186772 -840023400
REM
CELL 1.54180   15.00000   15.00000   15.00000   90.00000   90.00000   90.00000
LATT -1
SFAC C  
C      1  0.6557190000000  0.3553350000000  0.6183740000000 1.0
C      1  0.7081690000000  0.4899870000000  0.6628320000000 1.0
C      1  0.4159430000000  0.4774810000000  0.4295940000000 1.0
C      1  0.5534160000000  0.4892920000000  0.2827360000000 1.0
C      1  0.5441230000000  0.3355080000000  0.6190280000000 1.0
C      1  0.5264700000000  0.2830290000000  0.5228320000000 1.0
C      1  0.4284080000000  0.3119110000000  0.3081210000000 1.0
C      1  0.4695290000000  0.5432530000000  0.2279220000000 1.0
C      1  0.3439020000000  0.3631890000000  0.3646230000000 1.0
C      1  0.4047980000000  0.4847440000000  0.5724950000000 1.0
C      1  0.5260200000000  0.5464950000000  0.5295140000000 1.0
C      1  0.5702630000000  0.5924710000000  0.6859890000000 1.0
C      1  0.3038660000000  0.4554810000000  0.4168240000000 1.0
C      1  0.7309460000000  0.4301140000000  0.5770420000000 1.0
C      1  0.4605290000000  0.4763350000000  0.3407960000000 1.0
C      1  0.3949600000000  0.3704210000000  0.4615140000000 1.0
C      1  0.6249220000000  0.7342620000000  0.4458010000000 1.0
C      1  0.3114590000000  0.5749090000000  0.6019240000000 1.0
C      1  0.6693200000000  0.5816060000000  0.6613710000000 1.0
C      1  0.4403270000000  0.5686330000000  0.4760640000000 1.0
C      1  0.5495120000000  0.4530470000000  0.4689170000000 1.0
C      1  0.3348990000000  0.4039180000000  0.5957280000000 1.0
C      1  0.6320740000000  0.2890660000000  0.5311410000000 1.0
C      1  0.3753270000000  0.3353250000000  0.6419100000000 1.0
C      1  0.5196260000000  0.7395050000000  0.4722980000000 1.0
C      1  0.3695360000000  0.5107660000000  0.2506390000000 1.0
C      1  0.6891940000000  0.3692050000000  0.4905300000000 1.0
C      1  0.6199290000000  0.4306270000000  0.3190920000000 1.0
C      1  0.6975950000000  0.6331960000000  0.5861230000000 1.0
C      1  0.3985620000000  0.6389180000000  0.3665820000000 1.0
C      1  0.4044810000000  0.6584820000000  0.4969100000000 1.0
C      1  0.5185300000000  0.7107740000000  0.3623180000000 1.0
C      1  0.4966910000000  0.4204740000000  0.5602740000000 1.0
C      1  0.6670680000000  0.4975700000000  0.5112520000000 1.0
C      1  0.4786970000000  0.5878740000000  0.3299920000000 1.0
C      1  0.4575140000000  0.3585950000000  0.6753000000000 1.0
C      1  0.3077980000000  0.5254030000000  0.3268600000000 1.0
C      1  0.4163550000000  0.2865670000000  0.5155930000000 1.0
C      1  0.4913460000000  0.5277960000000  0.6361980000000 1.0
C      1  0.3263740000000  0.5847600000000  0.4103950000000 1.0
C      1  0.5309370000000  0.6593650000000  0.5387310000000 1.0
C      1  0.5037420000000  0.3558450000000  0.4443790000000 1.0
C      1  0.4220380000000  0.7312010000000  0.4176930000000 1.0
C      1  0.5482460000000  0.4735800000000  0.7561640000000 1.0
C      1  0.6433720000000  0.4434290000000  0.4178220000000 1.0
C      1  0.5751380000000  0.6253310000000  0.3588900000000 1.0
C      1  0.3801140000000  0.6261990000000  0.6724060000000 1.0
C      1  0.4673420000000  0.6404200000000  0.7021000000000 1.0
C      1  0.3192690000000  0.5236400000000  0.5069970000000 1.0
C      1  0.5940450000000  0.3391310000000  0.3060750000000 1.0
C      1  0.3965930000000  0.4104950000000  0.2762700000000 1.0
C      1  0.5142270000000  0.3142830000000  0.3511980000000 1.0
C      1  0.5348010000000  0.6809880000000  0.6309530000000 1.0
C      1  0.6183870000000  0.4651650000000  0.7025270000000 1.0
C      1  0.6011570000000  0.4523880000000  0.5917210000000 1.0
C      1  0.3560530000000  0.6672210000000  0.5755630000000 1.0
C      1  0.6812200000000  0.5940820000000  0.5011770000000 1.0
C      1  0.3769210000000  0.4772770000000  0.7566430000000 1.0
C      1  0.4554430000000  0.4536740000000  0.7125250000000 1.0
C      1  0.6467600000000  0.6399580000000  0.4267190000000 1.0
END
