TITL C-986973-6940-1082 3.78740084064595e-06 3375 -340.068885579368 0 0 60 (C1) n - 1
REM
REM in /home/bkarasulu/work/CARBON/AIRSS/Generating-Clusters/REBO/Higher-Symm/Only-C60
REM
REM
REM
REM
REM
REM ./C.cell (a2850807a9bf4ad07a5b6933b78d9264)
REM AIRSS Version 0.9.1 bugfix July 2018 build 013d7b7c2542+ Fri, 06 Jul 2018 19:26:36 +0100
REM compiler GCC version 9.2.1 20190827 (Red Hat 9.2.1-1)
REM options -cpp -mtune=generic -march=x86-64 -g -O0 -fpre-include=/usr/include/finclude/math-vector-fortran.h
REM seed 1503029778 304190502 -587619500 1592430587 -170809556 -1174206069 368976648 -78632929 -200022313 452356814 1741508774 2096178919 -1048046390 785994153 1363860667 2090804217 1909213333 2129658381 -948404497 2079744090 2075713697 1037212128 1047176321 1912952424 1874757770 857588892 141676962 -1271073321 -891445794 1446613200 -973399325 593884928 305301972
REM
CELL 1.54180   15.00000   15.00000   15.00000   90.00000   90.00000   90.00000
LATT -1
SFAC C  
C      1  0.6725400000000  0.4695570000000  0.3646700000000 1.0
C      1  0.6278830000000  0.5634010000000  0.7663610000000 1.0
C      1  0.3022520000000  0.7102690000000  0.4580310000000 1.0
C      1  0.4426160000000  0.6450000000000  0.6299540000000 1.0
C      1  0.5112340000000  0.5291330000000  0.2583640000000 1.0
C      1  0.4449990000000  0.4063560000000  0.4487370000000 1.0
C      1  0.4340760000000  0.4869970000000  0.6729560000000 1.0
C      1  0.5764230000000  0.7119300000000  0.5471640000000 1.0
C      1  0.3822440000000  0.3588040000000  0.5663340000000 1.0
C      1  0.5730190000000  0.3256700000000  0.4484680000000 1.0
C      1  0.5823360000000  0.5595340000000  0.6774740000000 1.0
C      1  0.5516690000000  0.2666680000000  0.6356980000000 1.0
C      1  0.6761680000000  0.4719740000000  0.6429450000000 1.0
C      1  0.4093520000000  0.2510040000000  0.5611530000000 1.0
C      1  0.4255290000000  0.5673410000000  0.2426300000000 1.0
C      1  0.4672960000000  0.5120550000000  0.4167540000000 1.0
C      1  0.7403710000000  0.4158940000000  0.5961630000000 1.0
C      1  0.3574950000000  0.5732930000000  0.3092370000000 1.0
C      1  0.3515960000000  0.3119770000000  0.4455440000000 1.0
C      1  0.4795790000000  0.3193480000000  0.6913250000000 1.0
C      1  0.4540850000000  0.4332620000000  0.5529410000000 1.0
C      1  0.5423070000000  0.4914750000000  0.5954170000000 1.0
C      1  0.6178310000000  0.2788880000000  0.5403800000000 1.0
C      1  0.5361110000000  0.7515160000000  0.4245190000000 1.0
C      1  0.6521590000000  0.5657650000000  0.5895490000000 1.0
C      1  0.5028740000000  0.4141300000000  0.6964150000000 1.0
C      1  0.5116530000000  0.2422080000000  0.5323950000000 1.0
C      1  0.2215320000000  0.5262730000000  0.3850890000000 1.0
C      1  0.6027760000000  0.6899300000000  0.4185200000000 1.0
C      1  0.4594190000000  0.8008520000000  0.4857500000000 1.0
C      1  0.6412890000000  0.5633220000000  0.4202020000000 1.0
C      1  0.8172290000000  0.4439900000000  0.5583410000000 1.0
C      1  0.4792590000000  0.5731510000000  0.6795870000000 1.0
C      1  0.6416210000000  0.6338860000000  0.5097800000000 1.0
C      1  0.3521410000000  0.4988380000000  0.6080110000000 1.0
C      1  0.3908720000000  0.5750020000000  0.3985420000000 1.0
C      1  0.6455740000000  0.4126400000000  0.4568070000000 1.0
C      1  0.4605440000000  0.5437310000000  0.5457250000000 1.0
C      1  0.5005540000000  0.7102790000000  0.5959670000000 1.0
C      1  0.2868480000000  0.4672550000000  0.5351060000000 1.0
C      1  0.6112010000000  0.6291330000000  0.3381280000000 1.0
C      1  0.6331990000000  0.3253080000000  0.6636120000000 1.0
C      1  0.4642250000000  0.2998510000000  0.4505340000000 1.0
C      1  0.4461360000000  0.7900740000000  0.3746940000000 1.0
C      1  0.5979420000000  0.5728060000000  0.2605490000000 1.0
C      1  0.3031740000000  0.3764330000000  0.5031030000000 1.0
C      1  0.3285000000000  0.6126910000000  0.4753390000000 1.0
C      1  0.3739710000000  0.5998820000000  0.5636040000000 1.0
C      1  0.7037280000000  0.3271860000000  0.5917460000000 1.0
C      1  0.6715310000000  0.5081500000000  0.2656270000000 1.0
C      1  0.2647070000000  0.5516730000000  0.3069100000000 1.0
C      1  0.5452630000000  0.5489900000000  0.4756210000000 1.0
C      1  0.3593700000000  0.7821730000000  0.4423770000000 1.0
C      1  0.5832370000000  0.4003630000000  0.3631280000000 1.0
C      1  0.4009570000000  0.4173830000000  0.3512450000000 1.0
C      1  0.3951030000000  0.2993200000000  0.6554960000000 1.0
C      1  0.6047710000000  0.4173860000000  0.6861270000000 1.0
C      1  0.2607680000000  0.5341570000000  0.4709920000000 1.0
C      1  0.5049310000000  0.4548610000000  0.3302880000000 1.0
C      1  0.6219320000000  0.4795830000000  0.5218790000000 1.0
END
