TITL C-986976-6631-1190 0.0242744664584652 3375 -332.039168169756 0 0 60 (C1) n - 1
REM
REM in /home/bkarasulu/work/CARBON/AIRSS/Generating-Clusters/REBO/Higher-Symm/Only-C60
REM
REM
REM
REM
REM
REM ./C.cell (a2850807a9bf4ad07a5b6933b78d9264)
REM AIRSS Version 0.9.1 bugfix July 2018 build 013d7b7c2542+ Fri, 06 Jul 2018 19:26:36 +0100
REM compiler GCC version 9.2.1 20190827 (Red Hat 9.2.1-1)
REM options -cpp -mtune=generic -march=x86-64 -g -O0 -fpre-include=/usr/include/finclude/math-vector-fortran.h
REM seed 1529328264 1766889068 -925924715 -813871553 1317212558 -1032114469 2089164023 36928350 16584722 -2014459443 -1402613600 401447114 1217142117 -1391284514 -1358068148 311013520 -1157686613 -1145350765 2106999245 96327703 -707238705 -1620329435 150300873 175627250 363817525 705971956 389385625 -755654413 -1180328252 802732060 1130696922 1155713072 25200357
REM
CELL 1.54180   15.00000   15.00000   15.00000   90.00000   90.00000   90.00000
LATT -1
SFAC C  
C      1  0.5391920000000  0.4389820000000  0.2649620000000 1.0
C      1  0.5505200000000  0.2683030000000  0.4732000000000 1.0
C      1  0.5601480000000  0.3971850000000  0.7117090000000 1.0
C      1  0.5528320000000  0.6795430000000  0.6658470000000 1.0
C      1  0.5442070000000  0.7002380000000  0.3825430000000 1.0
C      1  0.5265660000000  0.5362310000000  0.2793600000000 1.0
C      1  0.5380370000000  0.7237070000000  0.4778400000000 1.0
C      1  0.5445580000000  0.5958990000000  0.7167300000000 1.0
C      1  0.5727560000000  0.3121730000000  0.6624300000000 1.0
C      1  0.5567870000000  0.2912120000000  0.3776260000000 1.0
C      1  0.3565660000000  0.4624420000000  0.6619700000000 1.0
C      1  0.3515790000000  0.6519230000000  0.5958200000000 1.0
C      1  0.3540380000000  0.6431370000000  0.3827620000000 1.0
C      1  0.3603460000000  0.4521760000000  0.3176950000000 1.0
C      1  0.3650520000000  0.3481390000000  0.4863310000000 1.0
C      1  0.3552930000000  0.5713350000000  0.6643970000000 1.0
C      1  0.3808050000000  0.3840190000000  0.5946320000000 1.0
C      1  0.3610650000000  0.3652940000000  0.3818820000000 1.0
C      1  0.3304690000000  0.5513880000000  0.3354120000000 1.0
C      1  0.3543880000000  0.6711690000000  0.4856300000000 1.0
C      1  0.2862840000000  0.2722360000000  0.5152170000000 1.0
C      1  0.2846960000000  0.4288070000000  0.7268090000000 1.0
C      1  0.2991120000000  0.7289820000000  0.6385260000000 1.0
C      1  0.3254260000000  0.7216680000000  0.3242330000000 1.0
C      1  0.3362420000000  0.4250790000000  0.2222240000000 1.0
C      1  0.3014350000000  0.7613990000000  0.4928290000000 1.0
C      1  0.3028540000000  0.5992640000000  0.7483760000000 1.0
C      1  0.3055670000000  0.3067020000000  0.5977490000000 1.0
C      1  0.3086220000000  0.2901090000000  0.3366070000000 1.0
C      1  0.2414660000000  0.5644850000000  0.2880560000000 1.0
C      1  0.4697020000000  0.3234130000000  0.5163030000000 1.0
C      1  0.4656280000000  0.4386660000000  0.6812860000000 1.0
C      1  0.4616940000000  0.6391220000000  0.6219440000000 1.0
C      1  0.4599540000000  0.6390290000000  0.4111330000000 1.0
C      1  0.4654800000000  0.4385420000000  0.3450850000000 1.0
C      1  0.4597860000000  0.6664910000000  0.5209180000000 1.0
C      1  0.4604170000000  0.5426440000000  0.6822920000000 1.0
C      1  0.4826270000000  0.3473230000000  0.6162810000000 1.0
C      1  0.4709070000000  0.3512890000000  0.4060940000000 1.0
C      1  0.4436100000000  0.5507200000000  0.3497830000000 1.0
C      1  0.6945640000000  0.6596230000000  0.5060030000000 1.0
C      1  0.6856670000000  0.5433730000000  0.3491140000000 1.0
C      1  0.7057380000000  0.3678200000000  0.4125400000000 1.0
C      1  0.7212240000000  0.3678590000000  0.5999840000000 1.0
C      1  0.7040670000000  0.5490590000000  0.6640150000000 1.0
C      1  0.7076970000000  0.3330200000000  0.4999820000000 1.0
C      1  0.6929460000000  0.4488640000000  0.3447210000000 1.0
C      1  0.6942850000000  0.6250460000000  0.4180320000000 1.0
C      1  0.7044610000000  0.6226240000000  0.6053490000000 1.0
C      1  0.7163700000000  0.4432540000000  0.6553550000000 1.0
C      1  0.6198260000000  0.7330530000000  0.5231890000000 1.0
C      1  0.6079920000000  0.5833800000000  0.2868680000000 1.0
C      1  0.6364510000000  0.3288230000000  0.3442140000000 1.0
C      1  0.6494060000000  0.2930630000000  0.6123650000000 1.0
C      1  0.6244900000000  0.5506930000000  0.7349480000000 1.0
C      1  0.6328650000000  0.2596290000000  0.5180970000000 1.0
C      1  0.6253340000000  0.4027710000000  0.2751980000000 1.0
C      1  0.6224120000000  0.6600440000000  0.3504890000000 1.0
C      1  0.6313640000000  0.6964840000000  0.6169190000000 1.0
C      1  0.6361260000000  0.4510530000000  0.7220970000000 1.0
END
