TITL C-986979-5873-817 0.000115126025209162 3375 -337.963091624543 0 0 60 (C1) n - 1
REM
REM in /home/bkarasulu/work/CARBON/AIRSS/Generating-Clusters/REBO/Higher-Symm/Only-C60
REM
REM
REM
REM
REM
REM ./C.cell (a2850807a9bf4ad07a5b6933b78d9264)
REM AIRSS Version 0.9.1 bugfix July 2018 build 013d7b7c2542+ Fri, 06 Jul 2018 19:26:36 +0100
REM compiler GCC version 9.2.1 20190827 (Red Hat 9.2.1-1)
REM options -cpp -mtune=generic -march=x86-64 -g -O0 -fpre-include=/usr/include/finclude/math-vector-fortran.h
REM seed -1240205341 39885538 14815027 1983123017 -1538395222 620672597 2030924032 -291486153 -185104815 988681752 -924361361 -2127700492 -1757002061 930101365 -1791708240 -2134939836 -371310757 -1811356680 31534685 -711750012 -640970008 425525085 -4696132 31582936 600451520 1776653993 1911802519 1060202603 -352659155 -1411710436 -1967300590 -1622872259 178325156
REM
CELL 1.54180   15.00000   15.00000   15.00000   90.00000   90.00000   90.00000
LATT -1
SFAC C  
C      1  0.7076320000000  0.6162130000000  0.3359800000000 1.0
C      1  0.7094150000000  0.6164500000000  0.6628870000000 1.0
C      1  0.4455600000000  0.3164330000000  0.6503850000000 1.0
C      1  0.4439660000000  0.3161710000000  0.3516930000000 1.0
C      1  0.7258860000000  0.5325840000000  0.3995710000000 1.0
C      1  0.7269790000000  0.5327350000000  0.5992140000000 1.0
C      1  0.4659670000000  0.4653300000000  0.2600120000000 1.0
C      1  0.4686120000000  0.4656580000000  0.7417220000000 1.0
C      1  0.4910550000000  0.3774510000000  0.2985500000000 1.0
C      1  0.4932260000000  0.3777390000000  0.7029820000000 1.0
C      1  0.4406100000000  0.6620900000000  0.3139180000000 1.0
C      1  0.4426330000000  0.6623350000000  0.6877610000000 1.0
C      1  0.6214300000000  0.6098930000000  0.3012390000000 1.0
C      1  0.6235990000000  0.6101740000000  0.6985830000000 1.0
C      1  0.3800240000000  0.2724380000000  0.4596700000000 1.0
C      1  0.3805220000000  0.2724830000000  0.5431650000000 1.0
C      1  0.4794950000000  0.5639620000000  0.3151380000000 1.0
C      1  0.4815350000000  0.5642150000000  0.6863130000000 1.0
C      1  0.3856330000000  0.5053840000000  0.3149140000000 1.0
C      1  0.3876670000000  0.5056340000000  0.6876870000000 1.0
C      1  0.3786110000000  0.5648170000000  0.5461360000000 1.0
C      1  0.3781080000000  0.5647280000000  0.4563540000000 1.0
C      1  0.5498780000000  0.6609180000000  0.4527240000000 1.0
C      1  0.5504050000000  0.6609900000000  0.5478160000000 1.0
C      1  0.1806060000000  0.4471460000000  0.4321910000000 1.0
C      1  0.1849160000000  0.4453830000000  0.5348870000000 1.0
C      1  0.5403960000000  0.5601070000000  0.5932650000000 1.0
C      1  0.5393440000000  0.5599720000000  0.4075270000000 1.0
C      1  0.6348830000000  0.5473190000000  0.4555510000000 1.0
C      1  0.6353790000000  0.5473840000000  0.5442010000000 1.0
C      1  0.3748260000000  0.6583700000000  0.4069340000000 1.0
C      1  0.3758670000000  0.6585270000000  0.5954530000000 1.0
C      1  0.5798910000000  0.2947440000000  0.5479740000000 1.0
C      1  0.5793660000000  0.2946710000000  0.4527330000000 1.0
C      1  0.4883580000000  0.4724300000000  0.4491730000000 1.0
C      1  0.4889360000000  0.4725290000000  0.5523140000000 1.0
C      1  0.3611260000000  0.3617300000000  0.5999040000000 1.0
C      1  0.3600690000000  0.3614820000000  0.4028840000000 1.0
C      1  0.6400330000000  0.3524540000000  0.4087150000000 1.0
C      1  0.6410300000000  0.3526000000000  0.5912380000000 1.0
C      1  0.8112780000000  0.5188810000000  0.5629520000000 1.0
C      1  0.8105750000000  0.5187790000000  0.4349310000000 1.0
C      1  0.5018620000000  0.2641400000000  0.4061730000000 1.0
C      1  0.5028980000000  0.2642860000000  0.5954170000000 1.0
C      1  0.5493130000000  0.4369880000000  0.3600990000000 1.0
C      1  0.5508510000000  0.4371890000000  0.6407630000000 1.0
C      1  0.6037310000000  0.5159540000000  0.7015740000000 1.0
C      1  0.6015190000000  0.5156750000000  0.2986060000000 1.0
C      1  0.5523850000000  0.6727690000000  0.3386740000000 1.0
C      1  0.5541420000000  0.6730000000000  0.6618190000000 1.0
C      1  0.2762790000000  0.4016760000000  0.5544860000000 1.0
C      1  0.2750240000000  0.4019610000000  0.4485230000000 1.0
C      1  0.3863590000000  0.4662820000000  0.5920400000000 1.0
C      1  0.3853140000000  0.4660460000000  0.4105880000000 1.0
C      1  0.3037590000000  0.7129200000000  0.4592620000000 1.0
C      1  0.3042340000000  0.7129980000000  0.5438240000000 1.0
C      1  0.6630830000000  0.4500550000000  0.6308710000000 1.0
C      1  0.6616470000000  0.4498620000000  0.3687310000000 1.0
C      1  0.4706100000000  0.7183580000000  0.4052490000000 1.0
C      1  0.4716640000000  0.7185070000000  0.5960590000000 1.0
END
