TITL C-986975-4297-1064 6.89047600159836e-05 3375 -344.741201925114 0 0 60 (C5) n - 1
REM
REM in /home/bkarasulu/work/CARBON/AIRSS/Generating-Clusters/REBO/Higher-Symm/Only-C60
REM
REM
REM
REM
REM
REM ./C.cell (a2850807a9bf4ad07a5b6933b78d9264)
REM AIRSS Version 0.9.1 bugfix July 2018 build 013d7b7c2542+ Fri, 06 Jul 2018 19:26:36 +0100
REM compiler GCC version 9.2.1 20190827 (Red Hat 9.2.1-1)
REM options -cpp -mtune=generic -march=x86-64 -g -O0 -fpre-include=/usr/include/finclude/math-vector-fortran.h
REM seed -1780864709 -25455074 2126289169 18445945 759436644 -318963135 171632751 1503304441 1545965978 -878467676 -877131732 790440359 -1921644869 287560827 269407686 1527855283 -1379422468 -1478463881 2080840615 -1635809500 -810344273 1666617439 -845492713 1418157605 -155832821 679543608 -958688652 -173430608 1539261357 -1825703603 1073587146 -85147919 1699891483
REM
CELL 1.54180   15.00000   15.00000   15.00000   90.00000   90.00000   90.00000
LATT -1
SFAC C  
C      1  0.4885650000000  0.6724550000000  0.5642270000000 1.0
C      1  0.4885630000000  0.4922080000000  0.6838620000000 1.0
C      1  0.4885620000000  0.3227290000000  0.5494050000000 1.0
C      1  0.4885640000000  0.3982330000000  0.3466720000000 1.0
C      1  0.4885660000000  0.6143750000000  0.3558330000000 1.0
C      1  0.6570270000000  0.4024430000000  0.3544150000000 1.0
C      1  0.6570290000000  0.6083130000000  0.3622320000000 1.0
C      1  0.6570280000000  0.6644960000000  0.5604410000000 1.0
C      1  0.6570260000000  0.4933500000000  0.6751240000000 1.0
C      1  0.6570250000000  0.3313920000000  0.5477930000000 1.0
C      1  0.7015070000000  0.5611670000000  0.5718390000000 1.0
C      1  0.7015060000000  0.4505790000000  0.5803750000000 1.0
C      1  0.7015070000000  0.4082860000000  0.4778370000000 1.0
C      1  0.7015080000000  0.4927370000000  0.4059290000000 1.0
C      1  0.7015080000000  0.5872230000000  0.4640250000000 1.0
C      1  0.4724130000000  0.4337530000000  0.5656180000000 1.0
C      1  0.4724140000000  0.4171230000000  0.4572720000000 1.0
C      1  0.4724150000000  0.5150260000000  0.4079750000000 1.0
C      1  0.4724150000000  0.5921640000000  0.4858530000000 1.0
C      1  0.4724140000000  0.5419350000000  0.5832810000000 1.0
C      1  0.3410110000000  0.6921370000000  0.5121520000000 1.0
C      1  0.3410090000000  0.5478160000000  0.6864860000000 1.0
C      1  0.3410080000000  0.3374170000000  0.6031020000000 1.0
C      1  0.3410100000000  0.3517030000000  0.3772320000000 1.0
C      1  0.3410120000000  0.5709330000000  0.3210220000000 1.0
C      1  0.3068370000000  0.4187510000000  0.4584740000000 1.0
C      1  0.3068380000000  0.5143860000000  0.4098930000000 1.0
C      1  0.3068380000000  0.5901420000000  0.4858350000000 1.0
C      1  0.3068370000000  0.5413270000000  0.5813510000000 1.0
C      1  0.3068370000000  0.4354010000000  0.5644410000000 1.0
C      1  0.3897520000000  0.5685800000000  0.2448470000000 1.0
C      1  0.3897520000000  0.7638580000000  0.4863760000000 1.0
C      1  0.3897490000000  0.5944940000000  0.7467320000000 1.0
C      1  0.3897470000000  0.2945440000000  0.6661120000000 1.0
C      1  0.3897490000000  0.2785280000000  0.3559300000000 1.0
C      1  0.3894660000000  0.4558700000000  0.6402690000000 1.0
C      1  0.3894670000000  0.3529590000000  0.5013740000000 1.0
C      1  0.3894680000000  0.4532550000000  0.3605790000000 1.0
C      1  0.3894690000000  0.6181520000000  0.4124580000000 1.0
C      1  0.3894680000000  0.6197680000000  0.5853160000000 1.0
C      1  0.5686860000000  0.6686390000000  0.6199300000000 1.0
C      1  0.5686840000000  0.4380520000000  0.6974470000000 1.0
C      1  0.5686840000000  0.2930740000000  0.5020990000000 1.0
C      1  0.5686870000000  0.4340600000000  0.3038520000000 1.0
C      1  0.5686880000000  0.6661720000000  0.3766750000000 1.0
C      1  0.6450300000000  0.5205390000000  0.3093170000000 1.0
C      1  0.6450300000000  0.6876980000000  0.4606110000000 1.0
C      1  0.6450280000000  0.5954630000000  0.6663410000000 1.0
C      1  0.6450270000000  0.3713000000000  0.6421940000000 1.0
C      1  0.6450280000000  0.3249950000000  0.4215410000000 1.0
C      1  0.5565340000000  0.2599450000000  0.3975940000000 1.0
C      1  0.5565380000000  0.5232130000000  0.2400500000000 1.0
C      1  0.5565380000000  0.7544000000000  0.4417490000000 1.0
C      1  0.5565350000000  0.6340140000000  0.7239490000000 1.0
C      1  0.5565330000000  0.3284240000000  0.6966600000000 1.0
C      1  0.4831710000000  0.5771630000000  0.7422180000000 1.0
C      1  0.4831700000000  0.2934820000000  0.6482360000000 1.0
C      1  0.4831720000000  0.2952020000000  0.3493960000000 1.0
C      1  0.4831750000000  0.5799460000000  0.2586860000000 1.0
C      1  0.4831740000000  0.7542080000000  0.5014630000000 1.0
END
