TITL C-986979-5873-627 -2.02400651985288e-05 3375 -358.595484197994 0 0 60 (Td) n - 1
REM
REM in /home/bkarasulu/work/CARBON/AIRSS/Generating-Clusters/REBO/Higher-Symm/Only-C60
REM
REM
REM
REM
REM
REM ./C.cell (a2850807a9bf4ad07a5b6933b78d9264)
REM AIRSS Version 0.9.1 bugfix July 2018 build 013d7b7c2542+ Fri, 06 Jul 2018 19:26:36 +0100
REM compiler GCC version 9.2.1 20190827 (Red Hat 9.2.1-1)
REM options -cpp -mtune=generic -march=x86-64 -g -O0 -fpre-include=/usr/include/finclude/math-vector-fortran.h
REM seed 159304598 1642447193 -593109477 -1541672793 2131989063 1997524500 -827124759 225292752 1144840092 -672341886 -1827337217 -1718320326 -1440655989 804464593 -1294447187 -1504950696 -1688770986 -1126624963 -584615964 1714380621 1124353192 -1489217306 -441045787 -793421648 -1800486459 1042350389 -2078548503 814141137 -145173113 361570629 834227686 2045229016 -882124198
REM
CELL 1.54180   15.00000   15.00000   15.00000   90.00000   90.00000   90.00000
LATT -1
SFAC C  
C      1  0.6893880000000  0.4620440000000  0.3908020000000 1.0
C      1  0.3908020000000  0.6893880000000  0.4620440000000 1.0
C      1  0.4620440000000  0.3908020000000  0.6893880000000 1.0
C      1  0.3106120000000  0.5379560000000  0.3908020000000 1.0
C      1  0.3106120000000  0.4620440000000  0.6091980000000 1.0
C      1  0.6893880000000  0.5379560000000  0.6091980000000 1.0
C      1  0.6091980000000  0.3106120000000  0.4620440000000 1.0
C      1  0.6091980000000  0.6893880000000  0.5379560000000 1.0
C      1  0.3908020000000  0.3106120000000  0.5379560000000 1.0
C      1  0.5379560000000  0.6091980000000  0.6893880000000 1.0
C      1  0.5379560000000  0.3908020000000  0.3106120000000 1.0
C      1  0.4620440000000  0.6091980000000  0.3106120000000 1.0
C      1  0.4620440000000  0.6893880000000  0.3908020000000 1.0
C      1  0.6893880000000  0.3908020000000  0.4620440000000 1.0
C      1  0.3908020000000  0.4620440000000  0.6893880000000 1.0
C      1  0.5379560000000  0.3106120000000  0.3908020000000 1.0
C      1  0.4620440000000  0.3106120000000  0.6091980000000 1.0
C      1  0.5379560000000  0.6893880000000  0.6091980000000 1.0
C      1  0.3106120000000  0.6091980000000  0.4620440000000 1.0
C      1  0.6893880000000  0.6091980000000  0.5379560000000 1.0
C      1  0.3106120000000  0.3908020000000  0.5379560000000 1.0
C      1  0.6091980000000  0.5379560000000  0.6893880000000 1.0
C      1  0.3908020000000  0.5379560000000  0.3106120000000 1.0
C      1  0.6091980000000  0.4620440000000  0.3106120000000 1.0
C      1  0.4677120000000  0.2353680000000  0.4083810000000 1.0
C      1  0.4083810000000  0.4677120000000  0.2353680000000 1.0
C      1  0.2353680000000  0.4083810000000  0.4677120000000 1.0
C      1  0.5322880000000  0.7646320000000  0.4083810000000 1.0
C      1  0.5322880000000  0.2353680000000  0.5916190000000 1.0
C      1  0.4677120000000  0.7646320000000  0.5916190000000 1.0
C      1  0.5916190000000  0.5322880000000  0.2353680000000 1.0
C      1  0.5916190000000  0.4677120000000  0.7646320000000 1.0
C      1  0.4083810000000  0.5322880000000  0.7646320000000 1.0
C      1  0.7646320000000  0.5916190000000  0.4677120000000 1.0
C      1  0.7646320000000  0.4083810000000  0.5322880000000 1.0
C      1  0.2353680000000  0.5916190000000  0.5322880000000 1.0
C      1  0.2353680000000  0.4677120000000  0.4083810000000 1.0
C      1  0.4677120000000  0.4083810000000  0.2353680000000 1.0
C      1  0.4083810000000  0.2353680000000  0.4677120000000 1.0
C      1  0.7646320000000  0.5322880000000  0.4083810000000 1.0
C      1  0.2353680000000  0.5322880000000  0.5916190000000 1.0
C      1  0.7646320000000  0.4677120000000  0.5916190000000 1.0
C      1  0.5322880000000  0.5916190000000  0.2353680000000 1.0
C      1  0.4677120000000  0.5916190000000  0.7646320000000 1.0
C      1  0.5322880000000  0.4083810000000  0.7646320000000 1.0
C      1  0.5916190000000  0.7646320000000  0.4677120000000 1.0
C      1  0.4083810000000  0.7646320000000  0.5322880000000 1.0
C      1  0.5916190000000  0.2353680000000  0.5322880000000 1.0
C      1  0.5237710000000  0.3999520000000  0.6000480000000 1.0
C      1  0.6000480000000  0.3999520000000  0.5237710000000 1.0
C      1  0.5237710000000  0.6000480000000  0.3999520000000 1.0
C      1  0.6000480000000  0.5237710000000  0.3999520000000 1.0
C      1  0.3999520000000  0.6000480000000  0.5237710000000 1.0
C      1  0.3999520000000  0.4762290000000  0.3999520000000 1.0
C      1  0.3999520000000  0.5237710000000  0.6000480000000 1.0
C      1  0.6000480000000  0.4762290000000  0.6000480000000 1.0
C      1  0.3999520000000  0.3999520000000  0.4762290000000 1.0
C      1  0.4762290000000  0.6000480000000  0.6000480000000 1.0
C      1  0.4762290000000  0.3999520000000  0.3999520000000 1.0
C      1  0.6000480000000  0.6000480000000  0.4762290000000 1.0
END
