TITL C-986973-6940-65 5.86948275844756e-06 3375 -357.285831155677 0 0 60 (D2) n - 1
REM
REM in /home/bkarasulu/work/CARBON/AIRSS/Generating-Clusters/REBO/Higher-Symm/Only-C60
REM
REM
REM
REM
REM
REM ./C.cell (a2850807a9bf4ad07a5b6933b78d9264)
REM AIRSS Version 0.9.1 bugfix July 2018 build 013d7b7c2542+ Fri, 06 Jul 2018 19:26:36 +0100
REM compiler GCC version 9.2.1 20190827 (Red Hat 9.2.1-1)
REM options -cpp -mtune=generic -march=x86-64 -g -O0 -fpre-include=/usr/include/finclude/math-vector-fortran.h
REM seed 1045566007 2074236893 259233190 -1930349452 -581783337 -1541507295 -1487644478 -1059819709 1368561818 2001580542 -2094014951 659427870 2043439272 -1854464028 4731392 -1059165826 557494677 -509127532 304459986 2040466377 -413403065 1086927911 2025251721 -2141565264 -1881508868 -1482853030 -1651857209 205370322 520700602 -1474260241 1034400125 604587697 -1855676925
REM
CELL 1.54180   15.00000   15.00000   15.00000   90.00000   90.00000   90.00000
LATT -1
SFAC C  
C      1  0.4628480000000  0.4107950000000  0.6829910000000 1.0
C      1  0.5371520000000  0.4107950000000  0.3170090000000 1.0
C      1  0.4556680000000  0.5860850000000  0.6887450000000 1.0
C      1  0.5443320000000  0.5860850000000  0.3112540000000 1.0
C      1  0.5443310000000  0.4139150000000  0.6887460000000 1.0
C      1  0.4556690000000  0.4139150000000  0.3112550000000 1.0
C      1  0.5371510000000  0.5892050000000  0.6829910000000 1.0
C      1  0.4628490000000  0.5892050000000  0.3170090000000 1.0
C      1  0.5528750000000  0.2809950000000  0.5589760000000 1.0
C      1  0.4471250000000  0.2809940000000  0.4410240000000 1.0
C      1  0.5479720000000  0.7179790000000  0.5455530000000 1.0
C      1  0.4520280000000  0.7179790000000  0.4544470000000 1.0
C      1  0.4520280000000  0.2820200000000  0.5455530000000 1.0
C      1  0.5479720000000  0.2820210000000  0.4544470000000 1.0
C      1  0.4471250000000  0.7190060000000  0.5589750000000 1.0
C      1  0.5528760000000  0.7190060000000  0.4410240000000 1.0
C      1  0.7127670000000  0.6647940000000  0.5421270000000 1.0
C      1  0.2872330000000  0.6647940000000  0.4578730000000 1.0
C      1  0.7144030000000  0.3376030000000  0.5513860000000 1.0
C      1  0.2855970000000  0.3376030000000  0.4486140000000 1.0
C      1  0.2855970000000  0.6623970000000  0.5513850000000 1.0
C      1  0.7144040000000  0.6623970000000  0.4486150000000 1.0
C      1  0.2872320000000  0.3352060000000  0.5421250000000 1.0
C      1  0.7127670000000  0.3352060000000  0.4578750000000 1.0
C      1  0.5544920000000  0.4172260000000  0.5560660000000 1.0
C      1  0.4455070000000  0.4172270000000  0.4439340000000 1.0
C      1  0.5473040000000  0.5847800000000  0.5463460000000 1.0
C      1  0.4526960000000  0.5847800000000  0.4536540000000 1.0
C      1  0.4526960000000  0.4152200000000  0.5463460000000 1.0
C      1  0.5473030000000  0.4152200000000  0.4536550000000 1.0
C      1  0.4455070000000  0.5827730000000  0.5560660000000 1.0
C      1  0.5544930000000  0.5827740000000  0.4439340000000 1.0
C      1  0.6195470000000  0.3463930000000  0.6018770000000 1.0
C      1  0.3804530000000  0.3463930000000  0.3981240000000 1.0
C      1  0.6158840000000  0.6537300000000  0.5932000000000 1.0
C      1  0.3841160000000  0.6537300000000  0.4067990000000 1.0
C      1  0.3841160000000  0.3462690000000  0.5932000000000 1.0
C      1  0.6158840000000  0.3462700000000  0.4068000000000 1.0
C      1  0.3804530000000  0.6536070000000  0.6018760000000 1.0
C      1  0.6195480000000  0.6536070000000  0.3981240000000 1.0
C      1  0.6382110000000  0.5481330000000  0.3450020000000 1.0
C      1  0.3617890000000  0.5481330000000  0.6549970000000 1.0
C      1  0.6351330000000  0.4435300000000  0.3485620000000 1.0
C      1  0.3648680000000  0.4435290000000  0.6514370000000 1.0
C      1  0.3648690000000  0.5564710000000  0.3485620000000 1.0
C      1  0.6351320000000  0.5564710000000  0.6514380000000 1.0
C      1  0.3617900000000  0.4518670000000  0.3450020000000 1.0
C      1  0.6382100000000  0.4518670000000  0.6549990000000 1.0
C      1  0.2742560000000  0.5746310000000  0.5962960000000 1.0
C      1  0.7257450000000  0.5746310000000  0.4037040000000 1.0
C      1  0.2743610000000  0.4202210000000  0.5918530000000 1.0
C      1  0.7256390000000  0.4202220000000  0.4081470000000 1.0
C      1  0.7256380000000  0.5797780000000  0.5918540000000 1.0
C      1  0.2743620000000  0.5797780000000  0.4081460000000 1.0
C      1  0.7257440000000  0.4253690000000  0.5962970000000 1.0
C      1  0.2742560000000  0.4253690000000  0.4037030000000 1.0
C      1  0.2420830000000  0.5013430000000  0.4513630000000 1.0
C      1  0.7579170000000  0.5013440000000  0.5486370000000 1.0
C      1  0.7579170000000  0.4986570000000  0.4513640000000 1.0
C      1  0.2420830000000  0.4986560000000  0.5486360000000 1.0
END
