TITL C-986979-5873-73 7.73571744452648e-06 3375 -345.467012371984 0 0 60 (C1) n - 1
REM
REM in /home/bkarasulu/work/CARBON/AIRSS/Generating-Clusters/REBO/Higher-Symm/Only-C60
REM
REM
REM
REM
REM
REM ./C.cell (a2850807a9bf4ad07a5b6933b78d9264)
REM AIRSS Version 0.9.1 bugfix July 2018 build 013d7b7c2542+ Fri, 06 Jul 2018 19:26:36 +0100
REM compiler GCC version 9.2.1 20190827 (Red Hat 9.2.1-1)
REM options -cpp -mtune=generic -march=x86-64 -g -O0 -fpre-include=/usr/include/finclude/math-vector-fortran.h
REM seed 2056227338 1228692834 -1781173127 -1235887058 -154072989 -666064517 587446795 -377823468 643351091 -1979567749 621417361 -1406308360 1290109703 45289360 664759133 965782263 116279405 -22389728 -1877272632 412376024 -161953331 -1743636026 1295066499 1225468151 1594557253 1138839607 2128462182 -1885104195 1835495058 -238834222 528527552 -1377769726 -851396123
REM
CELL 1.54180   15.00000   15.00000   15.00000   90.00000   90.00000   90.00000
LATT -1
SFAC C  
C      1  0.3123490000000  0.6758170000000  0.4916110000000 1.0
C      1  0.4270040000000  0.6647070000000  0.6646540000000 1.0
C      1  0.6210670000000  0.6561480000000  0.6034220000000 1.0
C      1  0.6291440000000  0.6405320000000  0.4166670000000 1.0
C      1  0.4583350000000  0.6722670000000  0.3455900000000 1.0
C      1  0.5316650000000  0.3242920000000  0.5893570000000 1.0
C      1  0.5977750000000  0.3225480000000  0.5003690000000 1.0
C      1  0.5338670000000  0.3199580000000  0.4099770000000 1.0
C      1  0.4278730000000  0.3211990000000  0.4424660000000 1.0
C      1  0.4272080000000  0.3229710000000  0.5528520000000 1.0
C      1  0.5332610000000  0.6686480000000  0.6748150000000 1.0
C      1  0.6771580000000  0.6666430000000  0.5160470000000 1.0
C      1  0.5699870000000  0.6576120000000  0.3313500000000 1.0
C      1  0.3615610000000  0.6768160000000  0.3884950000000 1.0
C      1  0.3348320000000  0.6732500000000  0.5982350000000 1.0
C      1  0.6726490000000  0.4979910000000  0.5989560000000 1.0
C      1  0.6527820000000  0.4856800000000  0.3658310000000 1.0
C      1  0.4305590000000  0.5089300000000  0.3212300000000 1.0
C      1  0.3074600000000  0.5051320000000  0.5164150000000 1.0
C      1  0.4585330000000  0.4993990000000  0.6926480000000 1.0
C      1  0.6392960000000  0.3377000000000  0.3756150000000 1.0
C      1  0.4281740000000  0.3265590000000  0.3305410000000 1.0
C      1  0.3232560000000  0.3480640000000  0.5189980000000 1.0
C      1  0.4649400000000  0.3404750000000  0.6784570000000 1.0
C      1  0.6629740000000  0.3410610000000  0.5897250000000 1.0
C      1  0.4595490000000  0.5924500000000  0.4208910000000 1.0
C      1  0.3923990000000  0.6062290000000  0.4986360000000 1.0
C      1  0.4449460000000  0.5911170000000  0.5875130000000 1.0
C      1  0.5472260000000  0.5879090000000  0.5653290000000 1.0
C      1  0.5563090000000  0.5746360000000  0.4617730000000 1.0
C      1  0.7547930000000  0.4209980000000  0.4860080000000 1.0
C      1  0.5691720000000  0.4082250000000  0.2531240000000 1.0
C      1  0.2985010000000  0.4292750000000  0.3612440000000 1.0
C      1  0.3062130000000  0.4211920000000  0.6525790000000 1.0
C      1  0.5931360000000  0.4244200000000  0.7333880000000 1.0
C      1  0.7023260000000  0.5641650000000  0.3866680000000 1.0
C      1  0.4725360000000  0.5835240000000  0.2822640000000 1.0
C      1  0.2667830000000  0.5745480000000  0.4676450000000 1.0
C      1  0.3981370000000  0.5684200000000  0.7117740000000 1.0
C      1  0.6687290000000  0.5724500000000  0.6571100000000 1.0
C      1  0.5868610000000  0.5880810000000  0.7126090000000 1.0
C      1  0.7315430000000  0.5844710000000  0.4805970000000 1.0
C      1  0.5717230000000  0.5753270000000  0.2627480000000 1.0
C      1  0.3063430000000  0.5924790000000  0.3785650000000 1.0
C      1  0.3207380000000  0.5855410000000  0.6511260000000 1.0
C      1  0.5823230000000  0.4675010000000  0.4414080000000 1.0
C      1  0.4782500000000  0.4795060000000  0.4113880000000 1.0
C      1  0.4142320000000  0.4943930000000  0.4988680000000 1.0
C      1  0.4735750000000  0.4799320000000  0.5887200000000 1.0
C      1  0.5796350000000  0.4798530000000  0.5525530000000 1.0
C      1  0.3361110000000  0.5119920000000  0.3340230000000 1.0
C      1  0.2898080000000  0.5039590000000  0.6098510000000 1.0
C      1  0.5432160000000  0.5049250000000  0.7356550000000 1.0
C      1  0.7405400000000  0.5025690000000  0.5321880000000 1.0
C      1  0.6114470000000  0.4884840000000  0.2793600000000 1.0
C      1  0.3730380000000  0.3579370000000  0.6468150000000 1.0
C      1  0.6060140000000  0.3609190000000  0.6676450000000 1.0
C      1  0.6958500000000  0.3575590000000  0.4539170000000 1.0
C      1  0.5197580000000  0.3458860000000  0.2998990000000 1.0
C      1  0.3245340000000  0.3647260000000  0.4217930000000 1.0
END
