TITL C-986973-6940-997 2.24284856768387e-06 3375 -353.49512521756 0 0 60 (C4v) n - 1
REM
REM in /home/bkarasulu/work/CARBON/AIRSS/Generating-Clusters/REBO/Higher-Symm/Only-C60
REM
REM
REM
REM
REM
REM ./C.cell (a2850807a9bf4ad07a5b6933b78d9264)
REM AIRSS Version 0.9.1 bugfix July 2018 build 013d7b7c2542+ Fri, 06 Jul 2018 19:26:36 +0100
REM compiler GCC version 9.2.1 20190827 (Red Hat 9.2.1-1)
REM options -cpp -mtune=generic -march=x86-64 -g -O0 -fpre-include=/usr/include/finclude/math-vector-fortran.h
REM seed 1839172126 -471310194 -804958484 -211532998 -1082888260 1010541157 1498770873 -800520577 132759211 102680884 569581274 -1532245978 -343998643 -907342300 -1526204314 -87616667 -1582908128 1183088888 -1393410398 -1247388341 -961629400 1898749392 -255446816 -345427896 1733550409 -1114277270 1647939538 -1621246415 1650527273 1494680819 -785741286 -616363809 1220535207
REM
CELL 1.54180   15.00000   15.00000   15.00000   90.00000   90.00000   90.00000
LATT -1
SFAC C  
C      1  0.5658020000000  0.6419890000000  0.2831850000000 1.0
C      1  0.5658020000000  0.2831850000000  0.3580110000000 1.0
C      1  0.5658020000000  0.3580110000000  0.7168150000000 1.0
C      1  0.5658020000000  0.7168150000000  0.6419890000000 1.0
C      1  0.5658020000000  0.3580110000000  0.2831850000000 1.0
C      1  0.5658020000000  0.7168150000000  0.3580110000000 1.0
C      1  0.5658020000000  0.6419890000000  0.7168150000000 1.0
C      1  0.5658020000000  0.2831850000000  0.6419890000000 1.0
C      1  0.4575690000000  0.6164970000000  0.6942080000000 1.0
C      1  0.4575690000000  0.6942080000000  0.3835030000000 1.0
C      1  0.4575690000000  0.3835030000000  0.3057920000000 1.0
C      1  0.4575690000000  0.3057920000000  0.6164970000000 1.0
C      1  0.4575690000000  0.3835030000000  0.6942080000000 1.0
C      1  0.4575690000000  0.3057920000000  0.3835030000000 1.0
C      1  0.4575690000000  0.6164970000000  0.3057920000000 1.0
C      1  0.4575690000000  0.6942080000000  0.6164970000000 1.0
C      1  0.5248840000000  0.4477530000000  0.3713030000000 1.0
C      1  0.5248840000000  0.3713030000000  0.5522470000000 1.0
C      1  0.5248840000000  0.5522470000000  0.6286970000000 1.0
C      1  0.5248840000000  0.6286970000000  0.4477530000000 1.0
C      1  0.5248840000000  0.5522470000000  0.3713030000000 1.0
C      1  0.5248840000000  0.6286970000000  0.5522470000000 1.0
C      1  0.5248840000000  0.4477530000000  0.6286970000000 1.0
C      1  0.5248840000000  0.3713030000000  0.4477530000000 1.0
C      1  0.3284140000000  0.4503370000000  0.6169200000000 1.0
C      1  0.3284140000000  0.6169200000000  0.5496630000000 1.0
C      1  0.3284140000000  0.5496630000000  0.3830800000000 1.0
C      1  0.3284140000000  0.3830800000000  0.4503370000000 1.0
C      1  0.3284140000000  0.5496630000000  0.6169200000000 1.0
C      1  0.3284140000000  0.3830800000000  0.5496630000000 1.0
C      1  0.3284140000000  0.4503370000000  0.3830800000000 1.0
C      1  0.3284140000000  0.6169200000000  0.4503370000000 1.0
C      1  0.7036350000000  0.5497830000000  0.3851050000000 1.0
C      1  0.7036350000000  0.3851050000000  0.4502170000000 1.0
C      1  0.7036350000000  0.4502170000000  0.6148950000000 1.0
C      1  0.7036350000000  0.6148950000000  0.5497830000000 1.0
C      1  0.7036350000000  0.4502170000000  0.3851050000000 1.0
C      1  0.7036350000000  0.6148950000000  0.4502170000000 1.0
C      1  0.7036350000000  0.5497830000000  0.6148950000000 1.0
C      1  0.7036350000000  0.3851050000000  0.5497830000000 1.0
C      1  0.3675350000000  0.7047710000000  0.4234270000000 1.0
C      1  0.3675350000000  0.4234270000000  0.2952290000000 1.0
C      1  0.3675350000000  0.2952290000000  0.5765730000000 1.0
C      1  0.3675350000000  0.5765730000000  0.7047710000000 1.0
C      1  0.3675350000000  0.2952290000000  0.4234270000000 1.0
C      1  0.3675350000000  0.5765730000000  0.2952290000000 1.0
C      1  0.3675350000000  0.7047710000000  0.5765730000000 1.0
C      1  0.3675350000000  0.4234270000000  0.7047710000000 1.0
C      1  0.6232010000000  0.3135610000000  0.5567250000000 1.0
C      1  0.6232010000000  0.5567250000000  0.6864390000000 1.0
C      1  0.6232010000000  0.6864390000000  0.4432750000000 1.0
C      1  0.6232010000000  0.4432750000000  0.3135610000000 1.0
C      1  0.6232010000000  0.6864390000000  0.5567250000000 1.0
C      1  0.6232010000000  0.4432750000000  0.6864390000000 1.0
C      1  0.6232010000000  0.3135610000000  0.4432750000000 1.0
C      1  0.6232010000000  0.5567250000000  0.3135610000000 1.0
C      1  0.3625380000000  0.7625690000000  0.5000000000000 1.0
C      1  0.3625380000000  0.5000000000000  0.7625690000000 1.0
C      1  0.3625380000000  0.2374310000000  0.5000000000000 1.0
C      1  0.3625380000000  0.5000000000000  0.2374310000000 1.0
END
