TITL C-986976-6631-417 0.0241332652934091 3375 -349.561769726153 0 0 60 (C1) n - 1
REM
REM in /home/bkarasulu/work/CARBON/AIRSS/Generating-Clusters/REBO/Higher-Symm/Only-C60
REM
REM
REM
REM
REM
REM ./C.cell (a2850807a9bf4ad07a5b6933b78d9264)
REM AIRSS Version 0.9.1 bugfix July 2018 build 013d7b7c2542+ Fri, 06 Jul 2018 19:26:36 +0100
REM compiler GCC version 9.2.1 20190827 (Red Hat 9.2.1-1)
REM options -cpp -mtune=generic -march=x86-64 -g -O0 -fpre-include=/usr/include/finclude/math-vector-fortran.h
REM seed 100799922 1892893281 -1280725353 816449179 -51444674 -233963881 1147319366 -799503852 -1100265566 974080229 -1713326751 709564086 346786051 -813770450 456157312 184999241 686687109 597972360 -1804793629 -1030065033 -597672748 -641275039 -1632098882 -1867449562 -10146402 -1355950050 -465287322 -2059399040 246766434 1006625875 1689383920 -629756339 -1306426416
REM
CELL 1.54180   15.00000   15.00000   15.00000   90.00000   90.00000   90.00000
LATT -1
SFAC C  
C      1  0.5688200000000  0.4496950000000  0.3229650000000 1.0
C      1  0.4808120000000  0.4205390000000  0.2837740000000 1.0
C      1  0.4143300000000  0.4934380000000  0.3066370000000 1.0
C      1  0.4655170000000  0.5838140000000  0.3374090000000 1.0
C      1  0.5655560000000  0.5519810000000  0.3554720000000 1.0
C      1  0.5781590000000  0.5501880000000  0.6893730000000 1.0
C      1  0.4757590000000  0.5784740000000  0.6773750000000 1.0
C      1  0.4167910000000  0.5043520000000  0.7144270000000 1.0
C      1  0.4670440000000  0.4199870000000  0.6895670000000 1.0
C      1  0.5692140000000  0.4458700000000  0.6612980000000 1.0
C      1  0.2767370000000  0.4922140000000  0.4012190000000 1.0
C      1  0.4258510000000  0.6968300000000  0.3954310000000 1.0
C      1  0.6675520000000  0.6268460000000  0.3974050000000 1.0
C      1  0.6861460000000  0.3776450000000  0.4027040000000 1.0
C      1  0.4444930000000  0.3064940000000  0.3943370000000 1.0
C      1  0.2977570000000  0.5074520000000  0.6027850000000 1.0
C      1  0.4224690000000  0.2907220000000  0.5956210000000 1.0
C      1  0.6661600000000  0.3693760000000  0.6018300000000 1.0
C      1  0.6844900000000  0.6258860000000  0.5958700000000 1.0
C      1  0.4421890000000  0.7128410000000  0.5942190000000 1.0
C      1  0.6073630000000  0.3146950000000  0.5481890000000 1.0
C      1  0.3537010000000  0.3338790000000  0.5431070000000 1.0
C      1  0.3066150000000  0.5869410000000  0.5488770000000 1.0
C      1  0.5223410000000  0.7196280000000  0.5412070000000 1.0
C      1  0.7149900000000  0.5490770000000  0.5457590000000 1.0
C      1  0.6096710000000  0.6834100000000  0.4482300000000 1.0
C      1  0.3548650000000  0.6604140000000  0.4493950000000 1.0
C      1  0.2964410000000  0.4133280000000  0.4535370000000 1.0
C      1  0.5225440000000  0.2908180000000  0.4488560000000 1.0
C      1  0.7177780000000  0.4516260000000  0.4557110000000 1.0
C      1  0.4290330000000  0.6755220000000  0.2971620000000 1.0
C      1  0.6405990000000  0.6108860000000  0.3024330000000 1.0
C      1  0.6592690000000  0.4008430000000  0.3142090000000 1.0
C      1  0.4559790000000  0.3354060000000  0.3047100000000 1.0
C      1  0.3094180000000  0.4895310000000  0.3118040000000 1.0
C      1  0.4295730000000  0.3221410000000  0.6852420000000 1.0
C      1  0.6449420000000  0.3801040000000  0.6991820000000 1.0
C      1  0.6629020000000  0.6077700000000  0.6868840000000 1.0
C      1  0.4554220000000  0.6801450000000  0.6820920000000 1.0
C      1  0.3288990000000  0.5087680000000  0.6921950000000 1.0
C      1  0.2909560000000  0.5754990000000  0.4461700000000 1.0
C      1  0.5093020000000  0.7136580000000  0.4380680000000 1.0
C      1  0.7132810000000  0.5565150000000  0.4421790000000 1.0
C      1  0.6251500000000  0.3181550000000  0.4460760000000 1.0
C      1  0.3641820000000  0.3322160000000  0.4393680000000 1.0
C      1  0.2975260000000  0.4234050000000  0.5572790000000 1.0
C      1  0.5065570000000  0.2794970000000  0.5512820000000 1.0
C      1  0.7102250000000  0.4426940000000  0.5589010000000 1.0
C      1  0.6247210000000  0.6858940000000  0.5506410000000 1.0
C      1  0.3646690000000  0.6765860000000  0.5513440000000 1.0
C      1  0.4683080000000  0.4157020000000  0.4680980000000 1.0
C      1  0.4090080000000  0.4936150000000  0.4158660000000 1.0
C      1  0.4683100000000  0.5835680000000  0.4514100000000 1.0
C      1  0.5750790000000  0.5520410000000  0.4686540000000 1.0
C      1  0.5670160000000  0.4445230000000  0.4337530000000 1.0
C      1  0.4577800000000  0.5821650000000  0.5647530000000 1.0
C      1  0.4085930000000  0.4936610000000  0.5288900000000 1.0
C      1  0.4678100000000  0.4150410000000  0.5814610000000 1.0
C      1  0.5709280000000  0.4448400000000  0.5471310000000 1.0
C      1  0.5624090000000  0.5511480000000  0.5801790000000 1.0
END
