TITL C-986978-6805-92 0.0599090147011929 3375 -335.577902798998 0 0 60 (C1) n - 1
REM
REM in /home/bkarasulu/work/CARBON/AIRSS/Generating-Clusters/REBO/Higher-Symm/Only-C60
REM
REM
REM
REM
REM
REM ./C.cell (a2850807a9bf4ad07a5b6933b78d9264)
REM AIRSS Version 0.9.1 bugfix July 2018 build 013d7b7c2542+ Fri, 06 Jul 2018 19:26:36 +0100
REM compiler GCC version 9.2.1 20190827 (Red Hat 9.2.1-1)
REM options -cpp -mtune=generic -march=x86-64 -g -O0 -fpre-include=/usr/include/finclude/math-vector-fortran.h
REM seed 458667787 322203352 -625726727 1050438258 -997708176 1867071965 -1346554789 -454796557 892147544 804325793 -1422267399 -1047738500 1518525627 -645052088 -1046563591 -499040667 -1432011526 1585533731 1583775859 539517382 1970037689 237620825 -289283362 -1586736743 1225490082 1009386650 -338311846 -1274966571 258983085 1518145746 -1908430310 466292462 554060914
REM
CELL 1.54180   15.00000   15.00000   15.00000   90.00000   90.00000   90.00000
LATT -1
SFAC C  
C      1  0.3047280000000  0.5042080000000  0.3347320000000 1.0
C      1  0.7410070000000  0.5053050000000  0.4133560000000 1.0
C      1  0.4538110000000  0.5051410000000  0.7518380000000 1.0
C      1  0.5039020000000  0.4945870000000  0.2464920000000 1.0
C      1  0.7178970000000  0.4959620000000  0.6325030000000 1.0
C      1  0.2765600000000  0.4952890000000  0.6223620000000 1.0
C      1  0.6273230000000  0.7878780000000  0.5155460000000 1.0
C      1  0.4267460000000  0.7857190000000  0.6000950000000 1.0
C      1  0.4532190000000  0.7854450000000  0.3842380000000 1.0
C      1  0.4596270000000  0.6468610000000  0.6844440000000 1.0
C      1  0.3600620000000  0.6461350000000  0.3733190000000 1.0
C      1  0.6826700000000  0.6480790000000  0.4420320000000 1.0
C      1  0.6522100000000  0.6201530000000  0.3577680000000 1.0
C      1  0.5476220000000  0.6207580000000  0.7032000000000 1.0
C      1  0.3003650000000  0.6197520000000  0.4409480000000 1.0
C      1  0.4608010000000  0.5169490000000  0.4057340000000 1.0
C      1  0.6015810000000  0.5158530000000  0.5136840000000 1.0
C      1  0.4367890000000  0.5141050000000  0.5802400000000 1.0
C      1  0.4041010000000  0.5831780000000  0.7289510000000 1.0
C      1  0.3484530000000  0.5826970000000  0.3031360000000 1.0
C      1  0.7480690000000  0.5831260000000  0.4679380000000 1.0
C      1  0.4909590000000  0.4073340000000  0.2848350000000 1.0
C      1  0.6942720000000  0.4078900000000  0.6020190000000 1.0
C      1  0.3152780000000  0.4073670000000  0.6167560000000 1.0
C      1  0.5035910000000  0.2571350000000  0.4312940000000 1.0
C      1  0.5525810000000  0.2686460000000  0.5341740000000 1.0
C      1  0.4391010000000  0.2635410000000  0.5260250000000 1.0
C      1  0.5467160000000  0.2637670000000  0.3381270000000 1.0
C      1  0.6139400000000  0.2674660000000  0.6173580000000 1.0
C      1  0.3378880000000  0.2659850000000  0.5391240000000 1.0
C      1  0.4368580000000  0.4187000000000  0.3732640000000 1.0
C      1  0.6503620000000  0.4192950000000  0.5090380000000 1.0
C      1  0.4186450000000  0.4172870000000  0.6233630000000 1.0
C      1  0.4011750000000  0.5446330000000  0.4831720000000 1.0
C      1  0.5643510000000  0.5440750000000  0.4225770000000 1.0
C      1  0.5334440000000  0.5431790000000  0.5930420000000 1.0
C      1  0.6401290000000  0.3981790000000  0.3383480000000 1.0
C      1  0.5705020000000  0.3993460000000  0.7020960000000 1.0
C      1  0.2901240000000  0.4006400000000  0.4597840000000 1.0
C      1  0.6684430000000  0.5612190000000  0.5884150000000 1.0
C      1  0.3392900000000  0.5607490000000  0.6015840000000 1.0
C      1  0.4907380000000  0.5612660000000  0.3100410000000 1.0
C      1  0.5643660000000  0.3745210000000  0.5042940000000 1.0
C      1  0.4649570000000  0.3672260000000  0.5545070000000 1.0
C      1  0.4714410000000  0.3618470000000  0.4431280000000 1.0
C      1  0.5669360000000  0.3506450000000  0.3023820000000 1.0
C      1  0.6380480000000  0.3517470000000  0.6562780000000 1.0
C      1  0.2945630000000  0.3515770000000  0.5409900000000 1.0
C      1  0.5597800000000  0.5108950000000  0.6956610000000 1.0
C      1  0.2987600000000  0.5111930000000  0.4550590000000 1.0
C      1  0.6406780000000  0.5100980000000  0.3507270000000 1.0
C      1  0.3347930000000  0.4180650000000  0.3700470000000 1.0
C      1  0.6999040000000  0.4141930000000  0.4204920000000 1.0
C      1  0.4697410000000  0.4157130000000  0.7118990000000 1.0
C      1  0.4468340000000  0.6957070000000  0.5934090000000 1.0
C      1  0.4456760000000  0.6967240000000  0.4073230000000 1.0
C      1  0.6116600000000  0.6993420000000  0.4978870000000 1.0
C      1  0.4158120000000  0.6468980000000  0.5009990000000 1.0
C      1  0.5340330000000  0.6451630000000  0.4386190000000 1.0
C      1  0.5360900000000  0.6435640000000  0.5593080000000 1.0
END
