TITL C-986974-580-273 -1.45239290418456e-05 3375 -349.411288950955 0 0 60 (D2d) n - 1
REM
REM in /home/bkarasulu/work/CARBON/AIRSS/Generating-Clusters/REBO/Higher-Symm/Only-C60
REM
REM
REM
REM
REM
REM ./C.cell (a2850807a9bf4ad07a5b6933b78d9264)
REM AIRSS Version 0.9.1 bugfix July 2018 build 013d7b7c2542+ Fri, 06 Jul 2018 19:26:36 +0100
REM compiler GCC version 9.2.1 20190827 (Red Hat 9.2.1-1)
REM options -cpp -mtune=generic -march=x86-64 -g -O0 -fpre-include=/usr/include/finclude/math-vector-fortran.h
REM seed 295037270 1192733633 1793912154 -428017053 681152767 1387982670 -1989874998 -1455449617 730696282 -883854086 -603163558 -574304827 1203834342 1211380992 -1103293790 -1224269256 -1112523723 -1325511840 958593813 -2034127005 255001631 -1291435737 -370452088 973805004 206391754 -1581533310 1485485003 179822221 881349921 1093425179 -1290319372 1085424479 -1749918333
REM
CELL 1.54180   15.00000   15.00000   15.00000   90.00000   90.00000   90.00000
LATT -1
SFAC C  
C      1  0.3523530000000  0.5599740000000  0.3270410000000 1.0
C      1  0.3523520000000  0.4400270000000  0.6729580000000 1.0
C      1  0.6476470000000  0.5599740000000  0.6729590000000 1.0
C      1  0.6476480000000  0.4400260000000  0.3270420000000 1.0
C      1  0.3523520000000  0.3270410000000  0.5599730000000 1.0
C      1  0.3523530000000  0.6729590000000  0.4400260000000 1.0
C      1  0.6476470000000  0.6729580000000  0.5599740000000 1.0
C      1  0.6476480000000  0.3270410000000  0.4400270000000 1.0
C      1  0.4817830000000  0.3928800000000  0.3236990000000 1.0
C      1  0.4817820000000  0.6071200000000  0.6763010000000 1.0
C      1  0.5182170000000  0.3928800000000  0.6763010000000 1.0
C      1  0.5182180000000  0.6071200000000  0.3236990000000 1.0
C      1  0.4817830000000  0.3236990000000  0.3928790000000 1.0
C      1  0.4817830000000  0.6763010000000  0.6071200000000 1.0
C      1  0.5182180000000  0.6763010000000  0.3928800000000 1.0
C      1  0.5182170000000  0.3236990000000  0.6071210000000 1.0
C      1  0.3815790000000  0.6955360000000  0.5676350000000 1.0
C      1  0.3815790000000  0.3044640000000  0.4323640000000 1.0
C      1  0.6184210000000  0.6955360000000  0.4323650000000 1.0
C      1  0.6184200000000  0.3044640000000  0.5676360000000 1.0
C      1  0.3815790000000  0.5676360000000  0.6955360000000 1.0
C      1  0.3815800000000  0.4323640000000  0.3044630000000 1.0
C      1  0.6184200000000  0.4323640000000  0.6955360000000 1.0
C      1  0.6184210000000  0.5676360000000  0.3044640000000 1.0
C      1  0.5323750000000  0.5332690000000  0.2431090000000 1.0
C      1  0.5323740000000  0.4667310000000  0.7568910000000 1.0
C      1  0.4676250000000  0.5332690000000  0.7568910000000 1.0
C      1  0.4676260000000  0.4667310000000  0.2431090000000 1.0
C      1  0.5323740000000  0.2431090000000  0.5332690000000 1.0
C      1  0.5323750000000  0.7568910000000  0.4667310000000 1.0
C      1  0.4676260000000  0.7568910000000  0.5332690000000 1.0
C      1  0.4676260000000  0.2431090000000  0.4667310000000 1.0
C      1  0.6855620000000  0.4407630000000  0.6273440000000 1.0
C      1  0.6855630000000  0.5592370000000  0.3726570000000 1.0
C      1  0.3144380000000  0.4407630000000  0.3726560000000 1.0
C      1  0.3144370000000  0.5592370000000  0.6273430000000 1.0
C      1  0.6855630000000  0.6273430000000  0.4407630000000 1.0
C      1  0.6855620000000  0.3726570000000  0.5592380000000 1.0
C      1  0.3144370000000  0.3726570000000  0.4407620000000 1.0
C      1  0.3144370000000  0.6273440000000  0.5592370000000 1.0
C      1  0.4404500000000  0.3603690000000  0.5457740000000 1.0
C      1  0.4404500000000  0.6396310000000  0.4542260000000 1.0
C      1  0.5595500000000  0.3603690000000  0.4542260000000 1.0
C      1  0.5595500000000  0.6396310000000  0.5457740000000 1.0
C      1  0.4404510000000  0.5457740000000  0.3603690000000 1.0
C      1  0.4404500000000  0.4542260000000  0.6396310000000 1.0
C      1  0.5595500000000  0.4542260000000  0.3603690000000 1.0
C      1  0.5595500000000  0.5457740000000  0.6396310000000 1.0
C      1  0.7201480000000  0.5371620000000  0.6059920000000 1.0
C      1  0.7201480000000  0.4628380000000  0.3940090000000 1.0
C      1  0.2798520000000  0.5371620000000  0.3940080000000 1.0
C      1  0.2798520000000  0.4628380000000  0.6059910000000 1.0
C      1  0.7201480000000  0.6059920000000  0.5371630000000 1.0
C      1  0.7201480000000  0.3940080000000  0.4628380000000 1.0
C      1  0.2798520000000  0.3940080000000  0.5371620000000 1.0
C      1  0.2798520000000  0.6059920000000  0.4628370000000 1.0
C      1  0.4424210000000  0.5334020000000  0.4665980000000 1.0
C      1  0.5575790000000  0.4665970000000  0.4665980000000 1.0
C      1  0.4424210000000  0.4665980000000  0.5334020000000 1.0
C      1  0.5575790000000  0.5334020000000  0.5334020000000 1.0
END
