TITL C-986974-580-163 5.03394193379909e-05 3375 -347.294049138184 0 0 60 (C1) n - 1
REM
REM in /home/bkarasulu/work/CARBON/AIRSS/Generating-Clusters/REBO/Higher-Symm/Only-C60
REM
REM
REM
REM
REM
REM ./C.cell (a2850807a9bf4ad07a5b6933b78d9264)
REM AIRSS Version 0.9.1 bugfix July 2018 build 013d7b7c2542+ Fri, 06 Jul 2018 19:26:36 +0100
REM compiler GCC version 9.2.1 20190827 (Red Hat 9.2.1-1)
REM options -cpp -mtune=generic -march=x86-64 -g -O0 -fpre-include=/usr/include/finclude/math-vector-fortran.h
REM seed -1382651958 1020449223 -1704432024 1636527241 -377970057 1603161148 -355406417 -193722689 -436733813 2089833731 -1037279559 1971585638 1099293122 1755436638 1886587161 -1736672071 -111505897 -371016048 582399542 1383985115 1112267171 1419309001 594489356 -1538287178 1471625900 -713978032 346474924 -174189474 -1836931498 435367663 -1597695868 -434921916 -30631915
REM
CELL 1.54180   15.00000   15.00000   15.00000   90.00000   90.00000   90.00000
LATT -1
SFAC C  
C      1  0.5279340000000  0.3151730000000  0.3250010000000 1.0
C      1  0.5256430000000  0.4426250000000  0.7451080000000 1.0
C      1  0.5240420000000  0.7401140000000  0.4283290000000 1.0
C      1  0.3391720000000  0.3238520000000  0.5888880000000 1.0
C      1  0.3371030000000  0.6704570000000  0.6103480000000 1.0
C      1  0.3423480000000  0.5074280000000  0.2896160000000 1.0
C      1  0.5177830000000  0.6354380000000  0.6866170000000 1.0
C      1  0.5169270000000  0.5920800000000  0.2923490000000 1.0
C      1  0.5166920000000  0.2710940000000  0.5222130000000 1.0
C      1  0.6939950000000  0.6468600000000  0.4268510000000 1.0
C      1  0.6944390000000  0.3637840000000  0.4099610000000 1.0
C      1  0.6937400000000  0.4896600000000  0.6618620000000 1.0
C      1  0.6702640000000  0.6482810000000  0.5399470000000 1.0
C      1  0.6703950000000  0.4605610000000  0.3516310000000 1.0
C      1  0.6695290000000  0.3904090000000  0.6078630000000 1.0
C      1  0.6287340000000  0.5611080000000  0.5043290000000 1.0
C      1  0.6249650000000  0.4720070000000  0.4431440000000 1.0
C      1  0.6260830000000  0.4636860000000  0.5505560000000 1.0
C      1  0.3950980000000  0.5621120000000  0.5604070000000 1.0
C      1  0.3883370000000  0.5107080000000  0.4139680000000 1.0
C      1  0.3928560000000  0.4267360000000  0.5247340000000 1.0
C      1  0.3707820000000  0.6899870000000  0.5248770000000 1.0
C      1  0.3738630000000  0.4227760000000  0.3148210000000 1.0
C      1  0.3714330000000  0.3840030000000  0.6533990000000 1.0
C      1  0.6264390000000  0.7238820000000  0.4399870000000 1.0
C      1  0.6296500000000  0.3353610000000  0.3347370000000 1.0
C      1  0.6275120000000  0.4397560000000  0.7236630000000 1.0
C      1  0.4670850000000  0.4430320000000  0.5819670000000 1.0
C      1  0.4693500000000  0.6009150000000  0.5162630000000 1.0
C      1  0.4645630000000  0.4535990000000  0.4068480000000 1.0
C      1  0.4469290000000  0.5891660000000  0.7284900000000 1.0
C      1  0.4449380000000  0.6499310000000  0.3112200000000 1.0
C      1  0.4460710000000  0.2625180000000  0.4601540000000 1.0
C      1  0.3375260000000  0.3887210000000  0.3977280000000 1.0
C      1  0.3286490000000  0.4788330000000  0.6612660000000 1.0
C      1  0.3303260000000  0.6436370000000  0.4407450000000 1.0
C      1  0.5361530000000  0.5068510000000  0.5830680000000 1.0
C      1  0.5344250000000  0.5685810000000  0.4567130000000 1.0
C      1  0.5334010000000  0.4237920000000  0.4637070000000 1.0
C      1  0.5696820000000  0.5649030000000  0.3651940000000 1.0
C      1  0.5704310000000  0.3477590000000  0.5128820000000 1.0
C      1  0.5704060000000  0.5871750000000  0.6253680000000 1.0
C      1  0.4747210000000  0.5141550000000  0.7786700000000 1.0
C      1  0.4711280000000  0.7313360000000  0.3511130000000 1.0
C      1  0.4747140000000  0.2526040000000  0.3707760000000 1.0
C      1  0.3715830000000  0.3258700000000  0.4799820000000 1.0
C      1  0.3688190000000  0.5776610000000  0.6676350000000 1.0
C      1  0.3666740000000  0.6006620000000  0.3494860000000 1.0
C      1  0.5872860000000  0.7242650000000  0.5423000000000 1.0
C      1  0.5892940000000  0.4236640000000  0.2835360000000 1.0
C      1  0.5863660000000  0.3515400000000  0.6727300000000 1.0
C      1  0.4802770000000  0.4111380000000  0.3081890000000 1.0
C      1  0.4772220000000  0.3814330000000  0.6691150000000 1.0
C      1  0.4774180000000  0.7072450000000  0.5209090000000 1.0
C      1  0.6707950000000  0.5730160000000  0.3698710000000 1.0
C      1  0.6716640000000  0.3487860000000  0.5018190000000 1.0
C      1  0.6716650000000  0.5773320000000  0.6290900000000 1.0
C      1  0.2932330000000  0.4670640000000  0.4458570000000 1.0
C      1  0.3075760000000  0.4619110000000  0.5662780000000 1.0
C      1  0.3138720000000  0.5709620000000  0.5058250000000 1.0
END
