TITL C-986978-6805-806 -4.79468298864738e-07 3375 -338.013024294129 0 0 60 (Th) n - 1
REM
REM in /home/bkarasulu/work/CARBON/AIRSS/Generating-Clusters/REBO/Higher-Symm/Only-C60
REM
REM
REM
REM
REM
REM ./C.cell (a2850807a9bf4ad07a5b6933b78d9264)
REM AIRSS Version 0.9.1 bugfix July 2018 build 013d7b7c2542+ Fri, 06 Jul 2018 19:26:36 +0100
REM compiler GCC version 9.2.1 20190827 (Red Hat 9.2.1-1)
REM options -cpp -mtune=generic -march=x86-64 -g -O0 -fpre-include=/usr/include/finclude/math-vector-fortran.h
REM seed 1609007997 1066755541 1387050062 -1934011411 705440534 774758823 -1609551226 -167972224 -1278743872 -1013795120 -1451417606 50376799 -1055179542 119352259 -1546216743 369460908 1922831862 2103289606 -239011314 -1448204922 -498321024 1455692117 2124293182 -1945292569 -613555956 -1723084558 314938250 1606510943 1934743047 166146091 49264385 -616207884 967673443
REM
CELL 1.54180   15.00000   15.00000   15.00000   90.00000   90.00000   90.00000
LATT -1
SFAC C  
C      1  0.2512840000000  0.5515290000000  0.4426930000000 1.0
C      1  0.5515290000000  0.4426930000000  0.2512840000000 1.0
C      1  0.4426930000000  0.2512840000000  0.5515290000000 1.0
C      1  0.7487160000000  0.4484710000000  0.4426930000000 1.0
C      1  0.2512840000000  0.4484710000000  0.5573070000000 1.0
C      1  0.7487160000000  0.5515290000000  0.5573070000000 1.0
C      1  0.4484710000000  0.5573070000000  0.2512840000000 1.0
C      1  0.5515290000000  0.5573070000000  0.7487160000000 1.0
C      1  0.4484710000000  0.4426930000000  0.7487160000000 1.0
C      1  0.5573070000000  0.7487160000000  0.5515290000000 1.0
C      1  0.4426930000000  0.7487160000000  0.4484710000000 1.0
C      1  0.5573070000000  0.2512840000000  0.4484710000000 1.0
C      1  0.2512840000000  0.5515290000000  0.5573070000000 1.0
C      1  0.5515290000000  0.4426930000000  0.7487160000000 1.0
C      1  0.4426930000000  0.2512840000000  0.4484710000000 1.0
C      1  0.7487160000000  0.4484710000000  0.5573070000000 1.0
C      1  0.2512840000000  0.4484710000000  0.4426930000000 1.0
C      1  0.7487160000000  0.5515290000000  0.4426930000000 1.0
C      1  0.4484710000000  0.5573070000000  0.7487160000000 1.0
C      1  0.5515290000000  0.5573070000000  0.2512840000000 1.0
C      1  0.4484710000000  0.4426930000000  0.2512840000000 1.0
C      1  0.5573070000000  0.7487160000000  0.4484710000000 1.0
C      1  0.4426930000000  0.7487160000000  0.5515290000000 1.0
C      1  0.5573070000000  0.2512840000000  0.5515290000000 1.0
C      1  0.6914590000000  0.6334360000000  0.3958960000000 1.0
C      1  0.6334360000000  0.3958960000000  0.6914590000000 1.0
C      1  0.3958960000000  0.6914590000000  0.6334360000000 1.0
C      1  0.3085410000000  0.3665640000000  0.3958960000000 1.0
C      1  0.6914590000000  0.3665640000000  0.6041040000000 1.0
C      1  0.3085410000000  0.6334360000000  0.6041040000000 1.0
C      1  0.3665640000000  0.6041040000000  0.6914590000000 1.0
C      1  0.6334360000000  0.6041040000000  0.3085410000000 1.0
C      1  0.3665640000000  0.3958960000000  0.3085410000000 1.0
C      1  0.6041040000000  0.3085410000000  0.6334360000000 1.0
C      1  0.3958960000000  0.3085410000000  0.3665640000000 1.0
C      1  0.6041040000000  0.6914590000000  0.3665640000000 1.0
C      1  0.6914590000000  0.6334360000000  0.6041040000000 1.0
C      1  0.6334360000000  0.3958960000000  0.3085410000000 1.0
C      1  0.3958960000000  0.6914590000000  0.3665640000000 1.0
C      1  0.3085410000000  0.3665640000000  0.6041040000000 1.0
C      1  0.6914590000000  0.3665640000000  0.3958960000000 1.0
C      1  0.3085410000000  0.6334360000000  0.3958960000000 1.0
C      1  0.3665640000000  0.6041040000000  0.3085410000000 1.0
C      1  0.6334360000000  0.6041040000000  0.6914590000000 1.0
C      1  0.3665640000000  0.3958960000000  0.6914590000000 1.0
C      1  0.6041040000000  0.3085410000000  0.3665640000000 1.0
C      1  0.3958960000000  0.3085410000000  0.6334360000000 1.0
C      1  0.6041040000000  0.6914590000000  0.6334360000000 1.0
C      1  0.3532870000000  0.5000000000000  0.7234720000000 1.0
C      1  0.6467130000000  0.5000000000000  0.2765280000000 1.0
C      1  0.7234720000000  0.6467130000000  0.5000000000000 1.0
C      1  0.6467130000000  0.5000000000000  0.7234720000000 1.0
C      1  0.5000000000000  0.7234720000000  0.6467130000000 1.0
C      1  0.2765280000000  0.3532870000000  0.5000000000000 1.0
C      1  0.7234720000000  0.3532870000000  0.5000000000000 1.0
C      1  0.2765280000000  0.6467130000000  0.5000000000000 1.0
C      1  0.3532870000000  0.5000000000000  0.2765280000000 1.0
C      1  0.5000000000000  0.2765280000000  0.6467130000000 1.0
C      1  0.5000000000000  0.2765280000000  0.3532870000000 1.0
C      1  0.5000000000000  0.7234720000000  0.3532870000000 1.0
END
