TITL C-986973-6940-743 0.0171047186649836 3375 -345.846342364488 0 0 60 (C1) n - 1
REM
REM in /home/bkarasulu/work/CARBON/AIRSS/Generating-Clusters/REBO/Higher-Symm/Only-C60
REM
REM
REM
REM
REM
REM ./C.cell (a2850807a9bf4ad07a5b6933b78d9264)
REM AIRSS Version 0.9.1 bugfix July 2018 build 013d7b7c2542+ Fri, 06 Jul 2018 19:26:36 +0100
REM compiler GCC version 9.2.1 20190827 (Red Hat 9.2.1-1)
REM options -cpp -mtune=generic -march=x86-64 -g -O0 -fpre-include=/usr/include/finclude/math-vector-fortran.h
REM seed -858440275 739460017 -869224955 1233611278 -2078662715 -189059064 371178688 -555559503 -2097340748 -396043995 -645065347 -353691829 -51394737 -2137711401 1901737810 -1202346270 -84332814 -405150882 -883077759 1538470233 -539571704 -462328419 438068275 2046541670 178438018 1776187231 -1265985759 -1892920603 -384416474 1514924930 942033941 -1073374025 -316251196
REM
CELL 1.54180   15.00000   15.00000   15.00000   90.00000   90.00000   90.00000
LATT -1
SFAC C  
C      1  0.3987260000000  0.5604150000000  0.4771200000000 1.0
C      1  0.3973370000000  0.4466470000000  0.4695370000000 1.0
C      1  0.4884450000000  0.3002440000000  0.4020950000000 1.0
C      1  0.4874220000000  0.7003090000000  0.4022870000000 1.0
C      1  0.2964540000000  0.6751200000000  0.4630080000000 1.0
C      1  0.2975700000000  0.3270710000000  0.4635920000000 1.0
C      1  0.4574850000000  0.3598760000000  0.4934260000000 1.0
C      1  0.4572300000000  0.6460260000000  0.4971580000000 1.0
C      1  0.4040450000000  0.3845840000000  0.6354710000000 1.0
C      1  0.4040140000000  0.6200810000000  0.6354790000000 1.0
C      1  0.5498210000000  0.5513220000000  0.7285220000000 1.0
C      1  0.5496490000000  0.4540980000000  0.7278320000000 1.0
C      1  0.6203080000000  0.6491760000000  0.6203980000000 1.0
C      1  0.6201180000000  0.3571680000000  0.6183950000000 1.0
C      1  0.6811900000000  0.4473830000000  0.4143530000000 1.0
C      1  0.6834880000000  0.5611340000000  0.4160350000000 1.0
C      1  0.5635410000000  0.5171300000000  0.1471210000000 1.0
C      1  0.4834610000000  0.5082760000000  0.2151200000000 1.0
C      1  0.6378960000000  0.6587630000000  0.3773060000000 1.0
C      1  0.6375150000000  0.3486920000000  0.3761570000000 1.0
C      1  0.6831030000000  0.6635740000000  0.5484250000000 1.0
C      1  0.6835240000000  0.3433540000000  0.5467720000000 1.0
C      1  0.5541920000000  0.2648930000000  0.5131920000000 1.0
C      1  0.5524730000000  0.7397690000000  0.5141130000000 1.0
C      1  0.4814930000000  0.5560350000000  0.5913330000000 1.0
C      1  0.4801540000000  0.4481980000000  0.5896690000000 1.0
C      1  0.6440240000000  0.7342470000000  0.4956540000000 1.0
C      1  0.6457340000000  0.2713310000000  0.4949020000000 1.0
C      1  0.7144660000000  0.4248350000000  0.5098160000000 1.0
C      1  0.7152950000000  0.5826620000000  0.5112470000000 1.0
C      1  0.2911470000000  0.5783490000000  0.5064520000000 1.0
C      1  0.2931320000000  0.4251320000000  0.5050590000000 1.0
C      1  0.6306450000000  0.4249070000000  0.6816190000000 1.0
C      1  0.6311470000000  0.5807860000000  0.6828990000000 1.0
C      1  0.5219530000000  0.3475050000000  0.5809000000000 1.0
C      1  0.5216480000000  0.6583390000000  0.5838290000000 1.0
C      1  0.3031360000000  0.5844220000000  0.6130790000000 1.0
C      1  0.3036220000000  0.4199160000000  0.6121920000000 1.0
C      1  0.3398370000000  0.3197960000000  0.5706740000000 1.0
C      1  0.3392320000000  0.6841590000000  0.5700220000000 1.0
C      1  0.4704970000000  0.4044660000000  0.7157460000000 1.0
C      1  0.4706570000000  0.6011410000000  0.7162700000000 1.0
C      1  0.3869930000000  0.5525960000000  0.3668070000000 1.0
C      1  0.3850490000000  0.4386100000000  0.3578960000000 1.0
C      1  0.5727670000000  0.7207000000000  0.3838230000000 1.0
C      1  0.5746030000000  0.2845530000000  0.3830190000000 1.0
C      1  0.3816560000000  0.6604200000000  0.3892820000000 1.0
C      1  0.3814540000000  0.3356950000000  0.3874730000000 1.0
C      1  0.5969030000000  0.4377080000000  0.3386390000000 1.0
C      1  0.5993640000000  0.5687820000000  0.3402310000000 1.0
C      1  0.3905120000000  0.2691450000000  0.4826820000000 1.0
C      1  0.3887000000000  0.7336060000000  0.4806010000000 1.0
C      1  0.5578390000000  0.5030490000000  0.4235530000000 1.0
C      1  0.7207800000000  0.5033230000000  0.5642070000000 1.0
C      1  0.5857990000000  0.5050940000000  0.2573000000000 1.0
C      1  0.6822580000000  0.5028820000000  0.6531700000000 1.0
C      1  0.2411880000000  0.5014980000000  0.4820500000000 1.0
C      1  0.5222600000000  0.5029310000000  0.4997800000000 1.0
C      1  0.4139890000000  0.5018010000000  0.2722610000000 1.0
C      1  0.2791570000000  0.5018530000000  0.6528980000000 1.0
END
