TITL C-986975-4297-655 -6.84166132592102e-06 3375 -345.294094636507 0 0 60 (C3) n - 1
REM
REM in /home/bkarasulu/work/CARBON/AIRSS/Generating-Clusters/REBO/Higher-Symm/Only-C60
REM
REM
REM
REM
REM
REM ./C.cell (a2850807a9bf4ad07a5b6933b78d9264)
REM AIRSS Version 0.9.1 bugfix July 2018 build 013d7b7c2542+ Fri, 06 Jul 2018 19:26:36 +0100
REM compiler GCC version 9.2.1 20190827 (Red Hat 9.2.1-1)
REM options -cpp -mtune=generic -march=x86-64 -g -O0 -fpre-include=/usr/include/finclude/math-vector-fortran.h
REM seed 455642290 515368710 -236283815 -1270343424 -1904706756 -160278520 751689916 840264497 912676100 -123880028 1933435297 1926080403 1484865420 2032070938 575789468 -44188872 1291726737 -887650129 -250352800 299843604 1218398958 -1447288119 -1346624895 1840963224 -949878880 -238484521 -990364645 -1427398911 -978770238 -1515944268 -2089078666 221453354 -1608440644
REM
CELL 1.54180   15.00000   15.00000   15.00000   90.00000   90.00000   90.00000
LATT -1
SFAC C  
C      1  0.5107260000000  0.6574900000000  0.5614020000000 1.0
C      1  0.3582510000000  0.4305420000000  0.5614100000000 1.0
C      1  0.6310310000000  0.4119690000000  0.5614000000000 1.0
C      1  0.5646050000000  0.5097460000000  0.4335510000000 1.0
C      1  0.4592530000000  0.5510770000000  0.4335550000000 1.0
C      1  0.4761350000000  0.4391740000000  0.4335550000000 1.0
C      1  0.2906760000000  0.5015330000000  0.3342540000000 1.0
C      1  0.6033230000000  0.3179570000000  0.3342420000000 1.0
C      1  0.6059800000000  0.6805050000000  0.3342390000000 1.0
C      1  0.4521140000000  0.3116280000000  0.6541440000000 1.0
C      1  0.6870890000000  0.5527130000000  0.6541320000000 1.0
C      1  0.3608160000000  0.6356650000000  0.6541450000000 1.0
C      1  0.5409900000000  0.7274080000000  0.4101510000000 1.0
C      1  0.2825580000000  0.4217960000000  0.4101640000000 1.0
C      1  0.6764410000000  0.3507930000000  0.4101490000000 1.0
C      1  0.4638620000000  0.4452730000000  0.5651870000000 1.0
C      1  0.5654680000000  0.4960650000000  0.5651830000000 1.0
C      1  0.4706780000000  0.5586630000000  0.5651860000000 1.0
C      1  0.4108860000000  0.4654280000000  0.6914290000000 1.0
C      1  0.5745110000000  0.4401080000000  0.6914220000000 1.0
C      1  0.5146260000000  0.5944710000000  0.6914230000000 1.0
C      1  0.7557140000000  0.5072060000000  0.4991580000000 1.0
C      1  0.3659020000000  0.7178520000000  0.4991720000000 1.0
C      1  0.3783830000000  0.2749420000000  0.4991760000000 1.0
C      1  0.7290430000000  0.4661620000000  0.6810870000000 1.0
C      1  0.4147950000000  0.7152730000000  0.6810970000000 1.0
C      1  0.3561840000000  0.3185710000000  0.6811030000000 1.0
C      1  0.3151480000000  0.6314210000000  0.4534100000000 1.0
C      1  0.4786080000000  0.2742040000000  0.4534060000000 1.0
C      1  0.7062370000000  0.5943730000000  0.4533940000000 1.0
C      1  0.5374920000000  0.3798230000000  0.5082510000000 1.0
C      1  0.5853310000000  0.5925570000000  0.5082480000000 1.0
C      1  0.3771780000000  0.5276200000000  0.5082570000000 1.0
C      1  0.4672130000000  0.7165260000000  0.4906080000000 1.0
C      1  0.3288750000000  0.3633420000000  0.4906160000000 1.0
C      1  0.7039110000000  0.4201300000000  0.4906010000000 1.0
C      1  0.3309720000000  0.4109770000000  0.6604650000000 1.0
C      1  0.6616220000000  0.3981260000000  0.6604510000000 1.0
C      1  0.5074260000000  0.6909030000000  0.6604550000000 1.0
C      1  0.6044640000000  0.4899610000000  0.3082680000000 1.0
C      1  0.4564480000000  0.5954920000000  0.3082730000000 1.0
C      1  0.4390640000000  0.4145410000000  0.3082750000000 1.0
C      1  0.6512790000000  0.4590290000000  0.4021210000000 1.0
C      1  0.4598360000000  0.6514990000000  0.4021270000000 1.0
C      1  0.3888730000000  0.3894690000000  0.4021320000000 1.0
C      1  0.4616320000000  0.2758260000000  0.5663720000000 1.0
C      1  0.7133300000000  0.5788580000000  0.5663590000000 1.0
C      1  0.3250460000000  0.6453190000000  0.5663750000000 1.0
C      1  0.5565400000000  0.5892580000000  0.2944070000000 1.0
C      1  0.3944160000000  0.5043400000000  0.2944140000000 1.0
C      1  0.5490190000000  0.4063960000000  0.2944080000000 1.0
C      1  0.2851670000000  0.5271650000000  0.4450680000000 1.0
C      1  0.5838870000000  0.3003680000000  0.4450580000000 1.0
C      1  0.6309390000000  0.6724650000000  0.4450530000000 1.0
C      1  0.4208220000000  0.5594600000000  0.6884860000000 1.0
C      1  0.4881080000000  0.4016970000000  0.6884850000000 1.0
C      1  0.5910930000000  0.5388500000000  0.6884790000000 1.0
C      1  0.4921390000000  0.3234150000000  0.3521880000000 1.0
C      1  0.6568470000000  0.5814880000000  0.3521790000000 1.0
C      1  0.3509950000000  0.5950920000000  0.3521920000000 1.0
END
