TITL C-986979-5873-163 1.64950694665834e-06 3375 -354.558447987946 0 0 60 (C1) n - 1
REM
REM in /home/bkarasulu/work/CARBON/AIRSS/Generating-Clusters/REBO/Higher-Symm/Only-C60
REM
REM
REM
REM
REM
REM ./C.cell (a2850807a9bf4ad07a5b6933b78d9264)
REM AIRSS Version 0.9.1 bugfix July 2018 build 013d7b7c2542+ Fri, 06 Jul 2018 19:26:36 +0100
REM compiler GCC version 9.2.1 20190827 (Red Hat 9.2.1-1)
REM options -cpp -mtune=generic -march=x86-64 -g -O0 -fpre-include=/usr/include/finclude/math-vector-fortran.h
REM seed -1057958244 -1905316767 -1392666106 -1669650123 -943488349 -2029250200 566871743 -504038879 -2096252531 1924227289 1026548326 -1369769640 1707707609 -743715747 52495480 -1619699052 -651026448 -1265977200 1935533709 1280165780 254409452 -669875796 -1775094470 -1776681355 -1213660028 173143798 1629479268 1092979554 -1057069016 -458125086 -717539001 -1488866067 -1447253109
REM
CELL 1.54180   15.00000   15.00000   15.00000   90.00000   90.00000   90.00000
LATT -1
SFAC C  
C      1  0.4754030000000  0.6917820000000  0.5347890000000 1.0
C      1  0.5142240000000  0.7037430000000  0.4404750000000 1.0
C      1  0.4337870000000  0.5188200000000  0.4148710000000 1.0
C      1  0.5652680000000  0.5141250000000  0.5869210000000 1.0
C      1  0.6576290000000  0.6285850000000  0.4711680000000 1.0
C      1  0.3456200000000  0.6257090000000  0.5301300000000 1.0
C      1  0.4218150000000  0.5967850000000  0.6110240000000 1.0
C      1  0.5795510000000  0.5979160000000  0.3935340000000 1.0
C      1  0.3792190000000  0.4955100000000  0.6853180000000 1.0
C      1  0.6204710000000  0.4966330000000  0.3181740000000 1.0
C      1  0.6385690000000  0.6892550000000  0.5506200000000 1.0
C      1  0.3625160000000  0.6894090000000  0.4523790000000 1.0
C      1  0.4837280000000  0.3012980000000  0.5454330000000 1.0
C      1  0.5168500000000  0.3017280000000  0.4550150000000 1.0
C      1  0.6339170000000  0.5637630000000  0.6529280000000 1.0
C      1  0.3652930000000  0.5670690000000  0.3475840000000 1.0
C      1  0.3053460000000  0.5498900000000  0.6558230000000 1.0
C      1  0.6956890000000  0.5493610000000  0.3456870000000 1.0
C      1  0.6887740000000  0.4459220000000  0.6816760000000 1.0
C      1  0.3118420000000  0.4485990000000  0.3184520000000 1.0
C      1  0.7072780000000  0.5094950000000  0.5889700000000 1.0
C      1  0.2934090000000  0.5107770000000  0.4119460000000 1.0
C      1  0.6700200000000  0.6587540000000  0.3623110000000 1.0
C      1  0.3318750000000  0.6591050000000  0.6378550000000 1.0
C      1  0.4484210000000  0.5289850000000  0.2829610000000 1.0
C      1  0.5520020000000  0.5252340000000  0.7189250000000 1.0
C      1  0.7458730000000  0.5098900000000  0.4177360000000 1.0
C      1  0.2552170000000  0.5099160000000  0.5837880000000 1.0
C      1  0.7162770000000  0.3979320000000  0.5874040000000 1.0
C      1  0.2841120000000  0.3994960000000  0.4124390000000 1.0
C      1  0.4926030000000  0.5907490000000  0.4503170000000 1.0
C      1  0.5060470000000  0.5834920000000  0.5527580000000 1.0
C      1  0.6031410000000  0.3620600000000  0.4492980000000 1.0
C      1  0.3978380000000  0.3621000000000  0.5515300000000 1.0
C      1  0.2926000000000  0.3615060000000  0.5173720000000 1.0
C      1  0.7080870000000  0.3605980000000  0.4827330000000 1.0
C      1  0.5511940000000  0.3541780000000  0.6992140000000 1.0
C      1  0.4499470000000  0.3583430000000  0.3018350000000 1.0
C      1  0.3548440000000  0.3160140000000  0.4341700000000 1.0
C      1  0.6463440000000  0.3135110000000  0.5656110000000 1.0
C      1  0.5369640000000  0.5524680000000  0.2986370000000 1.0
C      1  0.4633510000000  0.5502100000000  0.7056890000000 1.0
C      1  0.2345130000000  0.4175690000000  0.5791150000000 1.0
C      1  0.7663040000000  0.4174460000000  0.4219020000000 1.0
C      1  0.5529570000000  0.3007530000000  0.6112010000000 1.0
C      1  0.4480460000000  0.3039700000000  0.3890770000000 1.0
C      1  0.5872470000000  0.4268870000000  0.3731700000000 1.0
C      1  0.4115420000000  0.4250330000000  0.6305120000000 1.0
C      1  0.7186370000000  0.5515890000000  0.4984640000000 1.0
C      1  0.2833740000000  0.5507380000000  0.5030900000000 1.0
C      1  0.4097250000000  0.4155910000000  0.4538630000000 1.0
C      1  0.5897530000000  0.4122370000000  0.5481070000000 1.0
C      1  0.6040670000000  0.4391130000000  0.7234290000000 1.0
C      1  0.3968680000000  0.4427020000000  0.2772490000000 1.0
C      1  0.3620380000000  0.6671410000000  0.3712420000000 1.0
C      1  0.6364540000000  0.6642350000000  0.6308380000000 1.0
C      1  0.4867220000000  0.4304160000000  0.3747300000000 1.0
C      1  0.5125550000000  0.4263790000000  0.6275750000000 1.0
C      1  0.5871390000000  0.7304890000000  0.3922980000000 1.0
C      1  0.4091020000000  0.7269950000000  0.5886420000000 1.0
END
