TITL C-986978-6805-661 -0.00789615639372611 3375 -346.820254631016 0 0 60 (Cs) n - 1
REM
REM in /home/bkarasulu/work/CARBON/AIRSS/Generating-Clusters/REBO/Higher-Symm/Only-C60
REM
REM
REM
REM
REM
REM ./C.cell (a2850807a9bf4ad07a5b6933b78d9264)
REM AIRSS Version 0.9.1 bugfix July 2018 build 013d7b7c2542+ Fri, 06 Jul 2018 19:26:36 +0100
REM compiler GCC version 9.2.1 20190827 (Red Hat 9.2.1-1)
REM options -cpp -mtune=generic -march=x86-64 -g -O0 -fpre-include=/usr/include/finclude/math-vector-fortran.h
REM seed 411592479 -1077147221 1636136582 -2134032966 206898879 -15001255 1050905616 76228347 1366531490 -1921683298 1912281123 -830923039 1634347911 1735101433 1747948964 -2139998691 550600821 977628289 -633929312 -2124450298 897084501 800129250 -1847261425 -37932310 2133578363 1865175463 73402238 1478329714 -235709414 -1865098141 1877494171 194293230 -68162954
REM
CELL 1.54180   15.00000   15.00000   15.00000   90.00000   90.00000   90.00000
LATT -1
SFAC C  
C      1  0.4513260000000  0.7356390000000  0.4351950000000 1.0
C      1  0.5486740000000  0.7356390000000  0.4351950000000 1.0
C      1  0.4475000000000  0.3236220000000  0.3172060000000 1.0
C      1  0.5524960000000  0.3236210000000  0.3172090000000 1.0
C      1  0.3028100000000  0.4154930000000  0.5689850000000 1.0
C      1  0.6971910000000  0.4154930000000  0.5689850000000 1.0
C      1  0.6417170000000  0.3245800000000  0.7108340000000 1.0
C      1  0.3582830000000  0.3245800000000  0.7108340000000 1.0
C      1  0.4006410000000  0.3923830000000  0.2748430000000 1.0
C      1  0.5993560000000  0.3923820000000  0.2748440000000 1.0
C      1  0.5958680000000  0.5454880000000  0.6181820000000 1.0
C      1  0.4041320000000  0.5454880000000  0.6181820000000 1.0
C      1  0.6908700000000  0.5444700000000  0.4732690000000 1.0
C      1  0.3091300000000  0.5444700000000  0.4732690000000 1.0
C      1  0.5492730000000  0.5540130000000  0.2449530000000 1.0
C      1  0.4507260000000  0.5540130000000  0.2449510000000 1.0
C      1  0.4039280000000  0.2946880000000  0.5008820000000 1.0
C      1  0.5960730000000  0.2946880000000  0.5008840000000 1.0
C      1  0.5954000000000  0.6859710000000  0.3702160000000 1.0
C      1  0.4046000000000  0.6859710000000  0.3702160000000 1.0
C      1  0.4493030000000  0.2837430000000  0.4117770000000 1.0
C      1  0.5507010000000  0.2837410000000  0.4117800000000 1.0
C      1  0.5504800000000  0.5513910000000  0.7642670000000 1.0
C      1  0.4495200000000  0.5513910000000  0.7642670000000 1.0
C      1  0.4448580000000  0.4714570000000  0.5412990000000 1.0
C      1  0.5551420000000  0.4714570000000  0.5412990000000 1.0
C      1  0.3313230000000  0.4158080000000  0.4178440000000 1.0
C      1  0.6686770000000  0.4158080000000  0.4178450000000 1.0
C      1  0.4577600000000  0.2351070000000  0.5729640000000 1.0
C      1  0.5422400000000  0.2351050000000  0.5729650000000 1.0
C      1  0.4428740000000  0.5910870000000  0.3519740000000 1.0
C      1  0.5571260000000  0.5910870000000  0.3519740000000 1.0
C      1  0.5501010000000  0.5704270000000  0.4955950000000 1.0
C      1  0.4498990000000  0.5704270000000  0.4955950000000 1.0
C      1  0.4455160000000  0.6483770000000  0.6303110000000 1.0
C      1  0.5544840000000  0.6483770000000  0.6303110000000 1.0
C      1  0.4458370000000  0.3677500000000  0.5695360000000 1.0
C      1  0.5541630000000  0.3677510000000  0.5695360000000 1.0
C      1  0.4094860000000  0.3788280000000  0.6656390000000 1.0
C      1  0.5905140000000  0.3788280000000  0.6656390000000 1.0
C      1  0.6078960000000  0.6419840000000  0.5089850000000 1.0
C      1  0.3921040000000  0.6419840000000  0.5089850000000 1.0
C      1  0.7018790000000  0.6437420000000  0.4696190000000 1.0
C      1  0.2981210000000  0.6437420000000  0.4696190000000 1.0
C      1  0.6810140000000  0.5088280000000  0.5613950000000 1.0
C      1  0.3189860000000  0.5088280000000  0.5613950000000 1.0
C      1  0.5889110000000  0.6280430000000  0.7298030000000 1.0
C      1  0.4110890000000  0.6280430000000  0.7298030000000 1.0
C      1  0.6316130000000  0.5131200000000  0.3883780000000 1.0
C      1  0.3683870000000  0.5131200000000  0.3883780000000 1.0
C      1  0.3094530000000  0.6864340000000  0.3839240000000 1.0
C      1  0.6905470000000  0.6864340000000  0.3839250000000 1.0
C      1  0.6059620000000  0.4848200000000  0.2885490000000 1.0
C      1  0.3940380000000  0.4848210000000  0.2885480000000 1.0
C      1  0.4438870000000  0.4704610000000  0.6918330000000 1.0
C      1  0.5561130000000  0.4704610000000  0.6918330000000 1.0
C      1  0.6711380000000  0.3654390000000  0.4935140000000 1.0
C      1  0.3288630000000  0.3654390000000  0.4935130000000 1.0
C      1  0.5570520000000  0.7268070000000  0.5482230000000 1.0
C      1  0.4429480000000  0.7268070000000  0.5482230000000 1.0
END
