TITL C-986977-940-122 0.0215109580836859 3375 -342.521961578537 0 0 60 (C1) n - 1
REM
REM in /home/bkarasulu/work/CARBON/AIRSS/Generating-Clusters/REBO/Higher-Symm/Only-C60
REM
REM
REM
REM
REM
REM ./C.cell (a2850807a9bf4ad07a5b6933b78d9264)
REM AIRSS Version 0.9.1 bugfix July 2018 build 013d7b7c2542+ Fri, 06 Jul 2018 19:26:36 +0100
REM compiler GCC version 9.2.1 20190827 (Red Hat 9.2.1-1)
REM options -cpp -mtune=generic -march=x86-64 -g -O0 -fpre-include=/usr/include/finclude/math-vector-fortran.h
REM seed 1414178675 -1761209580 2133175597 383994199 1280287907 1900260667 360036795 289100860 -1828495226 -929621764 1372472602 -246843026 1861256564 1698832318 1121514762 -1850536010 -977272854 1323379838 -1018980339 -1419731265 2094326613 2098275233 482295445 623057385 1471962500 748696892 420303102 -1689826561 -521789135 -676728223 114366650 1396568444 1273932383
REM
CELL 1.54180   15.00000   15.00000   15.00000   90.00000   90.00000   90.00000
LATT -1
SFAC C  
C      1  0.3490570000000  0.5489170000000  0.6748710000000 1.0
C      1  0.3298220000000  0.3462200000000  0.5995660000000 1.0
C      1  0.3452630000000  0.3499530000000  0.3821270000000 1.0
C      1  0.2874650000000  0.5432980000000  0.3260670000000 1.0
C      1  0.3223220000000  0.6507630000000  0.4903540000000 1.0
C      1  0.6538760000000  0.4489110000000  0.6727490000000 1.0
C      1  0.6580500000000  0.6574820000000  0.6024950000000 1.0
C      1  0.6547400000000  0.6491400000000  0.3823520000000 1.0
C      1  0.7117330000000  0.4555630000000  0.3257710000000 1.0
C      1  0.6777470000000  0.3479800000000  0.4903280000000 1.0
C      1  0.6674810000000  0.5540070000000  0.6368830000000 1.0
C      1  0.6751500000000  0.4086910000000  0.5765940000000 1.0
C      1  0.6934130000000  0.4019180000000  0.4045310000000 1.0
C      1  0.6861150000000  0.5489110000000  0.3523910000000 1.0
C      1  0.6834260000000  0.6592230000000  0.4918340000000 1.0
C      1  0.3363480000000  0.4448850000000  0.6344510000000 1.0
C      1  0.3277190000000  0.5904880000000  0.5775780000000 1.0
C      1  0.3061810000000  0.5968160000000  0.4047460000000 1.0
C      1  0.3134170000000  0.4500670000000  0.3524160000000 1.0
C      1  0.3153740000000  0.3421270000000  0.4913750000000 1.0
C      1  0.4312310000000  0.3968830000000  0.7224750000000 1.0
C      1  0.4111810000000  0.2409560000000  0.4841780000000 1.0
C      1  0.4167010000000  0.4592110000000  0.2550490000000 1.0
C      1  0.4465580000000  0.7137610000000  0.4029600000000 1.0
C      1  0.4393630000000  0.6884940000000  0.6640630000000 1.0
C      1  0.5748290000000  0.5955560000000  0.7317080000000 1.0
C      1  0.5875330000000  0.7620390000000  0.4793620000000 1.0
C      1  0.5837780000000  0.5409590000000  0.2539700000000 1.0
C      1  0.5518690000000  0.2859020000000  0.4052640000000 1.0
C      1  0.5561720000000  0.3161880000000  0.6674100000000 1.0
C      1  0.5268080000000  0.3693930000000  0.3718160000000 1.0
C      1  0.5627210000000  0.5964030000000  0.3402760000000 1.0
C      1  0.5649850000000  0.6851050000000  0.5439410000000 1.0
C      1  0.5500310000000  0.5127230000000  0.6830910000000 1.0
C      1  0.5298210000000  0.3244780000000  0.5681640000000 1.0
C      1  0.4727350000000  0.6302610000000  0.3701210000000 1.0
C      1  0.4372810000000  0.4034700000000  0.3413330000000 1.0
C      1  0.4344550000000  0.3170910000000  0.5442270000000 1.0
C      1  0.4529170000000  0.4856760000000  0.6823490000000 1.0
C      1  0.4694220000000  0.6779190000000  0.5662150000000 1.0
C      1  0.6032440000000  0.3685620000000  0.7135120000000 1.0
C      1  0.5969290000000  0.2930150000000  0.4898360000000 1.0
C      1  0.6477320000000  0.4745390000000  0.2488630000000 1.0
C      1  0.6307170000000  0.7489250000000  0.4086190000000 1.0
C      1  0.6228090000000  0.6593500000000  0.7046620000000 1.0
C      1  0.3923120000000  0.6367090000000  0.7103200000000 1.0
C      1  0.4021550000000  0.7071640000000  0.4878770000000 1.0
C      1  0.3522610000000  0.5251430000000  0.2495800000000 1.0
C      1  0.3704340000000  0.2510560000000  0.4113430000000 1.0
C      1  0.3835380000000  0.3343850000000  0.6917110000000 1.0
C      1  0.3997410000000  0.4651410000000  0.4208950000000 1.0
C      1  0.4132910000000  0.5681130000000  0.4293850000000 1.0
C      1  0.4297570000000  0.5836470000000  0.5296460000000 1.0
C      1  0.4208330000000  0.4929900000000  0.5784090000000 1.0
C      1  0.3982280000000  0.4174010000000  0.5102630000000 1.0
C      1  0.5988540000000  0.5344150000000  0.4201150000000 1.0
C      1  0.5869450000000  0.4317900000000  0.4299250000000 1.0
C      1  0.5721900000000  0.4174110000000  0.5306840000000 1.0
C      1  0.5824570000000  0.5091280000000  0.5786240000000 1.0
C      1  0.6004830000000  0.5832840000000  0.5082790000000 1.0
END
