TITL C-986979-5873-266 -0.00175449774090103 3375 -351.280809520502 0 0 60 (C1) n - 1
REM
REM in /home/bkarasulu/work/CARBON/AIRSS/Generating-Clusters/REBO/Higher-Symm/Only-C60
REM
REM
REM
REM
REM
REM ./C.cell (a2850807a9bf4ad07a5b6933b78d9264)
REM AIRSS Version 0.9.1 bugfix July 2018 build 013d7b7c2542+ Fri, 06 Jul 2018 19:26:36 +0100
REM compiler GCC version 9.2.1 20190827 (Red Hat 9.2.1-1)
REM options -cpp -mtune=generic -march=x86-64 -g -O0 -fpre-include=/usr/include/finclude/math-vector-fortran.h
REM seed 876383025 -289284224 597098898 1884428273 -1091738421 1446947044 1765842000 -403615085 1350663656 991914401 963548555 1279624706 831371776 -1806057281 941912583 1409122477 1092223588 -140260379 -308645420 295431230 -612194464 -1803859320 -285417959 -1504131033 1799257786 332543006 -1889938880 612577801 819640412 856315134 1052221104 1115348324 -758117572
REM
CELL 1.54180   15.00000   15.00000   15.00000   90.00000   90.00000   90.00000
LATT -1
SFAC C  
C      1  0.6547120000000  0.6755710000000  0.5550310000000 1.0
C      1  0.5756610000000  0.3020210000000  0.5459750000000 1.0
C      1  0.2708320000000  0.5204630000000  0.5416730000000 1.0
C      1  0.7358220000000  0.4031530000000  0.3645170000000 1.0
C      1  0.2925770000000  0.3447790000000  0.3713210000000 1.0
C      1  0.4657520000000  0.7440270000000  0.4038510000000 1.0
C      1  0.4387670000000  0.2991900000000  0.4380760000000 1.0
C      1  0.3399120000000  0.6239480000000  0.4167130000000 1.0
C      1  0.7128280000000  0.5597570000000  0.4316560000000 1.0
C      1  0.2235580000000  0.4665090000000  0.4766040000000 1.0
C      1  0.6317520000000  0.7450110000000  0.4938770000000 1.0
C      1  0.6384410000000  0.2865360000000  0.4764610000000 1.0
C      1  0.5438630000000  0.5385440000000  0.3505220000000 1.0
C      1  0.5072900000000  0.4291250000000  0.3451560000000 1.0
C      1  0.4367950000000  0.5131810000000  0.3351090000000 1.0
C      1  0.6122120000000  0.4802630000000  0.4675060000000 1.0
C      1  0.3710310000000  0.4562290000000  0.4817680000000 1.0
C      1  0.5512630000000  0.5756510000000  0.4781350000000 1.0
C      1  0.4564380000000  0.6734600000000  0.3281300000000 1.0
C      1  0.6801760000000  0.4634140000000  0.3015400000000 1.0
C      1  0.3672900000000  0.3427660000000  0.3082980000000 1.0
C      1  0.5661910000000  0.7428530000000  0.4279120000000 1.0
C      1  0.6669520000000  0.3348770000000  0.4025570000000 1.0
C      1  0.2696050000000  0.4351400000000  0.3979890000000 1.0
C      1  0.6509070000000  0.5472260000000  0.3544810000000 1.0
C      1  0.4522620000000  0.3443550000000  0.3549320000000 1.0
C      1  0.3890990000000  0.6065400000000  0.3386360000000 1.0
C      1  0.4895630000000  0.5804230000000  0.6814860000000 1.0
C      1  0.5725450000000  0.4792310000000  0.6590050000000 1.0
C      1  0.4416220000000  0.4584380000000  0.6470980000000 1.0
C      1  0.5226940000000  0.3881030000000  0.6862210000000 1.0
C      1  0.3819750000000  0.5448630000000  0.6767690000000 1.0
C      1  0.5974710000000  0.5830430000000  0.6970550000000 1.0
C      1  0.7054690000000  0.6002000000000  0.5219000000000 1.0
C      1  0.4854650000000  0.2902020000000  0.5267370000000 1.0
C      1  0.3036590000000  0.6067070000000  0.5105310000000 1.0
C      1  0.5931170000000  0.6634970000000  0.6286370000000 1.0
C      1  0.6018000000000  0.3554540000000  0.6199870000000 1.0
C      1  0.3142060000000  0.4818070000000  0.6175450000000 1.0
C      1  0.6057600000000  0.4249430000000  0.3808210000000 1.0
C      1  0.3537480000000  0.4888410000000  0.3901060000000 1.0
C      1  0.5485350000000  0.6420990000000  0.3862630000000 1.0
C      1  0.3400760000000  0.3742200000000  0.6286840000000 1.0
C      1  0.5047570000000  0.6869910000000  0.6037920000000 1.0
C      1  0.6789870000000  0.4143320000000  0.6144230000000 1.0
C      1  0.4458260000000  0.4688420000000  0.5389410000000 1.0
C      1  0.5000640000000  0.5566400000000  0.5783890000000 1.0
C      1  0.5553240000000  0.4653160000000  0.5524990000000 1.0
C      1  0.3434730000000  0.6773240000000  0.5725510000000 1.0
C      1  0.7296780000000  0.5336010000000  0.5922110000000 1.0
C      1  0.3800400000000  0.2954210000000  0.5570670000000 1.0
C      1  0.6784860000000  0.5074590000000  0.6801870000000 1.0
C      1  0.4157370000000  0.3639700000000  0.7044270000000 1.0
C      1  0.4075500000000  0.6514990000000  0.6471430000000 1.0
C      1  0.7661970000000  0.4657370000000  0.4334520000000 1.0
C      1  0.3271730000000  0.2894000000000  0.4560760000000 1.0
C      1  0.3937920000000  0.6984790000000  0.4757410000000 1.0
C      1  0.7045630000000  0.4590700000000  0.5183400000000 1.0
C      1  0.3167980000000  0.3814590000000  0.5190290000000 1.0
C      1  0.4918620000000  0.6678020000000  0.5084620000000 1.0
END
