TITL C-986976-6631-1029 0.109332933198964 3375 -338.306859354896 0 0 60 (C2) n - 1
REM
REM in /home/bkarasulu/work/CARBON/AIRSS/Generating-Clusters/REBO/Higher-Symm/Only-C60
REM
REM
REM
REM
REM
REM ./C.cell (a2850807a9bf4ad07a5b6933b78d9264)
REM AIRSS Version 0.9.1 bugfix July 2018 build 013d7b7c2542+ Fri, 06 Jul 2018 19:26:36 +0100
REM compiler GCC version 9.2.1 20190827 (Red Hat 9.2.1-1)
REM options -cpp -mtune=generic -march=x86-64 -g -O0 -fpre-include=/usr/include/finclude/math-vector-fortran.h
REM seed 458881577 -2058079327 1967213835 -1147770102 -1035896780 474229689 629952306 1215886095 129600573 -130815526 2081205298 1718447197 -76294059 1977581002 540626799 491791980 296305391 -1243624890 104945990 1480853532 1806602368 -1288965220 -325813133 455089567 258279547 1034833243 808407465 -1909724269 1136869121 1839180902 1419106433 1828440241 -1388475105
REM
CELL 1.54180   15.00000   15.00000   15.00000   90.00000   90.00000   90.00000
LATT -1
SFAC C  
C      1  0.4423440000000  0.3579690000000  0.4214410000000 1.0
C      1  0.4293700000000  0.6355510000000  0.3865510000000 1.0
C      1  0.4569950000000  0.5509850000000  0.6813700000000 1.0
C      1  0.5578840000000  0.6421060000000  0.4213320000000 1.0
C      1  0.5706730000000  0.3644280000000  0.3863970000000 1.0
C      1  0.5427580000000  0.4494250000000  0.6810500000000 1.0
C      1  0.5579980000000  0.6451920000000  0.5319770000000 1.0
C      1  0.5571250000000  0.3607500000000  0.6114150000000 1.0
C      1  0.5728760000000  0.4562150000000  0.3185000000000 1.0
C      1  0.4428360000000  0.3552550000000  0.5320770000000 1.0
C      1  0.4419650000000  0.6396540000000  0.6119380000000 1.0
C      1  0.4271200000000  0.5437600000000  0.3186490000000 1.0
C      1  0.5226410000000  0.2855760000000  0.4520710000000 1.0
C      1  0.5235830000000  0.6334910000000  0.3226850000000 1.0
C      1  0.5671350000000  0.5548680000000  0.7051390000000 1.0
C      1  0.4774200000000  0.7142160000000  0.4523760000000 1.0
C      1  0.4764110000000  0.3664890000000  0.3227430000000 1.0
C      1  0.4327890000000  0.4455410000000  0.7057060000000 1.0
C      1  0.4807910000000  0.7244530000000  0.5561470000000 1.0
C      1  0.4478740000000  0.3645450000000  0.6437560000000 1.0
C      1  0.4693990000000  0.4533190000000  0.2680540000000 1.0
C      1  0.5195590000000  0.2754250000000  0.5555910000000 1.0
C      1  0.5514240000000  0.6360640000000  0.6433990000000 1.0
C      1  0.5305050000000  0.5466820000000  0.2680340000000 1.0
C      1  0.7848250000000  0.4581590000000  0.6654420000000 1.0
C      1  0.8127600000000  0.3870360000000  0.3785380000000 1.0
C      1  0.7788520000000  0.6740840000000  0.4727900000000 1.0
C      1  0.2150820000000  0.5415220000000  0.6653630000000 1.0
C      1  0.1873290000000  0.6129000000000  0.3784170000000 1.0
C      1  0.2211360000000  0.3258470000000  0.4727160000000 1.0
C      1  0.1992940000000  0.5283690000000  0.3442850000000 1.0
C      1  0.2011440000000  0.6168330000000  0.6145230000000 1.0
C      1  0.2267840000000  0.3274140000000  0.5644440000000 1.0
C      1  0.8009570000000  0.4714880000000  0.3441580000000 1.0
C      1  0.7986030000000  0.3827940000000  0.6146040000000 1.0
C      1  0.7732630000000  0.6724880000000  0.5644990000000 1.0
C      1  0.6328370000000  0.5698060000000  0.5595880000000 1.0
C      1  0.6407190000000  0.3900500000000  0.5552890000000 1.0
C      1  0.6394190000000  0.4783040000000  0.3951360000000 1.0
C      1  0.3674030000000  0.4301680000000  0.5596860000000 1.0
C      1  0.3589800000000  0.6099180000000  0.5554440000000 1.0
C      1  0.3607110000000  0.5217380000000  0.3953930000000 1.0
C      1  0.3642420000000  0.4244960000000  0.4504360000000 1.0
C      1  0.3453880000000  0.6102260000000  0.4497710000000 1.0
C      1  0.3761440000000  0.5240650000000  0.6129060000000 1.0
C      1  0.6360550000000  0.5752250000000  0.4500120000000 1.0
C      1  0.6545770000000  0.3898210000000  0.4496910000000 1.0
C      1  0.6237940000000  0.4759020000000  0.6128140000000 1.0
C      1  0.2851580000000  0.4805910000000  0.6507560000000 1.0
C      1  0.2667210000000  0.3854460000000  0.4182970000000 1.0
C      1  0.2429070000000  0.6471970000000  0.4447580000000 1.0
C      1  0.7148050000000  0.5192070000000  0.6507600000000 1.0
C      1  0.7335090000000  0.6144870000000  0.4181700000000 1.0
C      1  0.7570510000000  0.3528260000000  0.4448090000000 1.0
C      1  0.7308490000000  0.5282690000000  0.3701060000000 1.0
C      1  0.7215300000000  0.6100800000000  0.6096540000000 1.0
C      1  0.7419390000000  0.3576160000000  0.5441870000000 1.0
C      1  0.2693290000000  0.4717750000000  0.3703410000000 1.0
C      1  0.2786700000000  0.3897010000000  0.6096230000000 1.0
C      1  0.2577600000000  0.6421960000000  0.5441970000000 1.0
END
