TITL C-986978-6805-281 2.20195305721582 3375 -260.742011547126 0 0 60 (Cs) n - 1
REM
REM in /home/bkarasulu/work/CARBON/AIRSS/Generating-Clusters/REBO/Higher-Symm/Only-C60
REM
REM
REM
REM
REM
REM ./C.cell (a2850807a9bf4ad07a5b6933b78d9264)
REM AIRSS Version 0.9.1 bugfix July 2018 build 013d7b7c2542+ Fri, 06 Jul 2018 19:26:36 +0100
REM compiler GCC version 9.2.1 20190827 (Red Hat 9.2.1-1)
REM options -cpp -mtune=generic -march=x86-64 -g -O0 -fpre-include=/usr/include/finclude/math-vector-fortran.h
REM seed -1469186651 1243264608 734473108 -406213507 539771522 317394592 -1031569928 -1265848455 -1952123539 -1992642417 -794246127 -2132774535 -972884324 1303143692 1816936353 -308555914 -834148914 1798326502 1695012247 1684920145 275604589 1897085464 -1567839487 733362666 -1726097658 -202403606 -1912784924 -1794447765 -1676520009 1377511703 614587335 1986673910 464785426
REM
CELL 1.54180   15.00000   15.00000   15.00000   90.00000   90.00000   90.00000
LATT -1
SFAC C  
C      1  0.4374500000000  0.4310540000000  0.4978890000000 1.0
C      1  0.5342880000000  0.4286210000000  0.4478990000000 1.0
C      1  0.5292740000000  0.4302360000000  0.5566380000000 1.0
C      1  0.4374780000000  0.5689370000000  0.4978970000000 1.0
C      1  0.5342820000000  0.5713760000000  0.4479080000000 1.0
C      1  0.5292610000000  0.5697550000000  0.5565860000000 1.0
C      1  0.6433130000000  0.4497670000000  0.4540400000000 1.0
C      1  0.4688830000000  0.4499170000000  0.6470460000000 1.0
C      1  0.3942200000000  0.4495160000000  0.3985710000000 1.0
C      1  0.6432550000000  0.5501730000000  0.4538920000000 1.0
C      1  0.4687000000000  0.5501490000000  0.6470180000000 1.0
C      1  0.3942210000000  0.5504840000000  0.3985710000000 1.0
C      1  0.4066790000000  0.6844640000000  0.6375660000000 1.0
C      1  0.4253990000000  0.6905460000000  0.3499750000000 1.0
C      1  0.6660600000000  0.6845740000000  0.5116800000000 1.0
C      1  0.4066890000000  0.3155210000000  0.6375590000000 1.0
C      1  0.4253980000000  0.3094550000000  0.3499740000000 1.0
C      1  0.6660800000000  0.3154450000000  0.5116860000000 1.0
C      1  0.5982720000000  0.5886700000000  0.2115920000000 1.0
C      1  0.7005020000000  0.5857030000000  0.7285860000000 1.0
C      1  0.2020900000000  0.5853510000000  0.5592860000000 1.0
C      1  0.5982720000000  0.4113300000000  0.2115920000000 1.0
C      1  0.7004950000000  0.4142950000000  0.7285870000000 1.0
C      1  0.2020940000000  0.4146500000000  0.5592860000000 1.0
C      1  0.5557700000000  0.6027690000000  0.6813640000000 1.0
C      1  0.3165030000000  0.6025360000000  0.4568030000000 1.0
C      1  0.6303990000000  0.6026050000000  0.3606040000000 1.0
C      1  0.5557590000000  0.3972310000000  0.6813070000000 1.0
C      1  0.3165320000000  0.3974710000000  0.4568120000000 1.0
C      1  0.6303970000000  0.3974140000000  0.3606120000000 1.0
C      1  0.5754670000000  0.3283750000000  0.5378770000000 1.0
C      1  0.4297740000000  0.3281340000000  0.5464040000000 1.0
C      1  0.4940270000000  0.3284800000000  0.4137520000000 1.0
C      1  0.5754790000000  0.6716340000000  0.5378690000000 1.0
C      1  0.4297770000000  0.6718650000000  0.5463940000000 1.0
C      1  0.4940340000000  0.6715330000000  0.4137670000000 1.0
C      1  0.3569170000000  0.6830520000000  0.4821550000000 1.0
C      1  0.5863160000000  0.6825920000000  0.3820180000000 1.0
C      1  0.5575660000000  0.6826340000000  0.6335690000000 1.0
C      1  0.3569150000000  0.3169480000000  0.4821540000000 1.0
C      1  0.5863100000000  0.3173950000000  0.3820210000000 1.0
C      1  0.5575690000000  0.3173770000000  0.6335820000000 1.0
C      1  0.6834700000000  0.5913830000000  0.5618810000000 1.0
C      1  0.3553510000000  0.5910930000000  0.6276410000000 1.0
C      1  0.4585080000000  0.5903050000000  0.3175230000000 1.0
C      1  0.6834400000000  0.4086720000000  0.5616860000000 1.0
C      1  0.3551540000000  0.4088420000000  0.6275800000000 1.0
C      1  0.4585140000000  0.4096810000000  0.3175390000000 1.0
C      1  0.3851020000000  0.5415790000000  0.2586390000000 1.0
C      1  0.7614170000000  0.5426740000000  0.5212180000000 1.0
C      1  0.3509370000000  0.5430730000000  0.7153880000000 1.0
C      1  0.3851020000000  0.4584220000000  0.2586390000000 1.0
C      1  0.7613840000000  0.4573070000000  0.5212360000000 1.0
C      1  0.3509360000000  0.4569400000000  0.7154120000000 1.0
C      1  0.5570900000000  0.5510620000000  0.2995250000000 1.0
C      1  0.6465010000000  0.5524460000000  0.6550550000000 1.0
C      1  0.2926690000000  0.5527740000000  0.5480290000000 1.0
C      1  0.5570900000000  0.4489370000000  0.2995240000000 1.0
C      1  0.6465020000000  0.4475520000000  0.6550660000000 1.0
C      1  0.2926680000000  0.4472250000000  0.5480310000000 1.0
END
