TITL C-986978-6805-466 0.00358343166656381 3375 -375.414505200902 0 0 60 (C2) n - 1
REM
REM in /home/bkarasulu/work/CARBON/AIRSS/Generating-Clusters/REBO/Higher-Symm/Only-C60
REM
REM
REM
REM
REM
REM ./C.cell (a2850807a9bf4ad07a5b6933b78d9264)
REM AIRSS Version 0.9.1 bugfix July 2018 build 013d7b7c2542+ Fri, 06 Jul 2018 19:26:36 +0100
REM compiler GCC version 9.2.1 20190827 (Red Hat 9.2.1-1)
REM options -cpp -mtune=generic -march=x86-64 -g -O0 -fpre-include=/usr/include/finclude/math-vector-fortran.h
REM seed 915302036 -1768978881 -1238759480 -1288596293 -1712847377 -161177604 -957915569 -2018201801 218460800 -1199582820 1740368201 -605958858 -1271997797 -244348192 -1746942724 789831540 -1785562189 -891863966 2082032006 2128400475 -1024997355 -2101860568 747677795 1737558541 -1153694544 -1712695543 -1309040674 1853009422 -1445200720 2023311595 327899536 1317437918 -842959707
REM
CELL 1.54180   15.00000   15.00000   15.00000   90.00000   90.00000   90.00000
LATT -1
SFAC C  
C      1  0.5516880000000  0.3634400000000  0.6933090000000 1.0
C      1  0.3609790000000  0.3510390000000  0.6412710000000 1.0
C      1  0.3206480000000  0.3451340000000  0.4507440000000 1.0
C      1  0.4484690000000  0.3635100000000  0.3066990000000 1.0
C      1  0.6392610000000  0.3508820000000  0.3586670000000 1.0
C      1  0.6796590000000  0.3448890000000  0.5492940000000 1.0
C      1  0.5550720000000  0.3562690000000  0.3174180000000 1.0
C      1  0.3659870000000  0.3598270000000  0.3539040000000 1.0
C      1  0.3178670000000  0.3414860000000  0.5439540000000 1.0
C      1  0.4451100000000  0.3563680000000  0.6825370000000 1.0
C      1  0.6342610000000  0.3596620000000  0.6461720000000 1.0
C      1  0.6823960000000  0.3413020000000  0.4560430000000 1.0
C      1  0.2969820000000  0.5772690000000  0.6685510000000 1.0
C      1  0.2319070000000  0.5714030000000  0.4134040000000 1.0
C      1  0.4541120000000  0.5944710000000  0.2406440000000 1.0
C      1  0.7029230000000  0.5771940000000  0.3313890000000 1.0
C      1  0.7679090000000  0.5712880000000  0.5866350000000 1.0
C      1  0.5457260000000  0.5943480000000  0.7592750000000 1.0
C      1  0.2930660000000  0.5877740000000  0.3336730000000 1.0
C      1  0.2339880000000  0.5669130000000  0.5897570000000 1.0
C      1  0.4451720000000  0.5854030000000  0.7731210000000 1.0
C      1  0.7067940000000  0.5877160000000  0.6663700000000 1.0
C      1  0.7658410000000  0.5668050000000  0.4102610000000 1.0
C      1  0.5546890000000  0.5853170000000  0.2268930000000 1.0
C      1  0.7839840000000  0.4830550000000  0.4526520000000 1.0
C      1  0.6830830000000  0.5131760000000  0.7211730000000 1.0
C      1  0.3993640000000  0.5015990000000  0.7689950000000 1.0
C      1  0.2160740000000  0.4831150000000  0.5473600000000 1.0
C      1  0.3168930000000  0.5132310000000  0.2788860000000 1.0
C      1  0.6006540000000  0.5015790000000  0.2309450000000 1.0
C      1  0.7832730000000  0.4852210000000  0.5477670000000 1.0
C      1  0.6831950000000  0.5002630000000  0.2782440000000 1.0
C      1  0.3992410000000  0.5166460000000  0.2314310000000 1.0
C      1  0.2167820000000  0.4852800000000  0.4522540000000 1.0
C      1  0.3168040000000  0.5003230000000  0.7216930000000 1.0
C      1  0.6007010000000  0.5165710000000  0.7685720000000 1.0
C      1  0.4449160000000  0.6582070000000  0.3221460000000 1.0
C      1  0.6299650000000  0.6439140000000  0.3639970000000 1.0
C      1  0.6967610000000  0.6398330000000  0.5447060000000 1.0
C      1  0.5548950000000  0.6580440000000  0.6777980000000 1.0
C      1  0.3698150000000  0.6441530000000  0.6360860000000 1.0
C      1  0.3029820000000  0.6400730000000  0.4553080000000 1.0
C      1  0.4483500000000  0.6494000000000  0.6877370000000 1.0
C      1  0.6356820000000  0.6547870000000  0.6313970000000 1.0
C      1  0.6945830000000  0.6364450000000  0.4498590000000 1.0
C      1  0.5515020000000  0.6493110000000  0.3122870000000 1.0
C      1  0.3640940000000  0.6549980000000  0.3685580000000 1.0
C      1  0.3051370000000  0.6367070000000  0.5502030000000 1.0
C      1  0.7451450000000  0.4110700000000  0.5944550000000 1.0
C      1  0.5545120000000  0.4332360000000  0.7748570000000 1.0
C      1  0.2890960000000  0.4161200000000  0.6856630000000 1.0
C      1  0.2550110000000  0.4112060000000  0.4056030000000 1.0
C      1  0.4455740000000  0.4333260000000  0.2251650000000 1.0
C      1  0.7110340000000  0.4161080000000  0.3143110000000 1.0
C      1  0.7494460000000  0.4055150000000  0.4085200000000 1.0
C      1  0.5455330000000  0.4239140000000  0.2391790000000 1.0
C      1  0.2930810000000  0.4271370000000  0.3129400000000 1.0
C      1  0.2507450000000  0.4056070000000  0.5914610000000 1.0
C      1  0.4545630000000  0.4240100000000  0.7607300000000 1.0
C      1  0.7070260000000  0.4271110000000  0.6870770000000 1.0
END
