TITL C-986974-580-774 -0.0240528048319486 3375 -339.20615805634 0 0 60 (C1) n - 1
REM
REM in /home/bkarasulu/work/CARBON/AIRSS/Generating-Clusters/REBO/Higher-Symm/Only-C60
REM
REM
REM
REM
REM
REM ./C.cell (a2850807a9bf4ad07a5b6933b78d9264)
REM AIRSS Version 0.9.1 bugfix July 2018 build 013d7b7c2542+ Fri, 06 Jul 2018 19:26:36 +0100
REM compiler GCC version 9.2.1 20190827 (Red Hat 9.2.1-1)
REM options -cpp -mtune=generic -march=x86-64 -g -O0 -fpre-include=/usr/include/finclude/math-vector-fortran.h
REM seed 1178560169 -1801943545 -1665636765 569380048 -462370454 1516716926 221057986 1852017466 -381431666 -1298628742 -466834981 -115483776 653376459 52935623 -127469372 1995879832 -2065948460 188945185 -1172947956 1200665069 225603412 -1088016339 1170201297 1366965405 -1113806703 -612815671 313789795 -1673649185 -1510331514 670085804 1661301194 1516075739 -838732117
REM
CELL 1.54180   15.00000   15.00000   15.00000   90.00000   90.00000   90.00000
LATT -1
SFAC C  
C      1  0.3598850000000  0.3900270000000  0.6403340000000 1.0
C      1  0.6400740000000  0.3919610000000  0.6396670000000 1.0
C      1  0.4596530000000  0.5249480000000  0.2136870000000 1.0
C      1  0.5427850000000  0.5271450000000  0.2111210000000 1.0
C      1  0.4598930000000  0.4653150000000  0.7813990000000 1.0
C      1  0.5434270000000  0.4717910000000  0.7821770000000 1.0
C      1  0.6111750000000  0.3299320000000  0.4629520000000 1.0
C      1  0.3676310000000  0.3192980000000  0.4668940000000 1.0
C      1  0.6908890000000  0.6436450000000  0.5090060000000 1.0
C      1  0.3146210000000  0.6428280000000  0.5154250000000 1.0
C      1  0.2911840000000  0.4565910000000  0.4899910000000 1.0
C      1  0.7161280000000  0.4594760000000  0.4882810000000 1.0
C      1  0.3913640000000  0.4864040000000  0.2890330000000 1.0
C      1  0.6181350000000  0.4916230000000  0.2817580000000 1.0
C      1  0.6584090000000  0.7117500000000  0.4535560000000 1.0
C      1  0.3513130000000  0.7070950000000  0.4587790000000 1.0
C      1  0.7245430000000  0.4642460000000  0.3747040000000 1.0
C      1  0.2855750000000  0.4641890000000  0.3766350000000 1.0
C      1  0.6314920000000  0.4587570000000  0.5469010000000 1.0
C      1  0.3772960000000  0.4487870000000  0.5430640000000 1.0
C      1  0.5519410000000  0.7142330000000  0.5518930000000 1.0
C      1  0.4388370000000  0.7066800000000  0.5588030000000 1.0
C      1  0.5415000000000  0.6426380000000  0.6634710000000 1.0
C      1  0.4520960000000  0.6432200000000  0.6741010000000 1.0
C      1  0.5482180000000  0.5430610000000  0.3433650000000 1.0
C      1  0.4630070000000  0.5409890000000  0.3459900000000 1.0
C      1  0.4421870000000  0.3324510000000  0.4159590000000 1.0
C      1  0.5394940000000  0.3406850000000  0.4036530000000 1.0
C      1  0.4152650000000  0.5964320000000  0.4209480000000 1.0
C      1  0.5969600000000  0.5999270000000  0.4154870000000 1.0
C      1  0.3318140000000  0.5566380000000  0.3574590000000 1.0
C      1  0.6795860000000  0.5577180000000  0.3523360000000 1.0
C      1  0.3683250000000  0.3116710000000  0.5580500000000 1.0
C      1  0.6072100000000  0.3248420000000  0.5534820000000 1.0
C      1  0.6061010000000  0.4834950000000  0.6996280000000 1.0
C      1  0.3955570000000  0.4802800000000  0.7010640000000 1.0
C      1  0.4323640000000  0.5923640000000  0.5525760000000 1.0
C      1  0.5276550000000  0.6115180000000  0.5300490000000 1.0
C      1  0.6352710000000  0.6522520000000  0.5973040000000 1.0
C      1  0.3517850000000  0.6651910000000  0.6203950000000 1.0
C      1  0.5663290000000  0.5212950000000  0.4881820000000 1.0
C      1  0.4535070000000  0.5104250000000  0.4853180000000 1.0
C      1  0.4498460000000  0.3932320000000  0.3204560000000 1.0
C      1  0.5628830000000  0.3958940000000  0.3109630000000 1.0
C      1  0.2941980000000  0.5629320000000  0.4650830000000 1.0
C      1  0.7170940000000  0.5653190000000  0.4599350000000 1.0
C      1  0.5560360000000  0.3608100000000  0.7100200000000 1.0
C      1  0.4511260000000  0.3588840000000  0.7016310000000 1.0
C      1  0.4415510000000  0.2873740000000  0.6194230000000 1.0
C      1  0.5423830000000  0.3027350000000  0.6236140000000 1.0
C      1  0.5421890000000  0.4760490000000  0.6108560000000 1.0
C      1  0.4579880000000  0.4742420000000  0.6130550000000 1.0
C      1  0.6970290000000  0.3672630000000  0.4264440000000 1.0
C      1  0.2834170000000  0.3631270000000  0.4261020000000 1.0
C      1  0.3688250000000  0.5782570000000  0.6912560000000 1.0
C      1  0.6279120000000  0.5811350000000  0.6813850000000 1.0
C      1  0.3381520000000  0.3776400000000  0.3277000000000 1.0
C      1  0.6726370000000  0.3828700000000  0.3185370000000 1.0
C      1  0.4586020000000  0.6918910000000  0.4479120000000 1.0
C      1  0.5576580000000  0.6965330000000  0.4307490000000 1.0
END
