TITL C-986979-5873-572 -0.0195933025832441 3375 -326.698095335355 0 0 60 (C1) n - 1
REM
REM in /home/bkarasulu/work/CARBON/AIRSS/Generating-Clusters/REBO/Higher-Symm/Only-C60
REM
REM
REM
REM
REM
REM ./C.cell (a2850807a9bf4ad07a5b6933b78d9264)
REM AIRSS Version 0.9.1 bugfix July 2018 build 013d7b7c2542+ Fri, 06 Jul 2018 19:26:36 +0100
REM compiler GCC version 9.2.1 20190827 (Red Hat 9.2.1-1)
REM options -cpp -mtune=generic -march=x86-64 -g -O0 -fpre-include=/usr/include/finclude/math-vector-fortran.h
REM seed 2082176650 -1809427667 -1664433803 658299759 -985624764 605618919 -283711999 -1907453476 -815726614 2138441360 1770311859 -1776942670 -432023447 -564462339 -250654997 -576496448 629711745 1965638417 1374684669 1411621758 -542314622 628737272 -571091194 -1046000769 -909892433 1573866867 565557459 -1022959635 -1533409012 1597515899 1683563773 -1668231016 629801794
REM
CELL 1.54180   15.00000   15.00000   15.00000   90.00000   90.00000   90.00000
LATT -1
SFAC C  
C      1  0.6926450000000  0.5910200000000  0.4297000000000 1.0
C      1  0.3153180000000  0.5906740000000  0.5816730000000 1.0
C      1  0.6910650000000  0.5825110000000  0.5820960000000 1.0
C      1  0.3161570000000  0.5979870000000  0.4291070000000 1.0
C      1  0.6372200000000  0.4097370000000  0.6020280000000 1.0
C      1  0.3766850000000  0.4136840000000  0.4023650000000 1.0
C      1  0.6229520000000  0.4075150000000  0.4024360000000 1.0
C      1  0.3712590000000  0.4130580000000  0.5934830000000 1.0
C      1  0.5675080000000  0.5773100000000  0.7006480000000 1.0
C      1  0.4562100000000  0.5950920000000  0.3185610000000 1.0
C      1  0.5691560000000  0.5930090000000  0.3139510000000 1.0
C      1  0.4543300000000  0.5808490000000  0.6928770000000 1.0
C      1  0.5475660000000  0.6609970000000  0.6326260000000 1.0
C      1  0.4421610000000  0.6862010000000  0.3845850000000 1.0
C      1  0.5483490000000  0.6719040000000  0.3864780000000 1.0
C      1  0.4412240000000  0.6760410000000  0.6341170000000 1.0
C      1  0.3777120000000  0.6604950000000  0.5561130000000 1.0
C      1  0.6267220000000  0.6540800000000  0.4618820000000 1.0
C      1  0.3782130000000  0.6649690000000  0.4612290000000 1.0
C      1  0.6261300000000  0.6491280000000  0.5562490000000 1.0
C      1  0.4153030000000  0.3114040000000  0.4035310000000 1.0
C      1  0.5690740000000  0.3386300000000  0.5739250000000 1.0
C      1  0.4370870000000  0.3393880000000  0.5631890000000 1.0
C      1  0.5454330000000  0.3365120000000  0.4146970000000 1.0
C      1  0.4160270000000  0.7712780000000  0.3352170000000 1.0
C      1  0.5824940000000  0.7620240000000  0.6084120000000 1.0
C      1  0.4152550000000  0.7575980000000  0.6891710000000 1.0
C      1  0.5825690000000  0.7705760000000  0.4194480000000 1.0
C      1  0.3551040000000  0.5554320000000  0.3446950000000 1.0
C      1  0.6615390000000  0.5350990000000  0.6675630000000 1.0
C      1  0.3523020000000  0.5421670000000  0.6651470000000 1.0
C      1  0.6613480000000  0.5482440000000  0.3430670000000 1.0
C      1  0.6026140000000  0.4471540000000  0.7048360000000 1.0
C      1  0.4137340000000  0.4692530000000  0.3070470000000 1.0
C      1  0.6043040000000  0.4606430000000  0.3025590000000 1.0
C      1  0.4109540000000  0.4508980000000  0.6959370000000 1.0
C      1  0.4226140000000  0.5122670000000  0.5799850000000 1.0
C      1  0.5868540000000  0.5108550000000  0.4227160000000 1.0
C      1  0.4200510000000  0.5150670000000  0.4307810000000 1.0
C      1  0.5824460000000  0.5060460000000  0.5892810000000 1.0
C      1  0.4988700000000  0.3260320000000  0.6500880000000 1.0
C      1  0.4759320000000  0.3613350000000  0.3303690000000 1.0
C      1  0.4984480000000  0.4386760000000  0.6236800000000 1.0
C      1  0.5009270000000  0.4573430000000  0.3826880000000 1.0
C      1  0.3271160000000  0.4489640000000  0.4984510000000 1.0
C      1  0.6721250000000  0.4425320000000  0.4990640000000 1.0
C      1  0.5102000000000  0.5106550000000  0.2626650000000 1.0
C      1  0.5058430000000  0.4920850000000  0.7437060000000 1.0
C      1  0.2939240000000  0.5390150000000  0.5023190000000 1.0
C      1  0.7120580000000  0.5304470000000  0.5026330000000 1.0
C      1  0.5130950000000  0.7034880000000  0.5110730000000 1.0
C      1  0.5003440000000  0.0793665000000  0.5013300000000 1.0
C      1  0.5127440000000  0.9922350000000  0.5138110000000 1.0
C      1  0.5075150000000  0.5088740000000  0.5049060000000 1.0
C      1  0.5516740000000  0.8087600000000  0.5158220000000 1.0
C      1  0.4810470000000  0.2493640000000  0.4487690000000 1.0
C      1  0.5051410000000  0.6229440000000  0.5068490000000 1.0
C      1  0.5099380000000  0.3933850000000  0.4988760000000 1.0
C      1  0.4900910000000  0.1651670000000  0.4804370000000 1.0
C      1  0.5281040000000  0.9056540000000  0.5191100000000 1.0
END
