TITL C-986973-6940-272 -0.0628672251095208 3375 -297.531519995629 0 0 60 (C1) n - 1
REM
REM in /home/bkarasulu/work/CARBON/AIRSS/Generating-Clusters/REBO/Higher-Symm/Only-C60
REM
REM
REM
REM
REM
REM ./C.cell (a2850807a9bf4ad07a5b6933b78d9264)
REM AIRSS Version 0.9.1 bugfix July 2018 build 013d7b7c2542+ Fri, 06 Jul 2018 19:26:36 +0100
REM compiler GCC version 9.2.1 20190827 (Red Hat 9.2.1-1)
REM options -cpp -mtune=generic -march=x86-64 -g -O0 -fpre-include=/usr/include/finclude/math-vector-fortran.h
REM seed -378399140 1472028850 131641454 539997107 33884787 287959938 -974869277 99169926 -440406923 -669772805 -1384793044 -1237253137 -201792877 -1890628164 -1854159359 1366573287 -192139650 1728561040 1465082613 1357692220 1467386430 1422401801 -679292853 1409657533 1935390824 837496995 -404673606 395916108 1813052218 -1169669823 792871119 980878917 -889121649
REM
CELL 1.54180   15.00000   15.00000   15.00000   90.00000   90.00000   90.00000
LATT -1
SFAC C  
C      1  0.4561300000000  0.3534050000000  0.6567060000000 1.0
C      1  0.6543730000000  0.5383390000000  0.6502680000000 1.0
C      1  0.3861790000000  0.6096680000000  0.6590190000000 1.0
C      1  0.5441470000000  0.3540660000000  0.3431790000000 1.0
C      1  0.3456430000000  0.5389100000000  0.3495420000000 1.0
C      1  0.6139160000000  0.6100940000000  0.3406430000000 1.0
C      1  0.3361130000000  0.5058330000000  0.6413440000000 1.0
C      1  0.5675730000000  0.3691180000000  0.6342350000000 1.0
C      1  0.5834430000000  0.6284650000000  0.6370840000000 1.0
C      1  0.6637550000000  0.5061040000000  0.3585790000000 1.0
C      1  0.4325020000000  0.3694480000000  0.3652650000000 1.0
C      1  0.4166380000000  0.6288630000000  0.3624410000000 1.0
C      1  0.4516570000000  0.5290770000000  0.4536940000000 1.0
C      1  0.5156870000000  0.4354790000000  0.4467950000000 1.0
C      1  0.5636980000000  0.5378360000000  0.4387200000000 1.0
C      1  0.5480600000000  0.5268640000000  0.5455600000000 1.0
C      1  0.4831510000000  0.4340960000000  0.5542540000000 1.0
C      1  0.4362100000000  0.5370830000000  0.5610420000000 1.0
C      1  0.5709080000000  0.5341150000000  0.7225860000000 1.0
C      1  0.4436400000000  0.5383890000000  0.7219640000000 1.0
C      1  0.4909240000000  0.4350380000000  0.7212200000000 1.0
C      1  0.4291330000000  0.5344680000000  0.2771240000000 1.0
C      1  0.5564110000000  0.5387940000000  0.2777200000000 1.0
C      1  0.5091640000000  0.4355020000000  0.2783780000000 1.0
C      1  0.4887130000000  0.6273440000000  0.2795630000000 1.0
C      1  0.3974120000000  0.4288200000000  0.2817780000000 1.0
C      1  0.6225420000000  0.4461410000000  0.2780120000000 1.0
C      1  0.5114080000000  0.6269530000000  0.7200330000000 1.0
C      1  0.6025490000000  0.4283810000000  0.7180140000000 1.0
C      1  0.3775170000000  0.4456720000000  0.7216330000000 1.0
C      1  0.7625430000000  0.6507670000000  0.4509130000000 1.0
C      1  0.2575620000000  0.6454150000000  0.4582390000000 1.0
C      1  0.5015250000000  0.2107970000000  0.4562760000000 1.0
C      1  0.2373960000000  0.6504070000000  0.5495530000000 1.0
C      1  0.7418390000000  0.6443070000000  0.5419250000000 1.0
C      1  0.4989410000000  0.2059190000000  0.5506940000000 1.0
C      1  0.6268540000000  0.3603200000000  0.4210380000000 1.0
C      1  0.5636750000000  0.6701540000000  0.4244390000000 1.0
C      1  0.3144940000000  0.4595700000000  0.4254870000000 1.0
C      1  0.3739150000000  0.3598710000000  0.5783580000000 1.0
C      1  0.4364730000000  0.6695180000000  0.5751560000000 1.0
C      1  0.6856180000000  0.4587440000000  0.5745890000000 1.0
C      1  0.6737620000000  0.3765600000000  0.3293830000000 1.0
C      1  0.5221440000000  0.7050780000000  0.3345760000000 1.0
C      1  0.3109220000000  0.4124900000000  0.3321530000000 1.0
C      1  0.3265260000000  0.3761250000000  0.6699180000000 1.0
C      1  0.4779490000000  0.7046530000000  0.6649810000000 1.0
C      1  0.6890910000000  0.4119320000000  0.6678740000000 1.0
C      1  0.3322570000000  0.5885600000000  0.5602280000000 1.0
C      1  0.4983060000000  0.3195500000000  0.5543170000000 1.0
C      1  0.6483270000000  0.5830460000000  0.5476550000000 1.0
C      1  0.6677600000000  0.5890460000000  0.4393750000000 1.0
C      1  0.5021920000000  0.3210560000000  0.4453490000000 1.0
C      1  0.3508180000000  0.5843260000000  0.4519550000000 1.0
C      1  0.3321840000000  0.4574140000000  0.5381740000000 1.0
C      1  0.6129880000000  0.3839640000000  0.5313020000000 1.0
C      1  0.5435390000000  0.6630130000000  0.5365840000000 1.0
C      1  0.6675820000000  0.4579750000000  0.4619160000000 1.0
C      1  0.3869420000000  0.3841580000000  0.4681710000000 1.0
C      1  0.4566800000000  0.6629010000000  0.4630290000000 1.0
END
