TITL C-986978-6805-616 0.0187630392231715 3375 -339.03876329579 0 0 60 (C6h) n - 1
REM
REM in /home/bkarasulu/work/CARBON/AIRSS/Generating-Clusters/REBO/Higher-Symm/Only-C60
REM
REM
REM
REM
REM
REM ./C.cell (a2850807a9bf4ad07a5b6933b78d9264)
REM AIRSS Version 0.9.1 bugfix July 2018 build 013d7b7c2542+ Fri, 06 Jul 2018 19:26:36 +0100
REM compiler GCC version 9.2.1 20190827 (Red Hat 9.2.1-1)
REM options -cpp -mtune=generic -march=x86-64 -g -O0 -fpre-include=/usr/include/finclude/math-vector-fortran.h
REM seed 1021623973 1230995566 2117234431 -1798072409 152086107 1757477716 2010891398 1779481416 -1307728190 -478149441 -328292533 1926664346 -1152036195 1677612597 -701697247 -904651305 1933299359 -1980465292 1650483202 -1654278136 -1110080019 -962189907 1712772457 532685764 925513755 -1796362635 218457813 -154476210 -2064554327 -1533252360 -328202590 -415701089 1800629052
REM
CELL 1.54180   15.00000   15.00000   15.00000   90.00000   90.00000   90.00000
LATT -1
SFAC C  
C      1  0.5625540000000  0.5950650000000  0.4106670000000 1.0
C      1  0.6086280000000  0.5950640000000  0.5095250000000 1.0
C      1  0.5460700000000  0.5950670000000  0.5988330000000 1.0
C      1  0.4374460000000  0.5950650000000  0.5893330000000 1.0
C      1  0.3913720000000  0.5950640000000  0.4904750000000 1.0
C      1  0.4539300000000  0.5950670000000  0.4011670000000 1.0
C      1  0.5625540000000  0.4049350000000  0.4106670000000 1.0
C      1  0.6086280000000  0.4049360000000  0.5095250000000 1.0
C      1  0.5460700000000  0.4049330000000  0.5988330000000 1.0
C      1  0.4374460000000  0.4049350000000  0.5893330000000 1.0
C      1  0.3913720000000  0.4049360000000  0.4904750000000 1.0
C      1  0.4539300000000  0.4049330000000  0.4011670000000 1.0
C      1  0.3315770000000  0.4544870000000  0.4160520000000 1.0
C      1  0.4884970000000  0.4544890000000  0.3121660000000 1.0
C      1  0.6569130000000  0.4544880000000  0.3961150000000 1.0
C      1  0.6684230000000  0.4544870000000  0.5839480000000 1.0
C      1  0.5115030000000  0.4544890000000  0.6878340000000 1.0
C      1  0.3430870000000  0.4544880000000  0.6038850000000 1.0
C      1  0.3315770000000  0.5455130000000  0.4160520000000 1.0
C      1  0.4884970000000  0.5455110000000  0.3121660000000 1.0
C      1  0.6569130000000  0.5455120000000  0.3961150000000 1.0
C      1  0.6684230000000  0.5455130000000  0.5839480000000 1.0
C      1  0.5115030000000  0.5455110000000  0.6878340000000 1.0
C      1  0.3430870000000  0.5455120000000  0.6038850000000 1.0
C      1  0.4566950000000  0.6153000000000  0.7196060000000 1.0
C      1  0.2881460000000  0.6153060000000  0.5723070000000 1.0
C      1  0.3314550000000  0.6153050000000  0.3526840000000 1.0
C      1  0.5433050000000  0.6153000000000  0.2803940000000 1.0
C      1  0.7118540000000  0.6153060000000  0.4276930000000 1.0
C      1  0.6685450000000  0.6153050000000  0.6473160000000 1.0
C      1  0.4566950000000  0.3847000000000  0.7196060000000 1.0
C      1  0.2881460000000  0.3846940000000  0.5723070000000 1.0
C      1  0.3314550000000  0.3846950000000  0.3526840000000 1.0
C      1  0.5433050000000  0.3847000000000  0.2803940000000 1.0
C      1  0.7118540000000  0.3846940000000  0.4276930000000 1.0
C      1  0.6685450000000  0.3846950000000  0.6473160000000 1.0
C      1  0.5649190000000  0.3089360000000  0.3549920000000 1.0
C      1  0.6580370000000  0.3089320000000  0.4837180000000 1.0
C      1  0.5931190000000  0.3089320000000  0.6287220000000 1.0
C      1  0.4350810000000  0.3089360000000  0.6450080000000 1.0
C      1  0.3419630000000  0.3089320000000  0.5162820000000 1.0
C      1  0.4068810000000  0.3089320000000  0.3712780000000 1.0
C      1  0.5649190000000  0.6910640000000  0.3549920000000 1.0
C      1  0.6580370000000  0.6910680000000  0.4837180000000 1.0
C      1  0.5931190000000  0.6910680000000  0.6287220000000 1.0
C      1  0.4350810000000  0.6910640000000  0.6450080000000 1.0
C      1  0.3419630000000  0.6910680000000  0.5162820000000 1.0
C      1  0.4068810000000  0.6910680000000  0.3712780000000 1.0
C      1  0.5895580000000  0.7654160000000  0.4348550000000 1.0
C      1  0.6011970000000  0.7654150000000  0.5449820000000 1.0
C      1  0.5116470000000  0.7654160000000  0.6101310000000 1.0
C      1  0.4104420000000  0.7654160000000  0.5651450000000 1.0
C      1  0.3988030000000  0.7654150000000  0.4550180000000 1.0
C      1  0.4883530000000  0.7654160000000  0.3898690000000 1.0
C      1  0.5895580000000  0.2345840000000  0.4348550000000 1.0
C      1  0.6011970000000  0.2345850000000  0.5449820000000 1.0
C      1  0.5116470000000  0.2345840000000  0.6101310000000 1.0
C      1  0.4104420000000  0.2345840000000  0.5651450000000 1.0
C      1  0.3988030000000  0.2345850000000  0.4550180000000 1.0
C      1  0.4883530000000  0.2345840000000  0.3898690000000 1.0
END
