TITL C-986974-580-604 -6.5829671779352e-06 3375 -340.30240762107 0 0 60 (Ci) n - 1
REM
REM in /home/bkarasulu/work/CARBON/AIRSS/Generating-Clusters/REBO/Higher-Symm/Only-C60
REM
REM
REM
REM
REM
REM ./C.cell (a2850807a9bf4ad07a5b6933b78d9264)
REM AIRSS Version 0.9.1 bugfix July 2018 build 013d7b7c2542+ Fri, 06 Jul 2018 19:26:36 +0100
REM compiler GCC version 9.2.1 20190827 (Red Hat 9.2.1-1)
REM options -cpp -mtune=generic -march=x86-64 -g -O0 -fpre-include=/usr/include/finclude/math-vector-fortran.h
REM seed 2065621038 -404411701 -1293147684 -731085059 -1520537971 1043687023 1459143846 1782248822 744608221 -2041507502 931965370 -348218904 -241126941 542201522 550002652 -362933116 456372803 392733564 -1320266458 1827876609 1659007190 -1578034733 84767480 1500326050 -1133359418 1511666492 -257129368 362619881 2047873930 1847494549 -540357547 1324436520 1345446957
REM
CELL 1.54180   15.00000   15.00000   15.00000   90.00000   90.00000   90.00000
LATT -1
SFAC C  
C      1  0.5442070000000  0.4931460000000  0.6267800000000 1.0
C      1  0.4557930000000  0.5068540000000  0.3732200000000 1.0
C      1  0.6184520000000  0.3781570000000  0.2916770000000 1.0
C      1  0.3815480000000  0.6218430000000  0.7083230000000 1.0
C      1  0.5738220000000  0.7094380000000  0.4120150000000 1.0
C      1  0.4261780000000  0.2905610000000  0.5879850000000 1.0
C      1  0.5605390000000  0.6385210000000  0.3491610000000 1.0
C      1  0.4394610000000  0.3614790000000  0.6508390000000 1.0
C      1  0.4496280000000  0.2597490000000  0.4802130000000 1.0
C      1  0.5503720000000  0.7402510000000  0.5197870000000 1.0
C      1  0.5780100000000  0.3304740000000  0.3819000000000 1.0
C      1  0.4219900000000  0.6695260000000  0.6181010000000 1.0
C      1  0.5372340000000  0.3880820000000  0.6465380000000 1.0
C      1  0.4627660000000  0.6119180000000  0.3534620000000 1.0
C      1  0.5968650000000  0.5676180000000  0.2943250000000 1.0
C      1  0.4031340000000  0.4323820000000  0.7056750000000 1.0
C      1  0.4731640000000  0.4497690000000  0.4664090000000 1.0
C      1  0.5268350000000  0.5502310000000  0.5335910000000 1.0
C      1  0.5336850000000  0.4276490000000  0.3497340000000 1.0
C      1  0.4663150000000  0.5723510000000  0.6502660000000 1.0
C      1  0.3556880000000  0.6757490000000  0.5411530000000 1.0
C      1  0.6443120000000  0.3242510000000  0.4588470000000 1.0
C      1  0.7051600000000  0.5380960000000  0.5077210000000 1.0
C      1  0.2948390000000  0.4619030000000  0.4922790000000 1.0
C      1  0.4704480000000  0.3152220000000  0.3832180000000 1.0
C      1  0.5295520000000  0.6847780000000  0.6167820000000 1.0
C      1  0.5832040000000  0.2870490000000  0.6310620000000 1.0
C      1  0.4167960000000  0.7129520000000  0.3689380000000 1.0
C      1  0.5183150000000  0.2306040000000  0.5582570000000 1.0
C      1  0.4816850000000  0.7693970000000  0.4417440000000 1.0
C      1  0.4196150000000  0.5407170000000  0.5077410000000 1.0
C      1  0.5803850000000  0.4592820000000  0.4922590000000 1.0
C      1  0.6730810000000  0.6286260000000  0.5190320000000 1.0
C      1  0.3269180000000  0.3713730000000  0.4809680000000 1.0
C      1  0.6192750000000  0.2670760000000  0.5284550000000 1.0
C      1  0.3807250000000  0.7329250000000  0.4715450000000 1.0
C      1  0.5561030000000  0.5624560000000  0.7471350000000 1.0
C      1  0.4438970000000  0.4375440000000  0.2528650000000 1.0
C      1  0.5282550000000  0.5006060000000  0.2623620000000 1.0
C      1  0.4717440000000  0.4993940000000  0.7376380000000 1.0
C      1  0.3034400000000  0.6489050000000  0.4048080000000 1.0
C      1  0.6965600000000  0.3510950000000  0.5951920000000 1.0
C      1  0.7249990000000  0.4543870000000  0.5732420000000 1.0
C      1  0.2750010000000  0.5456130000000  0.4267590000000 1.0
C      1  0.6634230000000  0.4932170000000  0.4222810000000 1.0
C      1  0.3365760000000  0.5067830000000  0.5777180000000 1.0
C      1  0.2998660000000  0.5961880000000  0.5265720000000 1.0
C      1  0.7001340000000  0.4038130000000  0.4734280000000 1.0
C      1  0.4071300000000  0.3923260000000  0.3287090000000 1.0
C      1  0.5928700000000  0.6076740000000  0.6712920000000 1.0
C      1  0.3931060000000  0.6058530000000  0.4342500000000 1.0
C      1  0.6068940000000  0.3941470000000  0.5657500000000 1.0
C      1  0.6856220000000  0.4375130000000  0.2753880000000 1.0
C      1  0.3143770000000  0.5624870000000  0.7246120000000 1.0
C      1  0.6490680000000  0.5322210000000  0.6078210000000 1.0
C      1  0.3509320000000  0.4677790000000  0.3921800000000 1.0
C      1  0.4192080000000  0.3632510000000  0.4674030000000 1.0
C      1  0.5807920000000  0.6367480000000  0.5325970000000 1.0
C      1  0.6723150000000  0.5170520000000  0.3267970000000 1.0
C      1  0.3276850000000  0.4829480000000  0.6732030000000 1.0
END
