TITL C-986975-4297-824 1.34668600136636e-05 3375 -346.448283613345 0 0 60 (C6) n - 1
REM
REM in /home/bkarasulu/work/CARBON/AIRSS/Generating-Clusters/REBO/Higher-Symm/Only-C60
REM
REM
REM
REM
REM
REM ./C.cell (a2850807a9bf4ad07a5b6933b78d9264)
REM AIRSS Version 0.9.1 bugfix July 2018 build 013d7b7c2542+ Fri, 06 Jul 2018 19:26:36 +0100
REM compiler GCC version 9.2.1 20190827 (Red Hat 9.2.1-1)
REM options -cpp -mtune=generic -march=x86-64 -g -O0 -fpre-include=/usr/include/finclude/math-vector-fortran.h
REM seed 24141836 -1153586818 1031074499 -1480921367 -1231699240 -1076877052 -877950672 1749425666 596767955 -989041361 1660293913 1979551459 2138812393 1953497278 937849578 -452585302 -1791075867 -1116408443 -1831993958 192493559 -763779391 540631873 -792936151 -689852928 -344189995 1588378961 -1685308508 985439743 -1382899270 6403095 -1015447827 -1921794543 -679265893
REM
CELL 1.54180   15.00000   15.00000   15.00000   90.00000   90.00000   90.00000
LATT -1
SFAC C  
C      1  0.5881590000000  0.4472130000000  0.2973410000000 1.0
C      1  0.3685710000000  0.4472130000000  0.3223220000000 1.0
C      1  0.2804120000000  0.4472130000000  0.5249820000000 1.0
C      1  0.4118410000000  0.4472130000000  0.7026590000000 1.0
C      1  0.6314290000000  0.4472130000000  0.6776780000000 1.0
C      1  0.7195880000000  0.4472130000000  0.4750180000000 1.0
C      1  0.3027800000000  0.5237930000000  0.3738630000000 1.0
C      1  0.2921520000000  0.5237930000000  0.6077290000000 1.0
C      1  0.4893720000000  0.5237930000000  0.7338660000000 1.0
C      1  0.6972200000000  0.5237930000000  0.6261370000000 1.0
C      1  0.7078480000000  0.5237930000000  0.3922710000000 1.0
C      1  0.5106280000000  0.5237930000000  0.2661340000000 1.0
C      1  0.4224620000000  0.5409520000000  0.3193520000000 1.0
C      1  0.3047850000000  0.5409520000000  0.4768260000000 1.0
C      1  0.3823230000000  0.5409520000000  0.6574740000000 1.0
C      1  0.5775380000000  0.5409520000000  0.6806480000000 1.0
C      1  0.6952150000000  0.5409520000000  0.5231740000000 1.0
C      1  0.6176770000000  0.5409520000000  0.3425260000000 1.0
C      1  0.5386980000000  0.5406330000000  0.5839690000000 1.0
C      1  0.5920690000000  0.5406330000000  0.5084710000000 1.0
C      1  0.5533710000000  0.5406330000000  0.4245020000000 1.0
C      1  0.4613020000000  0.5406330000000  0.4160310000000 1.0
C      1  0.4079310000000  0.5406330000000  0.4915290000000 1.0
C      1  0.4466290000000  0.5406330000000  0.5754980000000 1.0
C      1  0.6533950000000  0.4213150000000  0.3866820000000 1.0
C      1  0.4785610000000  0.4213150000000  0.3104970000000 1.0
C      1  0.3251660000000  0.4213150000000  0.4238150000000 1.0
C      1  0.3466050000000  0.4213150000000  0.6133180000000 1.0
C      1  0.5214390000000  0.4213150000000  0.6895030000000 1.0
C      1  0.6748340000000  0.4213150000000  0.5761850000000 1.0
C      1  0.5125910000000  0.3570120000000  0.6093460000000 1.0
C      1  0.6009920000000  0.3570120000000  0.5437690000000 1.0
C      1  0.5884010000000  0.3570120000000  0.4344230000000 1.0
C      1  0.4874090000000  0.3570120000000  0.3906540000000 1.0
C      1  0.3990080000000  0.3570120000000  0.4562310000000 1.0
C      1  0.4115990000000  0.3570120000000  0.5655770000000 1.0
C      1  0.5223190000000  0.6280530000000  0.3115950000000 1.0
C      1  0.3479960000000  0.6280530000000  0.3864690000000 1.0
C      1  0.3256770000000  0.6280530000000  0.5748740000000 1.0
C      1  0.4776810000000  0.6280530000000  0.6884050000000 1.0
C      1  0.6520040000000  0.6280530000000  0.6135310000000 1.0
C      1  0.6743230000000  0.6280530000000  0.4251260000000 1.0
C      1  0.3662970000000  0.6282980000000  0.2864180000000 1.0
C      1  0.2481810000000  0.6282970000000  0.5089990000000 1.0
C      1  0.3818840000000  0.6282980000000  0.7225820000000 1.0
C      1  0.6337030000000  0.6282980000000  0.7135820000000 1.0
C      1  0.7518190000000  0.6282970000000  0.4910010000000 1.0
C      1  0.6181160000000  0.6282980000000  0.2774180000000 1.0
C      1  0.4408420000000  0.2485760000000  0.5819700000000 1.0
C      1  0.5414090000000  0.2485760000000  0.5922170000000 1.0
C      1  0.6005670000000  0.2485760000000  0.5102470000000 1.0
C      1  0.5591580000000  0.2485760000000  0.4180300000000 1.0
C      1  0.4585910000000  0.2485760000000  0.4077830000000 1.0
C      1  0.3994330000000  0.2485760000000  0.4897530000000 1.0
C      1  0.5896840000000  0.6641550000000  0.4587020000000 1.0
C      1  0.5090770000000  0.6641550000000  0.4016820000000 1.0
C      1  0.4193930000000  0.6641550000000  0.4429800000000 1.0
C      1  0.4103160000000  0.6641550000000  0.5412980000000 1.0
C      1  0.4909230000000  0.6641550000000  0.5983180000000 1.0
C      1  0.5806070000000  0.6641550000000  0.5570200000000 1.0
END
