TITL C-986974-580-734 -9.63496735145872e-06 3375 -330.719051036205 0 0 60 (S4) n - 1
REM
REM in /home/bkarasulu/work/CARBON/AIRSS/Generating-Clusters/REBO/Higher-Symm/Only-C60
REM
REM
REM
REM
REM
REM ./C.cell (a2850807a9bf4ad07a5b6933b78d9264)
REM AIRSS Version 0.9.1 bugfix July 2018 build 013d7b7c2542+ Fri, 06 Jul 2018 19:26:36 +0100
REM compiler GCC version 9.2.1 20190827 (Red Hat 9.2.1-1)
REM options -cpp -mtune=generic -march=x86-64 -g -O0 -fpre-include=/usr/include/finclude/math-vector-fortran.h
REM seed -1925323642 -973360857 -1377574116 62608595 -234710510 1328747779 -2079096676 -1550710904 -2030335617 -2098158373 997083511 728310463 173572628 -1416395249 -775097314 1327940641 -143208367 872740253 -378462602 535067159 2032848584 2079279477 688050215 2088153409 -428375041 20833615 -983730272 -210368906 -901815705 -431545038 556812769 178314353 -1925057628
REM
CELL 1.54180   15.00000   15.00000   15.00000   90.00000   90.00000   90.00000
LATT -1
SFAC C  
C      1  0.6955300000000  0.4769880000000  0.5792400000000 1.0
C      1  0.4207600000000  0.5230120000000  0.6955300000000 1.0
C      1  0.3044700000000  0.4769880000000  0.4207600000000 1.0
C      1  0.5792400000000  0.5230120000000  0.3044700000000 1.0
C      1  0.6396680000000  0.5046890000000  0.4894460000000 1.0
C      1  0.5105540000000  0.4953110000000  0.6396680000000 1.0
C      1  0.3603320000000  0.5046890000000  0.5105540000000 1.0
C      1  0.4894460000000  0.4953110000000  0.3603320000000 1.0
C      1  0.5525560000000  0.2467160000000  0.5216780000000 1.0
C      1  0.4783220000000  0.7532840000000  0.5525560000000 1.0
C      1  0.4474440000000  0.2467160000000  0.4783220000000 1.0
C      1  0.5216780000000  0.7532840000000  0.4474440000000 1.0
C      1  0.4511180000000  0.5414750000000  0.5546950000000 1.0
C      1  0.4453050000000  0.4585250000000  0.4511180000000 1.0
C      1  0.5488820000000  0.5414750000000  0.4453050000000 1.0
C      1  0.5546950000000  0.4585250000000  0.5488820000000 1.0
C      1  0.6407790000000  0.4626910000000  0.6744030000000 1.0
C      1  0.3255970000000  0.5373090000000  0.6407790000000 1.0
C      1  0.3592210000000  0.4626910000000  0.3255970000000 1.0
C      1  0.6744030000000  0.5373090000000  0.3592210000000 1.0
C      1  0.2921970000000  0.3919250000000  0.4919220000000 1.0
C      1  0.5080780000000  0.6080750000000  0.2921970000000 1.0
C      1  0.7078030000000  0.3919250000000  0.5080780000000 1.0
C      1  0.4919220000000  0.6080750000000  0.7078030000000 1.0
C      1  0.4964520000000  0.3483650000000  0.3408120000000 1.0
C      1  0.6591880000000  0.6516350000000  0.4964520000000 1.0
C      1  0.5035480000000  0.3483650000000  0.6591880000000 1.0
C      1  0.3408120000000  0.6516350000000  0.5035480000000 1.0
C      1  0.6675480000000  0.3581710000000  0.4317260000000 1.0
C      1  0.5682740000000  0.6418290000000  0.6675480000000 1.0
C      1  0.3324520000000  0.3581710000000  0.5682740000000 1.0
C      1  0.4317260000000  0.6418290000000  0.3324520000000 1.0
C      1  0.3955990000000  0.7295730000000  0.4792560000000 1.0
C      1  0.5207440000000  0.2704270000000  0.3955990000000 1.0
C      1  0.6044010000000  0.7295730000000  0.5207440000000 1.0
C      1  0.4792560000000  0.2704270000000  0.6044010000000 1.0
C      1  0.5406700000000  0.3967360000000  0.4330850000000 1.0
C      1  0.5669150000000  0.6032640000000  0.5406700000000 1.0
C      1  0.4593300000000  0.3967360000000  0.5669150000000 1.0
C      1  0.4330850000000  0.6032640000000  0.4593300000000 1.0
C      1  0.4219030000000  0.3513240000000  0.4698410000000 1.0
C      1  0.5301590000000  0.6486760000000  0.4219030000000 1.0
C      1  0.5780970000000  0.3513240000000  0.5301590000000 1.0
C      1  0.4698410000000  0.6486760000000  0.5780970000000 1.0
C      1  0.3710140000000  0.5603260000000  0.3785090000000 1.0
C      1  0.6214910000000  0.4396740000000  0.3710140000000 1.0
C      1  0.6289860000000  0.5603260000000  0.6214910000000 1.0
C      1  0.3785090000000  0.4396740000000  0.6289860000000 1.0
C      1  0.3827000000000  0.2735710000000  0.5691970000000 1.0
C      1  0.4308030000000  0.7264290000000  0.3827000000000 1.0
C      1  0.6173000000000  0.2735710000000  0.4308030000000 1.0
C      1  0.5691970000000  0.7264290000000  0.6173000000000 1.0
C      1  0.6150840000000  0.6312170000000  0.3723310000000 1.0
C      1  0.6276690000000  0.3687830000000  0.6150840000000 1.0
C      1  0.3849160000000  0.6312170000000  0.6276690000000 1.0
C      1  0.3723310000000  0.3687830000000  0.3849160000000 1.0
C      1  0.4511440000000  0.4187650000000  0.2902460000000 1.0
C      1  0.7097540000000  0.5812350000000  0.4511440000000 1.0
C      1  0.5488560000000  0.4187650000000  0.7097540000000 1.0
C      1  0.2902460000000  0.5812350000000  0.5488560000000 1.0
END
