TITL C-986975-4297-165 0.0129457206392982 3375 -340.092540376183 0 0 60 (C1) n - 1
REM
REM in /home/bkarasulu/work/CARBON/AIRSS/Generating-Clusters/REBO/Higher-Symm/Only-C60
REM
REM
REM
REM
REM
REM ./C.cell (a2850807a9bf4ad07a5b6933b78d9264)
REM AIRSS Version 0.9.1 bugfix July 2018 build 013d7b7c2542+ Fri, 06 Jul 2018 19:26:36 +0100
REM compiler GCC version 9.2.1 20190827 (Red Hat 9.2.1-1)
REM options -cpp -mtune=generic -march=x86-64 -g -O0 -fpre-include=/usr/include/finclude/math-vector-fortran.h
REM seed -1679171476 -1236764442 492258640 -1807358982 -829067587 -1982331185 -317193464 622951229 -269927403 -1565999388 -1863519232 -398679622 1311994943 -944578139 2080861784 500903028 955191559 1167712601 -311983652 -1191214033 1866426614 450468896 1750459496 -151491714 -1763910930 112293668 1439043587 1133627238 -1647974397 1256511664 1166402831 -703381428 1455287043
REM
CELL 1.54180   15.00000   15.00000   15.00000   90.00000   90.00000   90.00000
LATT -1
SFAC C  
C      1  0.2723180000000  0.5374840000000  0.4498650000000 1.0
C      1  0.2633470000000  0.4417970000000  0.5012310000000 1.0
C      1  0.2665230000000  0.5328780000000  0.5592460000000 1.0
C      1  0.7346450000000  0.5286420000000  0.5470060000000 1.0
C      1  0.7415800000000  0.4347450000000  0.4937860000000 1.0
C      1  0.7304870000000  0.5271350000000  0.4375270000000 1.0
C      1  0.5312230000000  0.5510250000000  0.7179950000000 1.0
C      1  0.5313310000000  0.6506800000000  0.3450820000000 1.0
C      1  0.5330450000000  0.2878810000000  0.4426990000000 1.0
C      1  0.4663590000000  0.5369880000000  0.2724180000000 1.0
C      1  0.4662290000000  0.6490910000000  0.6554830000000 1.0
C      1  0.4659660000000  0.2886110000000  0.5582400000000 1.0
C      1  0.5580280000000  0.3836580000000  0.2671990000000 1.0
C      1  0.5452780000000  0.4026840000000  0.7176320000000 1.0
C      1  0.5343810000000  0.7533260000000  0.4953750000000 1.0
C      1  0.4476670000000  0.3898660000000  0.7352970000000 1.0
C      1  0.4603910000000  0.3980310000000  0.2806060000000 1.0
C      1  0.4357770000000  0.7647650000000  0.4965540000000 1.0
C      1  0.5518640000000  0.6466710000000  0.6247000000000 1.0
C      1  0.5522150000000  0.5136220000000  0.2951320000000 1.0
C      1  0.5516710000000  0.3180240000000  0.5710500000000 1.0
C      1  0.4486390000000  0.6611160000000  0.3823380000000 1.0
C      1  0.4470080000000  0.5187450000000  0.7012880000000 1.0
C      1  0.4480660000000  0.3184840000000  0.4296900000000 1.0
C      1  0.3810260000000  0.6428480000000  0.5941640000000 1.0
C      1  0.3751290000000  0.5016280000000  0.3263790000000 1.0
C      1  0.3812080000000  0.3471270000000  0.5808940000000 1.0
C      1  0.6173690000000  0.6416540000000  0.4073800000000 1.0
C      1  0.6187730000000  0.5053180000000  0.6747370000000 1.0
C      1  0.6188200000000  0.3443750000000  0.4209000000000 1.0
C      1  0.6994530000000  0.3529670000000  0.4915000000000 1.0
C      1  0.6966200000000  0.5622860000000  0.6231830000000 1.0
C      1  0.6841270000000  0.5717320000000  0.3704150000000 1.0
C      1  0.3026960000000  0.3591830000000  0.5074260000000 1.0
C      1  0.3153790000000  0.5707600000000  0.3745450000000 1.0
C      1  0.3123340000000  0.5740440000000  0.6288790000000 1.0
C      1  0.3955540000000  0.5638210000000  0.5137660000000 1.0
C      1  0.3921030000000  0.4804960000000  0.4366430000000 1.0
C      1  0.3943240000000  0.4550250000000  0.5459110000000 1.0
C      1  0.6073810000000  0.5615700000000  0.4870400000000 1.0
C      1  0.6108300000000  0.4789900000000  0.5642790000000 1.0
C      1  0.6074500000000  0.4529710000000  0.4543030000000 1.0
C      1  0.6375640000000  0.2922600000000  0.5420710000000 1.0
C      1  0.6387470000000  0.6360000000000  0.6594110000000 1.0
C      1  0.6427100000000  0.5428480000000  0.2884480000000 1.0
C      1  0.3623920000000  0.2944470000000  0.4599740000000 1.0
C      1  0.3577250000000  0.6544090000000  0.3562530000000 1.0
C      1  0.3553060000000  0.5434400000000  0.7095710000000 1.0
C      1  0.6302860000000  0.3451870000000  0.3176590000000 1.0
C      1  0.6295900000000  0.4312440000000  0.7574030000000 1.0
C      1  0.6180990000000  0.7350640000000  0.4506790000000 1.0
C      1  0.3739130000000  0.3518030000000  0.6851250000000 1.0
C      1  0.3854110000000  0.4376470000000  0.2360370000000 1.0
C      1  0.3639870000000  0.7344970000000  0.5516680000000 1.0
C      1  0.5476230000000  0.4433210000000  0.3693270000000 1.0
C      1  0.5521330000000  0.4081640000000  0.6125300000000 1.0
C      1  0.5529960000000  0.6448480000000  0.5240160000000 1.0
C      1  0.4545370000000  0.4453500000000  0.6306090000000 1.0
C      1  0.4486720000000  0.4080110000000  0.3863820000000 1.0
C      1  0.4536950000000  0.6487160000000  0.4830570000000 1.0
END
