TITL C-986978-6805-1125 -9.38959013443009e-07 3375 -338.917086597151 0 0 60 (C5) n - 1
REM
REM in /home/bkarasulu/work/CARBON/AIRSS/Generating-Clusters/REBO/Higher-Symm/Only-C60
REM
REM
REM
REM
REM
REM ./C.cell (a2850807a9bf4ad07a5b6933b78d9264)
REM AIRSS Version 0.9.1 bugfix July 2018 build 013d7b7c2542+ Fri, 06 Jul 2018 19:26:36 +0100
REM compiler GCC version 9.2.1 20190827 (Red Hat 9.2.1-1)
REM options -cpp -mtune=generic -march=x86-64 -g -O0 -fpre-include=/usr/include/finclude/math-vector-fortran.h
REM seed -2142407469 -540501779 -33960588 -1601910324 -918222624 -1811972951 623111623 2107023319 -1090961138 -2071388657 -1651628997 -528401295 -1749613980 -1127870515 -641665844 535193821 -714498928 -533915804 -1896032803 -1738795253 -388704833 -2025985067 68787626 1551898846 113495376 -1239156320 148051132 -153528000 -981025006 -1228952649 -920122136 -896507828 1219525693
REM
CELL 1.54180   15.00000   15.00000   15.00000   90.00000   90.00000   90.00000
LATT -1
SFAC C  
C      1  0.5044640000000  0.5939460000000  0.4923210000000 1.0
C      1  0.5044630000000  0.5363340000000  0.5869750000000 1.0
C      1  0.5044630000000  0.4285100000000  0.5614320000000 1.0
C      1  0.5044630000000  0.4194830000000  0.4509920000000 1.0
C      1  0.5044640000000  0.5217280000000  0.4082790000000 1.0
C      1  0.5107020000000  0.6733680000000  0.2561980000000 1.0
C      1  0.5107010000000  0.7854430000000  0.5895440000000 1.0
C      1  0.5106980000000  0.5030450000000  0.7991430000000 1.0
C      1  0.5106980000000  0.2164390000000  0.5953370000000 1.0
C      1  0.5107010000000  0.3217040000000  0.2597780000000 1.0
C      1  0.7069970000000  0.5302840000000  0.5850900000000 1.0
C      1  0.7069970000000  0.4284330000000  0.5550980000000 1.0
C      1  0.7069970000000  0.4254840000000  0.4489640000000 1.0
C      1  0.7069980000000  0.5255120000000  0.4133620000000 1.0
C      1  0.7069980000000  0.5902820000000  0.4974920000000 1.0
C      1  0.2684040000000  0.5931850000000  0.4922640000000 1.0
C      1  0.2684030000000  0.5361530000000  0.5862310000000 1.0
C      1  0.2684030000000  0.4291610000000  0.5610280000000 1.0
C      1  0.2684040000000  0.4200680000000  0.4514850000000 1.0
C      1  0.2684040000000  0.5214400000000  0.4089860000000 1.0
C      1  0.3689280000000  0.6926900000000  0.6203670000000 1.0
C      1  0.3689260000000  0.4450690000000  0.7204530000000 1.0
C      1  0.3689260000000  0.2733610000000  0.5158800000000 1.0
C      1  0.3689280000000  0.4148620000000  0.2893600000000 1.0
C      1  0.3689290000000  0.6740210000000  0.3539360000000 1.0
C      1  0.5192760000000  0.5853220000000  0.7610090000000 1.0
C      1  0.5192750000000  0.2781310000000  0.6618030000000 1.0
C      1  0.5192770000000  0.2775550000000  0.3389900000000 1.0
C      1  0.5192790000000  0.5843900000000  0.2386880000000 1.0
C      1  0.5192780000000  0.7746010000000  0.4995100000000 1.0
C      1  0.3069490000000  0.6238290000000  0.3933440000000 1.0
C      1  0.3069480000000  0.6397010000000  0.5848090000000 1.0
C      1  0.3069470000000  0.4625120000000  0.6590690000000 1.0
C      1  0.3069470000000  0.3371320000000  0.5135000000000 1.0
C      1  0.3069490000000  0.4368320000000  0.3492730000000 1.0
C      1  0.6466460000000  0.5736760000000  0.3298340000000 1.0
C      1  0.6466450000000  0.6846050000000  0.5174870000000 1.0
C      1  0.6466440000000  0.5404160000000  0.6809750000000 1.0
C      1  0.6466430000000  0.3403720000000  0.5943630000000 1.0
C      1  0.6466450000000  0.3609280000000  0.3773460000000 1.0
C      1  0.6475670000000  0.3341630000000  0.4824100000000 1.0
C      1  0.6475680000000  0.4654830000000  0.3368450000000 1.0
C      1  0.6475690000000  0.6445040000000  0.4167560000000 1.0
C      1  0.6475680000000  0.6238240000000  0.6117090000000 1.0
C      1  0.6475660000000  0.4320230000000  0.6522850000000 1.0
C      1  0.4985400000000  0.3105680000000  0.4200880000000 1.0
C      1  0.4985410000000  0.5174630000000  0.2951450000000 1.0
C      1  0.4985410000000  0.7002250000000  0.4533050000000 1.0
C      1  0.4985400000000  0.6062820000000  0.6759950000000 1.0
C      1  0.4985390000000  0.3654620000000  0.6554660000000 1.0
C      1  0.4701660000000  0.6925100000000  0.3526850000000 1.0
C      1  0.4701640000000  0.6995940000000  0.6375650000000 1.0
C      1  0.4701620000000  0.4308460000000  0.7323350000000 1.0
C      1  0.4701620000000  0.2576670000000  0.5060260000000 1.0
C      1  0.4701650000000  0.4193840000000  0.2713890000000 1.0
C      1  0.5513660000000  0.4844880000000  0.6738040000000 1.0
C      1  0.5513660000000  0.3299090000000  0.5389560000000 1.0
C      1  0.5513670000000  0.4103900000000  0.3502730000000 1.0
C      1  0.5513680000000  0.6147080000000  0.3685080000000 1.0
C      1  0.5513670000000  0.6605030000000  0.5684610000000 1.0
END
