TITL C-986978-6805-988 0.221702982789966 3375 -333.103373741765 0 0 60 (C1) n - 1
REM
REM in /home/bkarasulu/work/CARBON/AIRSS/Generating-Clusters/REBO/Higher-Symm/Only-C60
REM
REM
REM
REM
REM
REM ./C.cell (a2850807a9bf4ad07a5b6933b78d9264)
REM AIRSS Version 0.9.1 bugfix July 2018 build 013d7b7c2542+ Fri, 06 Jul 2018 19:26:36 +0100
REM compiler GCC version 9.2.1 20190827 (Red Hat 9.2.1-1)
REM options -cpp -mtune=generic -march=x86-64 -g -O0 -fpre-include=/usr/include/finclude/math-vector-fortran.h
REM seed -1584890769 -667982816 477380297 237031206 1770187266 -1864196092 -313500518 1572346072 -183410240 -375926608 -1169882338 -1275711286 1389184487 1266513136 259487448 -1709907263 -744685167 2036977698 -770189792 -1087206946 -808374770 -1123148409 1665238420 -192824434 -1681351154 -81731453 827047981 1185165737 1975071142 -1672598589 1122605907 597446384 -518146757
REM
CELL 1.54180   15.00000   15.00000   15.00000   90.00000   90.00000   90.00000
LATT -1
SFAC C  
C      1  0.6104620000000  0.3047330000000  0.5758410000000 1.0
C      1  0.3098490000000  0.6132030000000  0.6245360000000 1.0
C      1  0.5977650000000  0.6174580000000  0.3248390000000 1.0
C      1  0.3273810000000  0.3164260000000  0.3981040000000 1.0
C      1  0.3431080000000  0.7023650000000  0.6121820000000 1.0
C      1  0.6050460000000  0.6861920000000  0.4062380000000 1.0
C      1  0.6918940000000  0.5791910000000  0.3540680000000 1.0
C      1  0.6983010000000  0.4204780000000  0.6506730000000 1.0
C      1  0.2964680000000  0.4059430000000  0.3823130000000 1.0
C      1  0.4200630000000  0.6409760000000  0.7255560000000 1.0
C      1  0.4536870000000  0.3431150000000  0.2548890000000 1.0
C      1  0.6179890000000  0.3530940000000  0.6640120000000 1.0
C      1  0.6353500000000  0.7004360000000  0.5600570000000 1.0
C      1  0.2708070000000  0.4647910000000  0.6630160000000 1.0
C      1  0.6031520000000  0.3526140000000  0.3237630000000 1.0
C      1  0.3420830000000  0.7699020000000  0.4690830000000 1.0
C      1  0.3284760000000  0.2365500000000  0.5353640000000 1.0
C      1  0.6076780000000  0.3251760000000  0.4154730000000 1.0
C      1  0.7457030000000  0.4321120000000  0.3629360000000 1.0
C      1  0.7101580000000  0.5768110000000  0.6419230000000 1.0
C      1  0.3386940000000  0.5580560000000  0.3445200000000 1.0
C      1  0.4672910000000  0.3584520000000  0.7473980000000 1.0
C      1  0.4237720000000  0.5864660000000  0.3106350000000 1.0
C      1  0.5685200000000  0.6470630000000  0.6795810000000 1.0
C      1  0.5497730000000  0.5518240000000  0.6823800000000 1.0
C      1  0.5371520000000  0.7097620000000  0.5553370000000 1.0
C      1  0.7105940000000  0.5479570000000  0.5493780000000 1.0
C      1  0.4714970000000  0.5129530000000  0.2718650000000 1.0
C      1  0.4737260000000  0.4482110000000  0.7166560000000 1.0
C      1  0.6143840000000  0.4428950000000  0.2996100000000 1.0
C      1  0.4329060000000  0.7383330000000  0.4809120000000 1.0
C      1  0.4218310000000  0.2612330000000  0.5260820000000 1.0
C      1  0.5192150000000  0.3023840000000  0.4468410000000 1.0
C      1  0.3191260000000  0.5594000000000  0.4398470000000 1.0
C      1  0.2774280000000  0.4622530000000  0.5664160000000 1.0
C      1  0.7288980000000  0.4557500000000  0.4557870000000 1.0
C      1  0.5701030000000  0.4527710000000  0.6753320000000 1.0
C      1  0.5216180000000  0.2829780000000  0.5497270000000 1.0
C      1  0.7136180000000  0.4395980000000  0.5572440000000 1.0
C      1  0.4301110000000  0.4308210000000  0.2531870000000 1.0
C      1  0.4463250000000  0.5478660000000  0.7195900000000 1.0
C      1  0.5651910000000  0.5215780000000  0.2855380000000 1.0
C      1  0.4209440000000  0.3076150000000  0.4229700000000 1.0
C      1  0.4376270000000  0.7076140000000  0.5840300000000 1.0
C      1  0.5241160000000  0.7123020000000  0.4475400000000 1.0
C      1  0.2871910000000  0.4584670000000  0.4635880000000 1.0
C      1  0.3021320000000  0.5632790000000  0.5415670000000 1.0
C      1  0.7024220000000  0.5620620000000  0.4480110000000 1.0
C      1  0.2907540000000  0.5510700000000  0.6962530000000 1.0
C      1  0.7323210000000  0.5062490000000  0.3057410000000 1.0
C      1  0.4928930000000  0.6975560000000  0.7050070000000 1.0
C      1  0.6735260000000  0.6891810000000  0.4743660000000 1.0
C      1  0.7057140000000  0.5030120000000  0.7003040000000 1.0
C      1  0.4903690000000  0.6533860000000  0.3296210000000 1.0
C      1  0.5454980000000  0.3102980000000  0.7333490000000 1.0
C      1  0.2925820000000  0.7559510000000  0.5477160000000 1.0
C      1  0.2770870000000  0.2619560000000  0.4607730000000 1.0
C      1  0.6631060000000  0.3224600000000  0.4959160000000 1.0
C      1  0.3088890000000  0.4704870000000  0.3109030000000 1.0
C      1  0.5356340000000  0.3068840000000  0.2736150000000 1.0
END
