TITL C-986976-6631-644 -3.1331759537787e-06 3375 -350.041101113869 0 0 60 (C5) n - 1
REM
REM in /home/bkarasulu/work/CARBON/AIRSS/Generating-Clusters/REBO/Higher-Symm/Only-C60
REM
REM
REM
REM
REM
REM ./C.cell (a2850807a9bf4ad07a5b6933b78d9264)
REM AIRSS Version 0.9.1 bugfix July 2018 build 013d7b7c2542+ Fri, 06 Jul 2018 19:26:36 +0100
REM compiler GCC version 9.2.1 20190827 (Red Hat 9.2.1-1)
REM options -cpp -mtune=generic -march=x86-64 -g -O0 -fpre-include=/usr/include/finclude/math-vector-fortran.h
REM seed -1971253998 -447532448 289852019 -321621734 1324707907 487861673 125096322 -1204249459 1124583168 -1927923202 333106026 -828898968 -2071560358 172281963 -2132717732 1209737313 941609660 1559128184 1157700087 -1037549041 359864556 991268188 -2094325683 1652512573 362342817 -449664141 -1110676265 102932886 1337399407 -1662252838 1552035003 -861703599 -635891745
REM
CELL 1.54180   15.00000   15.00000   15.00000   90.00000   90.00000   90.00000
LATT -1
SFAC C  
C      1  0.5817380000000  0.5006130000000  0.6983610000000 1.0
C      1  0.5246730000000  0.5779280000000  0.6983610000000 1.0
C      1  0.4335090000000  0.5475480000000  0.6983600000000 1.0
C      1  0.4342310000000  0.4514570000000  0.6983600000000 1.0
C      1  0.5258410000000  0.4224500000000  0.6983600000000 1.0
C      1  0.3503920000000  0.7111230000000  0.5182770000000 1.0
C      1  0.2529790000000  0.4229540000000  0.5182750000000 1.0
C      1  0.4969410000000  0.2412600000000  0.5182770000000 1.0
C      1  0.7451300000000  0.4171360000000  0.5182790000000 1.0
C      1  0.6545580000000  0.7075260000000  0.5182800000000 1.0
C      1  0.4418800000000  0.4272900000000  0.3164050000000 1.0
C      1  0.5511930000000  0.4222550000000  0.3164050000000 1.0
C      1  0.5897610000000  0.5246630000000  0.3164060000000 1.0
C      1  0.5042840000000  0.5929880000000  0.3164050000000 1.0
C      1  0.4128880000000  0.5328090000000  0.3164050000000 1.0
C      1  0.6237200000000  0.6088750000000  0.3805070000000 1.0
C      1  0.4346860000000  0.6513080000000  0.3805050000000 1.0
C      1  0.3359160000000  0.4846390000000  0.3805040000000 1.0
C      1  0.4639050000000  0.3391990000000  0.3805040000000 1.0
C      1  0.6417780000000  0.4159810000000  0.3805060000000 1.0
C      1  0.6857680000000  0.3290650000000  0.5154900000000 1.0
C      1  0.7199750000000  0.6238540000000  0.5154910000000 1.0
C      1  0.4501830000000  0.7474810000000  0.5154900000000 1.0
C      1  0.2492370000000  0.5290970000000  0.5154880000000 1.0
C      1  0.3948360000000  0.2705020000000  0.5154880000000 1.0
C      1  0.5460640000000  0.6451930000000  0.6251900000000 1.0
C      1  0.3761470000000  0.5886770000000  0.6251880000000 1.0
C      1  0.3773890000000  0.4096120000000  0.6251870000000 1.0
C      1  0.5480740000000  0.3554590000000  0.6251880000000 1.0
C      1  0.6523210000000  0.5010560000000  0.6251900000000 1.0
C      1  0.4795200000000  0.7215970000000  0.6144840000000 1.0
C      1  0.2829190000000  0.5490000000000  0.6144820000000 1.0
C      1  0.3863150000000  0.3086860000000  0.6144810000000 1.0
C      1  0.6468190000000  0.3327600000000  0.6144840000000 1.0
C      1  0.7044230000000  0.5879540000000  0.6144850000000 1.0
C      1  0.6444380000000  0.6710160000000  0.6137640000000 1.0
C      1  0.3819870000000  0.6902160000000  0.6137620000000 1.0
C      1  0.2826240000000  0.4465430000000  0.6137610000000 1.0
C      1  0.4836660000000  0.2767450000000  0.6137610000000 1.0
C      1  0.7072800000000  0.4154770000000  0.6137640000000 1.0
C      1  0.6274320000000  0.3321480000000  0.4401450000000 1.0
C      1  0.6990160000000  0.5693260000000  0.4401470000000 1.0
C      1  0.4955670000000  0.7106980000000  0.4401460000000 1.0
C      1  0.2982450000000  0.5608930000000  0.4401440000000 1.0
C      1  0.3797420000000  0.3269360000000  0.4401440000000 1.0
C      1  0.4312810000000  0.5604120000000  0.5326210000000 1.0
C      1  0.4213090000000  0.4533130000000  0.5326200000000 1.0
C      1  0.5200850000000  0.4107340000000  0.5326210000000 1.0
C      1  0.5911030000000  0.4915170000000  0.5326220000000 1.0
C      1  0.5362200000000  0.5840230000000  0.5326220000000 1.0
C      1  0.5197680000000  0.3252980000000  0.2828460000000 1.0
C      1  0.6722620000000  0.4648140000000  0.2828470000000 1.0
C      1  0.5866980000000  0.6529570000000  0.2828480000000 1.0
C      1  0.3813230000000  0.6297200000000  0.2828460000000 1.0
C      1  0.3399580000000  0.4272160000000  0.2828450000000 1.0
C      1  0.5784280000000  0.6569500000000  0.4619160000000 1.0
C      1  0.3749670000000  0.6230890000000  0.4619150000000 1.0
C      1  0.3442980000000  0.4191230000000  0.4619140000000 1.0
C      1  0.5288040000000  0.3269270000000  0.4619150000000 1.0
C      1  0.6735040000000  0.4739120000000  0.4619160000000 1.0
END
