TITL C-986974-580-328 -1.2991912622283e-06 3375 -361.16505974026 0 0 60 (C6) n - 1
REM
REM in /home/bkarasulu/work/CARBON/AIRSS/Generating-Clusters/REBO/Higher-Symm/Only-C60
REM
REM
REM
REM
REM
REM ./C.cell (a2850807a9bf4ad07a5b6933b78d9264)
REM AIRSS Version 0.9.1 bugfix July 2018 build 013d7b7c2542+ Fri, 06 Jul 2018 19:26:36 +0100
REM compiler GCC version 9.2.1 20190827 (Red Hat 9.2.1-1)
REM options -cpp -mtune=generic -march=x86-64 -g -O0 -fpre-include=/usr/include/finclude/math-vector-fortran.h
REM seed 1499492542 -1334737221 -1079886540 813276246 1005213921 -953518161 362053149 624391972 -1294738705 1723004221 1140237238 -21212635 1780070087 1597758394 -49216275 -384157692 1406535880 123995227 1251341482 1480071324 -532640858 -1535726847 -1779147580 442723933 -1121945551 1146473487 1368734211 -705547144 1582115302 2141866664 -551319314 -125283269 -1169834262
REM
CELL 1.54180   15.00000   15.00000   15.00000   90.00000   90.00000   90.00000
LATT -1
SFAC C  
C      1  0.5553280000000  0.4106980000000  0.4110260000000 1.0
C      1  0.4503260000000  0.4074340000000  0.4110260000000 1.0
C      1  0.3949990000000  0.4967360000000  0.4110260000000 1.0
C      1  0.4446720000000  0.5893010000000  0.4110260000000 1.0
C      1  0.5496740000000  0.5925660000000  0.4110260000000 1.0
C      1  0.6050010000000  0.5032640000000  0.4110260000000 1.0
C      1  0.5723560000000  0.2823060000000  0.5972150000000 1.0
C      1  0.3476490000000  0.3284900000000  0.5972150000000 1.0
C      1  0.2752930000000  0.5461850000000  0.5972150000000 1.0
C      1  0.4276430000000  0.7176940000000  0.5972150000000 1.0
C      1  0.6523510000000  0.6715100000000  0.5972150000000 1.0
C      1  0.7247070000000  0.4538150000000  0.5972150000000 1.0
C      1  0.3567610000000  0.3559460000000  0.5040440000000 1.0
C      1  0.3036270000000  0.5520210000000  0.5040440000000 1.0
C      1  0.4468650000000  0.6960750000000  0.5040440000000 1.0
C      1  0.6432390000000  0.6440540000000  0.5040440000000 1.0
C      1  0.6963730000000  0.4479790000000  0.5040440000000 1.0
C      1  0.5531350000000  0.3039250000000  0.5040440000000 1.0
C      1  0.5883500000000  0.4311410000000  0.5201910000000 1.0
C      1  0.4845410000000  0.3890570000000  0.5201910000000 1.0
C      1  0.3961910000000  0.4579150000000  0.5201910000000 1.0
C      1  0.4116500000000  0.5688590000000  0.5201910000000 1.0
C      1  0.5154580000000  0.6109430000000  0.5201910000000 1.0
C      1  0.6038090000000  0.5420840000000  0.5201910000000 1.0
C      1  0.4406040000000  0.4237190000000  0.2790510000000 1.0
C      1  0.4042410000000  0.5132980000000  0.2790510000000 1.0
C      1  0.4636370000000  0.5895790000000  0.2790510000000 1.0
C      1  0.5593960000000  0.5762810000000  0.2790510000000 1.0
C      1  0.5957600000000  0.4867020000000  0.2790510000000 1.0
C      1  0.5363640000000  0.4104210000000  0.2790510000000 1.0
C      1  0.5849300000000  0.5479080000000  0.6829800000000 1.0
C      1  0.5839550000000  0.4504020000000  0.6829800000000 1.0
C      1  0.4990240000000  0.4024940000000  0.6829800000000 1.0
C      1  0.4150700000000  0.4520920000000  0.6829800000000 1.0
C      1  0.4160450000000  0.5495980000000  0.6829800000000 1.0
C      1  0.5009750000000  0.5975060000000  0.6829800000000 1.0
C      1  0.3331770000000  0.4062650000000  0.6537260000000 1.0
C      1  0.3354120000000  0.5976050000000  0.6537260000000 1.0
C      1  0.5022340000000  0.6913400000000  0.6537260000000 1.0
C      1  0.6668220000000  0.5937350000000  0.6537260000000 1.0
C      1  0.6645880000000  0.4023950000000  0.6537260000000 1.0
C      1  0.4977660000000  0.3086600000000  0.6537260000000 1.0
C      1  0.2577510000000  0.4602890000000  0.6330420000000 1.0
C      1  0.3444840000000  0.6899380000000  0.6330420000000 1.0
C      1  0.5867330000000  0.7296500000000  0.6330420000000 1.0
C      1  0.7422490000000  0.5397110000000  0.6330420000000 1.0
C      1  0.6555160000000  0.3100620000000  0.6330420000000 1.0
C      1  0.4132660000000  0.2703500000000  0.6330420000000 1.0
C      1  0.3721490000000  0.3290180000000  0.4086310000000 1.0
C      1  0.2880000000000  0.5252320000000  0.4086310000000 1.0
C      1  0.4158510000000  0.6962130000000  0.4086310000000 1.0
C      1  0.6278510000000  0.6709820000000  0.4086310000000 1.0
C      1  0.7120000000000  0.4747690000000  0.4086310000000 1.0
C      1  0.5841490000000  0.3037870000000  0.4086310000000 1.0
C      1  0.6864640000000  0.4742880000000  0.3100930000000 1.0
C      1  0.5709650000000  0.3256610000000  0.3100930000000 1.0
C      1  0.3845000000000  0.3513730000000  0.3100930000000 1.0
C      1  0.3135360000000  0.5257120000000  0.3100930000000 1.0
C      1  0.4290360000000  0.6743390000000  0.3100930000000 1.0
C      1  0.6155000000000  0.6486260000000  0.3100930000000 1.0
END
