TITL C-986979-5873-146 -2.07821897113357e-06 3375 -323.691151926729 0 0 60 (C2) n - 1
REM
REM in /home/bkarasulu/work/CARBON/AIRSS/Generating-Clusters/REBO/Higher-Symm/Only-C60
REM
REM
REM
REM
REM
REM ./C.cell (a2850807a9bf4ad07a5b6933b78d9264)
REM AIRSS Version 0.9.1 bugfix July 2018 build 013d7b7c2542+ Fri, 06 Jul 2018 19:26:36 +0100
REM compiler GCC version 9.2.1 20190827 (Red Hat 9.2.1-1)
REM options -cpp -mtune=generic -march=x86-64 -g -O0 -fpre-include=/usr/include/finclude/math-vector-fortran.h
REM seed 493800847 1246154620 -13886713 -1429127463 -597313601 -546175229 -199249221 283883741 461077768 69046612 1981357583 1667213286 533885890 832531725 -2129210066 470682163 -245820538 -1307906387 162230141 -312440962 -1833790349 665487057 1010544174 1532286392 1419554102 -973583415 -613777764 515174219 -1355001305 -79065523 2002394491 -997154701 -492765070
REM
CELL 1.54180   15.00000   15.00000   15.00000   90.00000   90.00000   90.00000
LATT -1
SFAC C  
C      1  0.3978080000000  0.6546190000000  0.6754610000000 1.0
C      1  0.3885540000000  0.3885860000000  0.7066080000000 1.0
C      1  0.3852880000000  0.2741750000000  0.4589080000000 1.0
C      1  0.3810820000000  0.4685790000000  0.2821490000000 1.0
C      1  0.3833850000000  0.7084810000000  0.4005110000000 1.0
C      1  0.6166120000000  0.3408960000000  0.6674790000000 1.0
C      1  0.6021720000000  0.6190190000000  0.7013260000000 1.0
C      1  0.6114370000000  0.7309470000000  0.4579830000000 1.0
C      1  0.6147260000000  0.5307980000000  0.2725500000000 1.0
C      1  0.6189340000000  0.3025660000000  0.4027280000000 1.0
C      1  0.3737640000000  0.3293840000000  0.6106330000000 1.0
C      1  0.3748460000000  0.3445780000000  0.3706550000000 1.0
C      1  0.3772340000000  0.5770880000000  0.3154430000000 1.0
C      1  0.3754490000000  0.6992690000000  0.5132620000000 1.0
C      1  0.3807050000000  0.5454130000000  0.6946350000000 1.0
C      1  0.6192800000000  0.6710410000000  0.6034120000000 1.0
C      1  0.6262370000000  0.6579980000000  0.3719930000000 1.0
C      1  0.6251700000000  0.4250940000000  0.3121940000000 1.0
C      1  0.6227750000000  0.3006540000000  0.5162140000000 1.0
C      1  0.6245400000000  0.4509660000000  0.6936040000000 1.0
C      1  0.5107040000000  0.6365770000000  0.6069100000000 1.0
C      1  0.5143230000000  0.4236930000000  0.6802050000000 1.0
C      1  0.5135470000000  0.2988400000000  0.4823960000000 1.0
C      1  0.5167930000000  0.4574520000000  0.3245980000000 1.0
C      1  0.5218930000000  0.6484440000000  0.4063340000000 1.0
C      1  0.4781060000000  0.3650020000000  0.6121800000000 1.0
C      1  0.4892820000000  0.5594080000000  0.6629520000000 1.0
C      1  0.4856690000000  0.6949720000000  0.4831900000000 1.0
C      1  0.4864640000000  0.5454960000000  0.3032620000000 1.0
C      1  0.4832200000000  0.3463680000000  0.4052710000000 1.0
C      1  0.6582360000000  0.4100810000000  0.5075290000000 1.0
C      1  0.6736190000000  0.4649810000000  0.4084320000000 1.0
C      1  0.6829430000000  0.5769200000000  0.4292100000000 1.0
C      1  0.6705340000000  0.5891910000000  0.5419860000000 1.0
C      1  0.6646840000000  0.4866510000000  0.5922350000000 1.0
C      1  0.3353100000000  0.5918310000000  0.5158310000000 1.0
C      1  0.3417680000000  0.5349720000000  0.4168120000000 1.0
C      1  0.3263880000000  0.4237510000000  0.4383570000000 1.0
C      1  0.3170580000000  0.4088760000000  0.5512320000000 1.0
C      1  0.3294590000000  0.5123230000000  0.5977930000000 1.0
C      1  0.5495170000000  0.7466820000000  0.5518720000000 1.0
C      1  0.5554520000000  0.5294810000000  0.7416230000000 1.0
C      1  0.5493630000000  0.2823410000000  0.6040070000000 1.0
C      1  0.5529830000000  0.3347000000000  0.3181800000000 1.0
C      1  0.5566120000000  0.6274590000000  0.2846760000000 1.0
C      1  0.4433960000000  0.2558030000000  0.5545820000000 1.0
C      1  0.4504670000000  0.4730030000000  0.7506240000000 1.0
C      1  0.4445300000000  0.7206440000000  0.6027870000000 1.0
C      1  0.4506410000000  0.6662430000000  0.3251960000000 1.0
C      1  0.4470380000000  0.3782410000000  0.2865530000000 1.0
C      1  0.4231430000000  0.4333250000000  0.5453850000000 1.0
C      1  0.4354370000000  0.4379890000000  0.4404790000000 1.0
C      1  0.4538850000000  0.5343070000000  0.4120170000000 1.0
C      1  0.4457380000000  0.5896400000000  0.4964190000000 1.0
C      1  0.4366470000000  0.5302100000000  0.5760630000000 1.0
C      1  0.5633470000000  0.5629880000000  0.5522650000000 1.0
C      1  0.5768570000000  0.5637910000000  0.4506440000000 1.0
C      1  0.5645700000000  0.4625880000000  0.4226210000000 1.0
C      1  0.5461190000000  0.4057220000000  0.5054060000000 1.0
C      1  0.5542580000000  0.4688640000000  0.5841380000000 1.0
END
