TITL C-986973-6940-291 -0.105994273202573 3375 -342.090011609387 0 0 60 (C1) n - 1
REM
REM in /home/bkarasulu/work/CARBON/AIRSS/Generating-Clusters/REBO/Higher-Symm/Only-C60
REM
REM
REM
REM
REM
REM ./C.cell (a2850807a9bf4ad07a5b6933b78d9264)
REM AIRSS Version 0.9.1 bugfix July 2018 build 013d7b7c2542+ Fri, 06 Jul 2018 19:26:36 +0100
REM compiler GCC version 9.2.1 20190827 (Red Hat 9.2.1-1)
REM options -cpp -mtune=generic -march=x86-64 -g -O0 -fpre-include=/usr/include/finclude/math-vector-fortran.h
REM seed 1876996441 971259072 1462392858 -1594016818 -1498380266 -576990347 1079896897 -118251679 1972644040 1014899671 1671972184 1592589154 1099515625 1884374823 1731898098 -206916941 2092355991 -1837979202 2089325690 1377957724 -549775080 1063308400 1428753062 -573696078 -2089044461 467135588 210197779 2001636269 -1686450192 -683289005 349545016 369482718 872957322
REM
CELL 1.54180   15.00000   15.00000   15.00000   90.00000   90.00000   90.00000
LATT -1
SFAC C  
C      1  0.4912110000000  0.2949860000000  0.3283210000000 1.0
C      1  0.4335180000000  0.2667240000000  0.4183990000000 1.0
C      1  0.6765200000000  0.3685510000000  0.6552520000000 1.0
C      1  0.4990710000000  0.5305660000000  0.6187310000000 1.0
C      1  0.3947310000000  0.6662930000000  0.3507460000000 1.0
C      1  0.3216030000000  0.4206470000000  0.3561250000000 1.0
C      1  0.6041660000000  0.6378900000000  0.3364560000000 1.0
C      1  0.6494540000000  0.3499900000000  0.5177730000000 1.0
C      1  0.2476560000000  0.5964660000000  0.5377230000000 1.0
C      1  0.4957520000000  0.6777830000000  0.3358710000000 1.0
C      1  0.3038130000000  0.5135330000000  0.4069900000000 1.0
C      1  0.7065060000000  0.2908560000000  0.5841550000000 1.0
C      1  0.4579530000000  0.5509090000000  0.3343420000000 1.0
C      1  0.4412480000000  0.6656200000000  0.6881000000000 1.0
C      1  0.3748890000000  0.6816400000000  0.6202750000000 1.0
C      1  0.4905600000000  0.6053960000000  0.5379890000000 1.0
C      1  0.6266250000000  0.4641680000000  0.3471520000000 1.0
C      1  0.5418610000000  0.3432670000000  0.5451930000000 1.0
C      1  0.4425250000000  0.5671910000000  0.7088310000000 1.0
C      1  0.4140690000000  0.6819400000000  0.5204900000000 1.0
C      1  0.5259380000000  0.5558310000000  0.4263000000000 1.0
C      1  0.6947830000000  0.5850990000000  0.5353620000000 1.0
C      1  0.5988770000000  0.6885970000000  0.6109740000000 1.0
C      1  0.5522940000000  0.6650790000000  0.4333050000000 1.0
C      1  0.6782860000000  0.6574070000000  0.4753240000000 1.0
C      1  0.2867850000000  0.5984000000000  0.4477870000000 1.0
C      1  0.6603330000000  0.5584240000000  0.3402330000000 1.0
C      1  0.6535340000000  0.5342330000000  0.6792000000000 1.0
C      1  0.4354250000000  0.3163690000000  0.5188510000000 1.0
C      1  0.5639660000000  0.4688990000000  0.4859930000000 1.0
C      1  0.6637470000000  0.6142460000000  0.6245980000000 1.0
C      1  0.4893490000000  0.4405310000000  0.5641650000000 1.0
C      1  0.4014040000000  0.5500710000000  0.5308120000000 1.0
C      1  0.3577010000000  0.4819740000000  0.2803090000000 1.0
C      1  0.5452450000000  0.2873780000000  0.4208590000000 1.0
C      1  0.5834970000000  0.3340090000000  0.6923550000000 1.0
C      1  0.4941880000000  0.3635880000000  0.6947210000000 1.0
C      1  0.4407960000000  0.4552980000000  0.2419780000000 1.0
C      1  0.4968580000000  0.3896080000000  0.3065350000000 1.0
C      1  0.4412270000000  0.3242800000000  0.6303880000000 1.0
C      1  0.4782160000000  0.4567220000000  0.7284450000000 1.0
C      1  0.4716140000000  0.4617280000000  0.3904140000000 1.0
C      1  0.5490140000000  0.4825520000000  0.2664600000000 1.0
C      1  0.5325940000000  0.5935460000000  0.2667120000000 1.0
C      1  0.5655380000000  0.5209200000000  0.7063620000000 1.0
C      1  0.3895460000000  0.4598820000000  0.4632020000000 1.0
C      1  0.5269000000000  0.7028500000000  0.6708450000000 1.0
C      1  0.5993890000000  0.7092950000000  0.5143840000000 1.0
C      1  0.6689950000000  0.4853840000000  0.5265460000000 1.0
C      1  0.5775960000000  0.3841820000000  0.4121180000000 1.0
C      1  0.3337520000000  0.5949230000000  0.5828600000000 1.0
C      1  0.3796560000000  0.4251630000000  0.5706810000000 1.0
C      1  0.3593280000000  0.6660740000000  0.4394680000000 1.0
C      1  0.3654200000000  0.3517720000000  0.4352340000000 1.0
C      1  0.3315680000000  0.4449590000000  0.6440180000000 1.0
C      1  0.3584520000000  0.5829360000000  0.3019510000000 1.0
C      1  0.6785570000000  0.4210820000000  0.4388380000000 1.0
C      1  0.6841310000000  0.4582230000000  0.6269990000000 1.0
C      1  0.3710270000000  0.4836810000000  0.7160560000000 1.0
C      1  0.6007410000000  0.2703890000000  0.6094410000000 1.0
END
