TITL C-986974-580-558 -0.00218655966247113 3375 -332.279037324791 0 0 60 (S4) n - 1
REM
REM in /home/bkarasulu/work/CARBON/AIRSS/Generating-Clusters/REBO/Higher-Symm/Only-C60
REM
REM
REM
REM
REM
REM ./C.cell (a2850807a9bf4ad07a5b6933b78d9264)
REM AIRSS Version 0.9.1 bugfix July 2018 build 013d7b7c2542+ Fri, 06 Jul 2018 19:26:36 +0100
REM compiler GCC version 9.2.1 20190827 (Red Hat 9.2.1-1)
REM options -cpp -mtune=generic -march=x86-64 -g -O0 -fpre-include=/usr/include/finclude/math-vector-fortran.h
REM seed -572030483 1824625205 190665681 -468884685 -1787951074 -1275054480 -737175385 -549091585 84558791 -1131966325 -1679074764 -1573696877 1312802080 -330264112 658226539 1994239922 756908568 -2062895406 387338500 1874498954 -310436426 1247890405 1843123615 -2134054055 -1759121681 607053945 -2115694122 -1536603049 -1099160486 -1972677310 -1781100838 -500111273 -933879217
REM
CELL 1.54180   15.00000   15.00000   15.00000   90.00000   90.00000   90.00000
LATT -1
SFAC C  
C      1  0.6546870000000  0.5227670000000  0.6595090000000 1.0
C      1  0.3452960000000  0.4772160000000  0.6595650000000 1.0
C      1  0.3452820000000  0.5227660000000  0.3404560000000 1.0
C      1  0.6547160000000  0.4772730000000  0.3404530000000 1.0
C      1  0.5227430000000  0.6547440000000  0.6595100000000 1.0
C      1  0.4772430000000  0.3452710000000  0.6596020000000 1.0
C      1  0.5227600000000  0.3452730000000  0.3404450000000 1.0
C      1  0.4772420000000  0.6547370000000  0.3404970000000 1.0
C      1  0.3695430000000  0.5726000000000  0.6847470000000 1.0
C      1  0.6305050000000  0.4273860000000  0.6847380000000 1.0
C      1  0.6304700000000  0.5726300000000  0.3152460000000 1.0
C      1  0.3695190000000  0.4274100000000  0.3152380000000 1.0
C      1  0.5726050000000  0.3695340000000  0.6848110000000 1.0
C      1  0.4273920000000  0.6305010000000  0.6847170000000 1.0
C      1  0.5725980000000  0.6305090000000  0.3152660000000 1.0
C      1  0.4273940000000  0.3695350000000  0.3152460000000 1.0
C      1  0.6268590000000  0.6953690000000  0.5192060000000 1.0
C      1  0.3731540000000  0.3046210000000  0.5192360000000 1.0
C      1  0.3731430000000  0.6953810000000  0.4807810000000 1.0
C      1  0.6268680000000  0.3046150000000  0.4807720000000 1.0
C      1  0.6953980000000  0.6268430000000  0.5192120000000 1.0
C      1  0.3046200000000  0.3731400000000  0.5192210000000 1.0
C      1  0.6953960000000  0.3731430000000  0.4807910000000 1.0
C      1  0.3045980000000  0.6268570000000  0.4807840000000 1.0
C      1  0.5630210000000  0.3170560000000  0.5514520000000 1.0
C      1  0.4370070000000  0.6829100000000  0.5514450000000 1.0
C      1  0.4369750000000  0.3170740000000  0.4485260000000 1.0
C      1  0.5629890000000  0.6828940000000  0.4485460000000 1.0
C      1  0.3170670000000  0.5629810000000  0.5514560000000 1.0
C      1  0.6829120000000  0.4370070000000  0.5514700000000 1.0
C      1  0.3170640000000  0.4370010000000  0.4485220000000 1.0
C      1  0.6829290000000  0.5629640000000  0.4485520000000 1.0
C      1  0.7234370000000  0.5941400000000  0.6018660000000 1.0
C      1  0.2765840000000  0.4058580000000  0.6018550000000 1.0
C      1  0.2765680000000  0.5941450000000  0.3981370000000 1.0
C      1  0.7234100000000  0.4058570000000  0.3981440000000 1.0
C      1  0.5941610000000  0.7234120000000  0.6018470000000 1.0
C      1  0.4058510000000  0.2766060000000  0.6018750000000 1.0
C      1  0.5941620000000  0.2765840000000  0.3981240000000 1.0
C      1  0.4058450000000  0.7234250000000  0.3981490000000 1.0
C      1  0.4113020000000  0.4837480000000  0.4493930000000 1.0
C      1  0.5886870000000  0.5162510000000  0.4493720000000 1.0
C      1  0.5886860000000  0.4837400000000  0.5506410000000 1.0
C      1  0.4113060000000  0.5162480000000  0.5505910000000 1.0
C      1  0.4837620000000  0.4112890000000  0.4493790000000 1.0
C      1  0.5162610000000  0.5886740000000  0.4493890000000 1.0
C      1  0.4837370000000  0.5886810000000  0.5506110000000 1.0
C      1  0.5162530000000  0.4112830000000  0.5506160000000 1.0
C      1  0.7550590000000  0.5612740000000  0.6959060000000 1.0
C      1  0.2449390000000  0.4387600000000  0.6958550000000 1.0
C      1  0.2449410000000  0.5612670000000  0.3041130000000 1.0
C      1  0.7550540000000  0.4387440000000  0.3041130000000 1.0
C      1  0.5612910000000  0.7550690000000  0.6958740000000 1.0
C      1  0.4387060000000  0.2449700000000  0.6959110000000 1.0
C      1  0.5612830000000  0.2449350000000  0.3040850000000 1.0
C      1  0.4387140000000  0.7550710000000  0.3041300000000 1.0
C      1  0.4320690000000  0.5679210000000  0.3837030000000 1.0
C      1  0.5679560000000  0.4320430000000  0.3837130000000 1.0
C      1  0.5679470000000  0.5679250000000  0.6162960000000 1.0
C      1  0.4320330000000  0.4320710000000  0.6162970000000 1.0
END
