TITL C-986974-580-464 -3.56654363535526e-05 3375 -344.314523057672 0 0 60 (C5) n - 1
REM
REM in /home/bkarasulu/work/CARBON/AIRSS/Generating-Clusters/REBO/Higher-Symm/Only-C60
REM
REM
REM
REM
REM
REM ./C.cell (a2850807a9bf4ad07a5b6933b78d9264)
REM AIRSS Version 0.9.1 bugfix July 2018 build 013d7b7c2542+ Fri, 06 Jul 2018 19:26:36 +0100
REM compiler GCC version 9.2.1 20190827 (Red Hat 9.2.1-1)
REM options -cpp -mtune=generic -march=x86-64 -g -O0 -fpre-include=/usr/include/finclude/math-vector-fortran.h
REM seed 1066046020 -793474752 31378536 1158886795 36891032 101414884 1522661948 209206992 -1868833579 1203090670 1860919463 -1764180716 -467315048 -1434629784 2080551128 1048962191 1610788748 -321177460 -1350351388 -1392261035 1284692944 -828252073 -1034248150 -381244427 -994894370 -275281094 -242105932 2105011102 162448582 -1340071221 -1185720683 1130496977 -1666557222
REM
CELL 1.54180   15.00000   15.00000   15.00000   90.00000   90.00000   90.00000
LATT -1
SFAC C  
C      1  0.5437280000000  0.6943070000000  0.3835140000000 1.0
C      1  0.3287160000000  0.6016320000000  0.3835140000000 1.0
C      1  0.3504130000000  0.3685050000000  0.3835140000000 1.0
C      1  0.5788340000000  0.3171000000000  0.3835140000000 1.0
C      1  0.6983100000000  0.5184570000000  0.3835140000000 1.0
C      1  0.5437280000000  0.6943070000000  0.6164860000000 1.0
C      1  0.3287160000000  0.6016320000000  0.6164860000000 1.0
C      1  0.3504130000000  0.3685050000000  0.6164860000000 1.0
C      1  0.5788340000000  0.3171000000000  0.6164860000000 1.0
C      1  0.6983100000000  0.5184570000000  0.6164860000000 1.0
C      1  0.6617750000000  0.5516540000000  0.7168370000000 1.0
C      1  0.5008650000000  0.6698190000000  0.7168370000000 1.0
C      1  0.3387600000000  0.5533000000000  0.7168370000000 1.0
C      1  0.3994820000000  0.3631220000000  0.7168370000000 1.0
C      1  0.5991170000000  0.3621040000000  0.7168370000000 1.0
C      1  0.6617750000000  0.5516540000000  0.2831630000000 1.0
C      1  0.5008650000000  0.6698190000000  0.2831630000000 1.0
C      1  0.3387600000000  0.5533000000000  0.2831630000000 1.0
C      1  0.3994820000000  0.3631220000000  0.2831630000000 1.0
C      1  0.5991170000000  0.3621040000000  0.2831630000000 1.0
C      1  0.4847720000000  0.7437600000000  0.4586620000000 1.0
C      1  0.2634640000000  0.5608440000000  0.4586620000000 1.0
C      1  0.3690410000000  0.2938430000000  0.4586620000000 1.0
C      1  0.6555980000000  0.3117440000000  0.4586620000000 1.0
C      1  0.7271240000000  0.5898090000000  0.4586620000000 1.0
C      1  0.4847720000000  0.7437600000000  0.5413380000000 1.0
C      1  0.2634640000000  0.5608440000000  0.5413380000000 1.0
C      1  0.3690410000000  0.2938430000000  0.5413380000000 1.0
C      1  0.6555980000000  0.3117440000000  0.5413380000000 1.0
C      1  0.7271240000000  0.5898090000000  0.5413380000000 1.0
C      1  0.3260730000000  0.6784470000000  0.4585640000000 1.0
C      1  0.2765410000000  0.3897290000000  0.4585640000000 1.0
C      1  0.5358210000000  0.2534020000000  0.4585640000000 1.0
C      1  0.7455980000000  0.4578650000000  0.4585640000000 1.0
C      1  0.6159670000000  0.7205570000000  0.4585640000000 1.0
C      1  0.3260730000000  0.6784470000000  0.5414360000000 1.0
C      1  0.2765410000000  0.3897290000000  0.5414360000000 1.0
C      1  0.5358210000000  0.2534020000000  0.5414360000000 1.0
C      1  0.7455980000000  0.4578650000000  0.5414360000000 1.0
C      1  0.6159670000000  0.7205570000000  0.5414360000000 1.0
C      1  0.5277500000000  0.4156270000000  0.6184800000000 1.0
C      1  0.5888190000000  0.5003190000000  0.6184800000000 1.0
C      1  0.5271430000000  0.5845700000000  0.6184800000000 1.0
C      1  0.4279570000000  0.5519480000000  0.6184800000000 1.0
C      1  0.4283320000000  0.4475350000000  0.6184800000000 1.0
C      1  0.5277500000000  0.4156270000000  0.3815200000000 1.0
C      1  0.5888190000000  0.5003190000000  0.3815200000000 1.0
C      1  0.5271430000000  0.5845700000000  0.3815200000000 1.0
C      1  0.4279570000000  0.5519480000000  0.3815200000000 1.0
C      1  0.4283320000000  0.4475350000000  0.3815200000000 1.0
C      1  0.4211790000000  0.6208360000000  0.2896710000000 1.0
C      1  0.3607210000000  0.4623770000000  0.2896710000000 1.0
C      1  0.4927420000000  0.3559110000000  0.2896710000000 1.0
C      1  0.6347940000000  0.4485710000000  0.2896710000000 1.0
C      1  0.5905650000000  0.6123040000000  0.2896710000000 1.0
C      1  0.4211790000000  0.6208360000000  0.7103290000000 1.0
C      1  0.3607210000000  0.4623770000000  0.7103290000000 1.0
C      1  0.4927420000000  0.3559110000000  0.7103290000000 1.0
C      1  0.6347940000000  0.4485710000000  0.7103290000000 1.0
C      1  0.5905650000000  0.6123040000000  0.7103290000000 1.0
END
