TITL C-986978-6805-493 -1.20771096716983e-06 3375 -360.803104438487 0 0 60 (C5) n - 1
REM
REM in /home/bkarasulu/work/CARBON/AIRSS/Generating-Clusters/REBO/Higher-Symm/Only-C60
REM
REM
REM
REM
REM
REM ./C.cell (a2850807a9bf4ad07a5b6933b78d9264)
REM AIRSS Version 0.9.1 bugfix July 2018 build 013d7b7c2542+ Fri, 06 Jul 2018 19:26:36 +0100
REM compiler GCC version 9.2.1 20190827 (Red Hat 9.2.1-1)
REM options -cpp -mtune=generic -march=x86-64 -g -O0 -fpre-include=/usr/include/finclude/math-vector-fortran.h
REM seed 600289772 -186974752 -626018522 74710509 231071585 2044953403 -555764806 -13557317 -941101992 -1291485049 644441406 425987699 441818400 -1937367839 -1988967977 -930334964 -1639855450 1089076147 764656944 -2029701625 544907624 1828198841 -396337289 768155213 -1831820776 -1139362612 -730201620 -80308288 1006993581 1055526966 1800022483 -142011017 -1370118684
REM
CELL 1.54180   15.00000   15.00000   15.00000   90.00000   90.00000   90.00000
LATT -1
SFAC C  
C      1  0.5027910000000  0.6006220000000  0.2592940000000 1.0
C      1  0.7297850000000  0.6006310000000  0.4282810000000 1.0
C      1  0.6392150000000  0.6006170000000  0.6963850000000 1.0
C      1  0.3562450000000  0.6005990000000  0.6930960000000 1.0
C      1  0.2719310000000  0.6006020000000  0.4229590000000 1.0
C      1  0.4251640000000  0.2816630000000  0.5409460000000 1.0
C      1  0.4379360000000  0.2816670000000  0.4414620000000 1.0
C      1  0.5364980000000  0.2816740000000  0.4228670000000 1.0
C      1  0.5846400000000  0.2816740000000  0.5108580000000 1.0
C      1  0.5158320000000  0.2816670000000  0.5838350000000 1.0
C      1  0.5370430000000  0.5708970000000  0.6182740000000 1.0
C      1  0.3989610000000  0.5708900000000  0.5717850000000 1.0
C      1  0.4005050000000  0.5708940000000  0.4260940000000 1.0
C      1  0.5395410000000  0.5709040000000  0.3825420000000 1.0
C      1  0.6239270000000  0.5709060000000  0.5013160000000 1.0
C      1  0.4118780000000  0.3876850000000  0.3110940000000 1.0
C      1  0.6524310000000  0.3876990000000  0.3578060000000 1.0
C      1  0.6823400000000  0.3876940000000  0.6010210000000 1.0
C      1  0.4602720000000  0.3876760000000  0.7046230000000 1.0
C      1  0.2931170000000  0.3876710000000  0.5254390000000 1.0
C      1  0.7380870000000  0.4651360000000  0.5983620000000 1.0
C      1  0.4800260000000  0.4651150000000  0.7568270000000 1.0
C      1  0.2495720000000  0.4651060000000  0.5603640000000 1.0
C      1  0.3652040000000  0.4651220000000  0.2804790000000 1.0
C      1  0.6671230000000  0.4651410000000  0.3039630000000 1.0
C      1  0.4248770000000  0.5548580000000  0.7376120000000 1.0
C      1  0.2508030000000  0.5548540000000  0.5019850000000 1.0
C      1  0.4211050000000  0.5548720000000  0.2636170000000 1.0
C      1  0.7004330000000  0.5548880000000  0.3519250000000 1.0
C      1  0.7027640000000  0.5548780000000  0.6448700000000 1.0
C      1  0.6012730000000  0.5565250000000  0.2945210000000 1.0
C      1  0.7267170000000  0.5565250000000  0.5328250000000 1.0
C      1  0.5388390000000  0.5565070000000  0.7257690000000 1.0
C      1  0.2972830000000  0.5564950000000  0.6067100000000 1.0
C      1  0.3358690000000  0.5565060000000  0.3401840000000 1.0
C      1  0.5026650000000  0.6824140000000  0.3066480000000 1.0
C      1  0.6847090000000  0.6824210000000  0.4428000000000 1.0
C      1  0.6114750000000  0.6824100000000  0.6580090000000 1.0
C      1  0.3841700000000  0.6823950000000  0.6548620000000 1.0
C      1  0.3169210000000  0.6823980000000  0.4377090000000 1.0
C      1  0.4447410000000  0.4788060000000  0.5699850000000 1.0
C      1  0.4163650000000  0.4788070000000  0.4690700000000 1.0
C      1  0.5035720000000  0.4788140000000  0.4108990000000 1.0
C      1  0.5858440000000  0.4788180000000  0.4758610000000 1.0
C      1  0.5494850000000  0.4788120000000  0.5741820000000 1.0
C      1  0.4405400000000  0.6710210000000  0.5646840000000 1.0
C      1  0.4201050000000  0.6710230000000  0.4634530000000 1.0
C      1  0.5100670000000  0.6710300000000  0.4127360000000 1.0
C      1  0.5861010000000  0.6710330000000  0.4826220000000 1.0
C      1  0.5431310000000  0.6710270000000  0.5765310000000 1.0
C      1  0.6567060000000  0.4093030000000  0.4505950000000 1.0
C      1  0.5954140000000  0.4092940000000  0.6337620000000 1.0
C      1  0.4022710000000  0.4092810000000  0.6320710000000 1.0
C      1  0.3441950000000  0.4092830000000  0.4478590000000 1.0
C      1  0.5014440000000  0.4092970000000  0.3357000000000 1.0
C      1  0.3580190000000  0.3410790000000  0.5821210000000 1.0
C      1  0.3780270000000  0.3410860000000  0.3903320000000 1.0
C      1  0.5666110000000  0.3410990000000  0.3500940000000 1.0
C      1  0.6631560000000  0.3411000000000  0.5170140000000 1.0
C      1  0.5342390000000  0.3410880000000  0.6604150000000 1.0
END
