TITL C-986973-6940-81 -2.07586191374763e-05 3375 -337.574903430011 0 0 60 (C1) n - 1
REM
REM in /home/bkarasulu/work/CARBON/AIRSS/Generating-Clusters/REBO/Higher-Symm/Only-C60
REM
REM
REM
REM
REM
REM ./C.cell (a2850807a9bf4ad07a5b6933b78d9264)
REM AIRSS Version 0.9.1 bugfix July 2018 build 013d7b7c2542+ Fri, 06 Jul 2018 19:26:36 +0100
REM compiler GCC version 9.2.1 20190827 (Red Hat 9.2.1-1)
REM options -cpp -mtune=generic -march=x86-64 -g -O0 -fpre-include=/usr/include/finclude/math-vector-fortran.h
REM seed -798759994 -1439560684 90777800 -1173355119 1013217304 -8435636 -1704564380 -1557780251 -26032518 -1066368827 -819461655 637154801 -394368166 -1991701506 -1840234707 1580279261 -1024749676 -1470222049 614602531 -1168039527 -1528323591 908762739 157023050 -587516015 673501789 -1769567342 1491679223 525864738 1518406516 -481055359 565500129 343597140 1267309156
REM
CELL 1.54180   15.00000   15.00000   15.00000   90.00000   90.00000   90.00000
LATT -1
SFAC C  
C      1  0.4734960000000  0.5887090000000  0.2205350000000 1.0
C      1  0.3477560000000  0.4463940000000  0.6668340000000 1.0
C      1  0.5236860000000  0.2601690000000  0.3741700000000 1.0
C      1  0.4850950000000  0.5523230000000  0.6851670000000 1.0
C      1  0.5065290000000  0.4143590000000  0.5787560000000 1.0
C      1  0.4219150000000  0.6440530000000  0.2517990000000 1.0
C      1  0.4618480000000  0.4755930000000  0.4318030000000 1.0
C      1  0.5088380000000  0.5177620000000  0.5848650000000 1.0
C      1  0.6122100000000  0.5567030000000  0.6907850000000 1.0
C      1  0.3789660000000  0.3312220000000  0.4627140000000 1.0
C      1  0.4904820000000  0.6492530000000  0.5495480000000 1.0
C      1  0.6744240000000  0.3162650000000  0.5559600000000 1.0
C      1  0.6573720000000  0.4243070000000  0.6777950000000 1.0
C      1  0.3765750000000  0.5464040000000  0.7022190000000 1.0
C      1  0.4489920000000  0.5638560000000  0.5003730000000 1.0
C      1  0.6411020000000  0.3885590000000  0.4028940000000 1.0
C      1  0.4426390000000  0.4306010000000  0.2797850000000 1.0
C      1  0.5126200000000  0.5002760000000  0.2482720000000 1.0
C      1  0.4989520000000  0.2771070000000  0.4824840000000 1.0
C      1  0.7121500000000  0.6091980000000  0.5204040000000 1.0
C      1  0.2796060000000  0.7046180000000  0.3113200000000 1.0
C      1  0.6908070000000  0.5957450000000  0.6303100000000 1.0
C      1  0.6353420000000  0.4831680000000  0.4585170000000 1.0
C      1  0.5869960000000  0.5619800000000  0.5254490000000 1.0
C      1  0.5285710000000  0.4937740000000  0.3596380000000 1.0
C      1  0.3235170000000  0.3616400000000  0.6126500000000 1.0
C      1  0.7083750000000  0.5073520000000  0.5326000000000 1.0
C      1  0.5976900000000  0.5613150000000  0.3927870000000 1.0
C      1  0.5620890000000  0.6983400000000  0.7177920000000 1.0
C      1  0.3846950000000  0.3506950000000  0.3632340000000 1.0
C      1  0.3065210000000  0.4794020000000  0.5065540000000 1.0
C      1  0.3545440000000  0.5127520000000  0.4228770000000 1.0
C      1  0.4852140000000  0.3330520000000  0.3161460000000 1.0
C      1  0.4701620000000  0.3382360000000  0.6560810000000 1.0
C      1  0.3654000000000  0.6755690000000  0.3304620000000 1.0
C      1  0.3602200000000  0.4491850000000  0.3398670000000 1.0
C      1  0.6596810000000  0.6401810000000  0.4464880000000 1.0
C      1  0.7047040000000  0.4828600000000  0.6299690000000 1.0
C      1  0.5614440000000  0.3991940000000  0.6779360000000 1.0
C      1  0.4226750000000  0.7242420000000  0.4109290000000 1.0
C      1  0.6325520000000  0.6849630000000  0.6621960000000 1.0
C      1  0.4797540000000  0.6570740000000  0.6969180000000 1.0
C      1  0.4572030000000  0.4431390000000  0.6985220000000 1.0
C      1  0.3963540000000  0.6882330000000  0.6605370000000 1.0
C      1  0.3101850000000  0.3852220000000  0.5199460000000 1.0
C      1  0.3127700000000  0.5239110000000  0.5900990000000 1.0
C      1  0.6030170000000  0.4366300000000  0.2236490000000 1.0
C      1  0.4814250000000  0.7779690000000  0.4515540000000 1.0
C      1  0.5315280000000  0.7483270000000  0.5218160000000 1.0
C      1  0.7034080000000  0.3832200000000  0.4982840000000 1.0
C      1  0.6013730000000  0.6687520000000  0.5643440000000 1.0
C      1  0.4075370000000  0.2514060000000  0.5335480000000 1.0
C      1  0.6128740000000  0.2844820000000  0.4158060000000 1.0
C      1  0.5456620000000  0.6390770000000  0.4486220000000 1.0
C      1  0.3864830000000  0.6173170000000  0.4235340000000 1.0
C      1  0.5714850000000  0.4039790000000  0.3186330000000 1.0
C      1  0.3900400000000  0.2923350000000  0.6206780000000 1.0
C      1  0.3312050000000  0.6168790000000  0.6402930000000 1.0
C      1  0.6067460000000  0.2631600000000  0.5155280000000 1.0
C      1  0.4745000000000  0.3875130000000  0.4867230000000 1.0
END
