TITL C-986973-6940-698 -3.45980753837813e-05 3375 -377.383432943278 0 0 60 (C1) n - 1
REM
REM in /home/bkarasulu/work/CARBON/AIRSS/Generating-Clusters/REBO/Higher-Symm/Only-C60
REM
REM
REM
REM
REM
REM ./C.cell (a2850807a9bf4ad07a5b6933b78d9264)
REM AIRSS Version 0.9.1 bugfix July 2018 build 013d7b7c2542+ Fri, 06 Jul 2018 19:26:36 +0100
REM compiler GCC version 9.2.1 20190827 (Red Hat 9.2.1-1)
REM options -cpp -mtune=generic -march=x86-64 -g -O0 -fpre-include=/usr/include/finclude/math-vector-fortran.h
REM seed -383043981 -1361935001 -1220610045 1561953052 -358743324 828990304 -1091170608 1038846463 -107358371 1770285963 117025159 -333100541 178202277 92228328 -523558096 486287550 -1897235454 1206072554 49838591 -1878503134 -1243524284 -2138085365 -2137819311 -114818029 992027289 535572546 -19628758 -918054046 533889998 -1107061560 1512082249 -1262064761 1140237629
REM
CELL 1.54180   15.00000   15.00000   15.00000   90.00000   90.00000   90.00000
LATT -1
SFAC C  
C      1  0.3500520000000  0.3855350000000  0.3484810000000 1.0
C      1  0.5935090000000  0.4014050000000  0.3182300000000 1.0
C      1  0.7106600000000  0.3880440000000  0.5326750000000 1.0
C      1  0.5306640000000  0.4031250000000  0.7005760000000 1.0
C      1  0.3141880000000  0.3944260000000  0.5886100000000 1.0
C      1  0.3560350000000  0.5965420000000  0.3567240000000 1.0
C      1  0.5952360000000  0.6112710000000  0.3107360000000 1.0
C      1  0.7017960000000  0.5981760000000  0.5317800000000 1.0
C      1  0.5368250000000  0.6142270000000  0.7106940000000 1.0
C      1  0.3182800000000  0.6052360000000  0.5986720000000 1.0
C      1  0.5693190000000  0.6979230000000  0.3400940000000 1.0
C      1  0.6699540000000  0.6862100000000  0.5177650000000 1.0
C      1  0.5416040000000  0.6996720000000  0.6696240000000 1.0
C      1  0.3563400000000  0.6915340000000  0.5902950000000 1.0
C      1  0.3751080000000  0.6833500000000  0.3895370000000 1.0
C      1  0.5716810000000  0.3126280000000  0.3430000000000 1.0
C      1  0.6739450000000  0.3018350000000  0.5162620000000 1.0
C      1  0.5326080000000  0.3167860000000  0.6618060000000 1.0
C      1  0.3520870000000  0.3085550000000  0.5788660000000 1.0
C      1  0.3709280000000  0.2986770000000  0.3810100000000 1.0
C      1  0.7307880000000  0.4420730000000  0.4580660000000 1.0
C      1  0.6086260000000  0.4565490000000  0.6938830000000 1.0
C      1  0.3364570000000  0.4469020000000  0.6632710000000 1.0
C      1  0.2878900000000  0.4389170000000  0.3950660000000 1.0
C      1  0.5259970000000  0.4551580000000  0.2786850000000 1.0
C      1  0.7177130000000  0.5437610000000  0.4557360000000 1.0
C      1  0.6123060000000  0.5581440000000  0.7072100000000 1.0
C      1  0.3487620000000  0.5484430000000  0.6677020000000 1.0
C      1  0.2964910000000  0.5410590000000  0.4053690000000 1.0
C      1  0.5312710000000  0.5571880000000  0.2675720000000 1.0
C      1  0.5181930000000  0.2764300000000  0.5777320000000 1.0
C      1  0.4289980000000  0.2730670000000  0.5375630000000 1.0
C      1  0.4391020000000  0.2695820000000  0.4402570000000 1.0
C      1  0.5351900000000  0.2725330000000  0.4204090000000 1.0
C      1  0.5843700000000  0.2726870000000  0.5054580000000 1.0
C      1  0.5216910000000  0.7291000000000  0.5818450000000 1.0
C      1  0.4312800000000  0.7261130000000  0.5443030000000 1.0
C      1  0.4389430000000  0.7233380000000  0.4465680000000 1.0
C      1  0.5342010000000  0.7269370000000  0.4232870000000 1.0
C      1  0.5851360000000  0.7263750000000  0.5071930000000 1.0
C      1  0.6451110000000  0.4521900000000  0.3926050000000 1.0
C      1  0.6533300000000  0.4396330000000  0.5983940000000 1.0
C      1  0.4437100000000  0.4561610000000  0.6781700000000 1.0
C      1  0.3134840000000  0.4491280000000  0.4997070000000 1.0
C      1  0.4350450000000  0.4384390000000  0.3309010000000 1.0
C      1  0.6387330000000  0.5596090000000  0.3864330000000 1.0
C      1  0.6500700000000  0.5474340000000  0.6063550000000 1.0
C      1  0.4531140000000  0.5636270000000  0.6815460000000 1.0
C      1  0.3138190000000  0.5560970000000  0.5089310000000 1.0
C      1  0.4418410000000  0.5456960000000  0.3272810000000 1.0
C      1  0.4756340000000  0.4216710000000  0.5806340000000 1.0
C      1  0.4162820000000  0.4186430000000  0.5063870000000 1.0
C      1  0.4694420000000  0.4151540000000  0.4272470000000 1.0
C      1  0.5609960000000  0.4184210000000  0.4516580000000 1.0
C      1  0.5640950000000  0.4184300000000  0.5469610000000 1.0
C      1  0.4783760000000  0.5879610000000  0.5809440000000 1.0
C      1  0.4171690000000  0.5858600000000  0.5079100000000 1.0
C      1  0.4681240000000  0.5807770000000  0.4270580000000 1.0
C      1  0.5603100000000  0.5826950000000  0.4519180000000 1.0
C      1  0.5670880000000  0.5828610000000  0.5463490000000 1.0
END
