TITL C-986975-4297-1057 -0.0155955809548137 3375 -375.905253543733 0 0 60 (C1) n - 1
REM
REM in /home/bkarasulu/work/CARBON/AIRSS/Generating-Clusters/REBO/Higher-Symm/Only-C60
REM
REM
REM
REM
REM
REM ./C.cell (a2850807a9bf4ad07a5b6933b78d9264)
REM AIRSS Version 0.9.1 bugfix July 2018 build 013d7b7c2542+ Fri, 06 Jul 2018 19:26:36 +0100
REM compiler GCC version 9.2.1 20190827 (Red Hat 9.2.1-1)
REM options -cpp -mtune=generic -march=x86-64 -g -O0 -fpre-include=/usr/include/finclude/math-vector-fortran.h
REM seed 1395343210 -1634371945 -247490469 1553347828 480326565 1287321232 717950665 -1667799193 -2134877500 1550080879 554595762 207343156 -914532477 -1641449062 1847478593 1934277390 -224282354 -1917772949 -1626762525 -1565024855 -254686431 1691925661 -1051069666 -1732650113 2067499054 -895783250 -611400786 1605505947 740383650 1998045742 -7438592 1917195541 876088943
REM
CELL 1.54180   15.00000   15.00000   15.00000   90.00000   90.00000   90.00000
LATT -1
SFAC C  
C      1  0.3241620000000  0.6565800000000  0.4447960000000 1.0
C      1  0.3655770000000  0.6478220000000  0.6303540000000 1.0
C      1  0.5476380000000  0.6380460000000  0.6932510000000 1.0
C      1  0.6868390000000  0.6531690000000  0.5522740000000 1.0
C      1  0.6320730000000  0.6530500000000  0.3625520000000 1.0
C      1  0.4526350000000  0.6400370000000  0.2985340000000 1.0
C      1  0.6758050000000  0.6565760000000  0.4449270000000 1.0
C      1  0.6345860000000  0.6479520000000  0.6305610000000 1.0
C      1  0.4524340000000  0.6379830000000  0.6931880000000 1.0
C      1  0.3132690000000  0.6530860000000  0.5522270000000 1.0
C      1  0.3677410000000  0.6531440000000  0.3624200000000 1.0
C      1  0.5472460000000  0.6400400000000  0.2985820000000 1.0
C      1  0.2420420000000  0.5092610000000  0.4071800000000 1.0
C      1  0.2761390000000  0.5069680000000  0.6864930000000 1.0
C      1  0.5474600000000  0.4836850000000  0.7808620000000 1.0
C      1  0.7775010000000  0.5099430000000  0.6079600000000 1.0
C      1  0.7176760000000  0.5066030000000  0.3212570000000 1.0
C      1  0.4523640000000  0.4835430000000  0.2146860000000 1.0
C      1  0.7580260000000  0.5092150000000  0.4071740000000 1.0
C      1  0.7238520000000  0.5069610000000  0.6865250000000 1.0
C      1  0.4525700000000  0.4837060000000  0.7808090000000 1.0
C      1  0.2223610000000  0.5099470000000  0.6080030000000 1.0
C      1  0.2823020000000  0.5066670000000  0.3211510000000 1.0
C      1  0.5475990000000  0.4835170000000  0.2147260000000 1.0
C      1  0.6948620000000  0.3602270000000  0.5523220000000 1.0
C      1  0.6429040000000  0.3525760000000  0.3609030000000 1.0
C      1  0.4532620000000  0.3406310000000  0.3152520000000 1.0
C      1  0.3169690000000  0.3571520000000  0.4455000000000 1.0
C      1  0.3545360000000  0.3564490000000  0.6333340000000 1.0
C      1  0.5468720000000  0.3440210000000  0.6759140000000 1.0
C      1  0.3052420000000  0.3602730000000  0.5521830000000 1.0
C      1  0.3568770000000  0.3524670000000  0.3606650000000 1.0
C      1  0.5465860000000  0.3406710000000  0.3153510000000 1.0
C      1  0.6830180000000  0.3571300000000  0.4456300000000 1.0
C      1  0.6457210000000  0.3563000000000  0.6335890000000 1.0
C      1  0.4533150000000  0.3441010000000  0.6757990000000 1.0
C      1  0.7551140000000  0.5906970000000  0.4572190000000 1.0
C      1  0.5886330000000  0.5684800000000  0.2304810000000 1.0
C      1  0.3329590000000  0.5827990000000  0.2939550000000 1.0
C      1  0.2261600000000  0.5907880000000  0.5572820000000 1.0
C      1  0.4122670000000  0.5690260000000  0.7649880000000 1.0
C      1  0.6676680000000  0.5823490000000  0.7041000000000 1.0
C      1  0.2448540000000  0.5907010000000  0.4571890000000 1.0
C      1  0.4113600000000  0.5684720000000  0.2303990000000 1.0
C      1  0.6669010000000  0.5827760000000  0.2941080000000 1.0
C      1  0.7737980000000  0.5908000000000  0.5572400000000 1.0
C      1  0.5877830000000  0.5690220000000  0.7650760000000 1.0
C      1  0.3324820000000  0.5823150000000  0.7039670000000 1.0
C      1  0.6857860000000  0.4214630000000  0.2916300000000 1.0
C      1  0.4068060000000  0.4077880000000  0.2508030000000 1.0
C      1  0.2415910000000  0.4279770000000  0.4574280000000 1.0
C      1  0.3134950000000  0.4216440000000  0.7079350000000 1.0
C      1  0.5925210000000  0.4082060000000  0.7435800000000 1.0
C      1  0.7776030000000  0.4291020000000  0.5571380000000 1.0
C      1  0.3140850000000  0.4214280000000  0.2914350000000 1.0
C      1  0.5931060000000  0.4077560000000  0.2509290000000 1.0
C      1  0.7584330000000  0.4279560000000  0.4574370000000 1.0
C      1  0.6866510000000  0.4216720000000  0.7081190000000 1.0
C      1  0.4075610000000  0.4082100000000  0.7434700000000 1.0
C      1  0.2223270000000  0.4290700000000  0.5571590000000 1.0
END
