TITL C-986975-4297-759 1.44827340261027e-06 3375 -354.101199868539 0 0 60 (C2) n - 1
REM
REM in /home/bkarasulu/work/CARBON/AIRSS/Generating-Clusters/REBO/Higher-Symm/Only-C60
REM
REM
REM
REM
REM
REM ./C.cell (a2850807a9bf4ad07a5b6933b78d9264)
REM AIRSS Version 0.9.1 bugfix July 2018 build 013d7b7c2542+ Fri, 06 Jul 2018 19:26:36 +0100
REM compiler GCC version 9.2.1 20190827 (Red Hat 9.2.1-1)
REM options -cpp -mtune=generic -march=x86-64 -g -O0 -fpre-include=/usr/include/finclude/math-vector-fortran.h
REM seed 775009635 -1129398189 -888518047 60566946 361015542 1403397394 467734895 1086883859 -1414434286 1243230205 515339915 -790606100 1126246918 1653891053 1808407425 670354014 269821151 297375861 -1884979712 -55182925 -1201563059 1394252858 2057514943 -1151994896 -1466530777 -1180002015 2007986320 -93136466 -1638378449 1218232094 -320732011 544976070 1521022960
REM
CELL 1.54180   15.00000   15.00000   15.00000   90.00000   90.00000   90.00000
LATT -1
SFAC C  
C      1  0.6720480000000  0.5365060000000  0.3847390000000 1.0
C      1  0.6260730000000  0.5337550000000  0.6830960000000 1.0
C      1  0.3279500000000  0.5365450000000  0.6152460000000 1.0
C      1  0.3739260000000  0.5336730000000  0.3168900000000 1.0
C      1  0.3307820000000  0.4443840000000  0.3691240000000 1.0
C      1  0.3759930000000  0.4460960000000  0.6607650000000 1.0
C      1  0.6692210000000  0.4444470000000  0.6308990000000 1.0
C      1  0.6240090000000  0.4460360000000  0.3392580000000 1.0
C      1  0.3854000000000  0.3553770000000  0.3527300000000 1.0
C      1  0.6537740000000  0.3567390000000  0.3867030000000 1.0
C      1  0.6146070000000  0.3554440000000  0.6473300000000 1.0
C      1  0.3462340000000  0.3567780000000  0.6133560000000 1.0
C      1  0.6184140000000  0.6287130000000  0.3443490000000 1.0
C      1  0.3442030000000  0.6339600000000  0.3608740000000 1.0
C      1  0.3815790000000  0.6287720000000  0.6555980000000 1.0
C      1  0.6557900000000  0.6340260000000  0.6390710000000 1.0
C      1  0.4754110000000  0.3608650000000  0.3126290000000 1.0
C      1  0.6832920000000  0.3612020000000  0.4807540000000 1.0
C      1  0.5245960000000  0.3609440000000  0.6874280000000 1.0
C      1  0.3167150000000  0.3612000000000  0.5193040000000 1.0
C      1  0.5170000000000  0.6195460000000  0.3115820000000 1.0
C      1  0.2977440000000  0.6207630000000  0.4626130000000 1.0
C      1  0.4829940000000  0.6196230000000  0.6883690000000 1.0
C      1  0.7022490000000  0.6207890000000  0.5373370000000 1.0
C      1  0.5730240000000  0.7105060000000  0.4564040000000 1.0
C      1  0.5346610000000  0.7167800000000  0.5599080000000 1.0
C      1  0.4269660000000  0.7105200000000  0.5435090000000 1.0
C      1  0.4653280000000  0.7167540000000  0.4400030000000 1.0
C      1  0.4392180000000  0.3364800000000  0.4729810000000 1.0
C      1  0.4672500000000  0.3187020000000  0.5753150000000 1.0
C      1  0.5607900000000  0.3364940000000  0.5270870000000 1.0
C      1  0.5327590000000  0.3186730000000  0.4247590000000 1.0
C      1  0.4284740000000  0.3033660000000  0.6702860000000 1.0
C      1  0.3480210000000  0.2976560000000  0.4368430000000 1.0
C      1  0.5715370000000  0.3033020000000  0.3297940000000 1.0
C      1  0.6519900000000  0.2976900000000  0.5632400000000 1.0
C      1  0.5602900000000  0.6765730000000  0.6531320000000 1.0
C      1  0.6615880000000  0.6538790000000  0.4461430000000 1.0
C      1  0.4397010000000  0.6765070000000  0.3467940000000 1.0
C      1  0.3384040000000  0.6538930000000  0.5537930000000 1.0
C      1  0.7080750000000  0.4469360000000  0.5244380000000 1.0
C      1  0.4789950000000  0.4482640000000  0.7030500000000 1.0
C      1  0.2919270000000  0.4469150000000  0.4755840000000 1.0
C      1  0.5210080000000  0.4481810000000  0.2969710000000 1.0
C      1  0.2884060000000  0.5319500000000  0.5180710000000 1.0
C      1  0.5222450000000  0.5315080000000  0.7080430000000 1.0
C      1  0.7115920000000  0.5319540000000  0.4819170000000 1.0
C      1  0.4777540000000  0.5314210000000  0.2919440000000 1.0
C      1  0.4293570000000  0.6074880000000  0.4592350000000 1.0
C      1  0.5332490000000  0.6026180000000  0.4424520000000 1.0
C      1  0.5706370000000  0.6075090000000  0.5407200000000 1.0
C      1  0.4667450000000  0.6026400000000  0.5575060000000 1.0
C      1  0.5275260000000  0.4304920000000  0.4393840000000 1.0
C      1  0.4243720000000  0.4435570000000  0.4635930000000 1.0
C      1  0.4724780000000  0.4305150000000  0.5606450000000 1.0
C      1  0.5756310000000  0.4435760000000  0.5364310000000 1.0
C      1  0.5635590000000  0.5213130000000  0.3993440000000 1.0
C      1  0.6140250000000  0.5276720000000  0.5725660000000 1.0
C      1  0.3859740000000  0.5276360000000  0.4274230000000 1.0
C      1  0.4364400000000  0.5213510000000  0.6006470000000 1.0
END
