TITL C-986975-4297-818 2.55763824244362e-05 3375 -340.683228290478 0 0 60 (C5) n - 1
REM
REM in /home/bkarasulu/work/CARBON/AIRSS/Generating-Clusters/REBO/Higher-Symm/Only-C60
REM
REM
REM
REM
REM
REM ./C.cell (a2850807a9bf4ad07a5b6933b78d9264)
REM AIRSS Version 0.9.1 bugfix July 2018 build 013d7b7c2542+ Fri, 06 Jul 2018 19:26:36 +0100
REM compiler GCC version 9.2.1 20190827 (Red Hat 9.2.1-1)
REM options -cpp -mtune=generic -march=x86-64 -g -O0 -fpre-include=/usr/include/finclude/math-vector-fortran.h
REM seed 1698893614 -1768971270 -1622557414 1250792314 -868146512 698373124 224897989 987125120 -1430538997 -774838667 1767566043 1169784867 -1146504226 488314663 978225510 1813442568 -1629091806 374529813 592667505 -134292254 -898202128 -2146998439 -1182467249 -456693001 -71801314 1509959092 -412650333 1922059589 1520364997 1739062422 -571886382 -1668679193 -544390336
REM
CELL 1.54180   15.00000   15.00000   15.00000   90.00000   90.00000   90.00000
LATT -1
SFAC C  
C      1  0.4392410000000  0.4573090000000  0.6776290000000 1.0
C      1  0.4392410000000  0.3178730000000  0.5142860000000 1.0
C      1  0.4392480000000  0.4301330000000  0.3312000000000 1.0
C      1  0.4392530000000  0.6389480000000  0.3813880000000 1.0
C      1  0.4392480000000  0.6557440000000  0.5954920000000 1.0
C      1  0.5445630000000  0.4743710000000  0.6764660000000 1.0
C      1  0.5445620000000  0.3242510000000  0.5301570000000 1.0
C      1  0.5445690000000  0.4170090000000  0.3421730000000 1.0
C      1  0.5445740000000  0.6244570000000  0.3723010000000 1.0
C      1  0.5445700000000  0.6599080000000  0.5789060000000 1.0
C      1  0.6974150000000  0.5794700000000  0.5535280000000 1.0
C      1  0.6974120000000  0.4736490000000  0.5921290000000 1.0
C      1  0.6974120000000  0.4042380000000  0.5034160000000 1.0
C      1  0.6974150000000  0.4671600000000  0.4099880000000 1.0
C      1  0.6974180000000  0.5754590000000  0.4409590000000 1.0
C      1  0.3028620000000  0.5801040000000  0.5533810000000 1.0
C      1  0.3028580000000  0.4739850000000  0.5926720000000 1.0
C      1  0.3028580000000  0.4038240000000  0.5038880000000 1.0
C      1  0.3028620000000  0.4665820000000  0.4097260000000 1.0
C      1  0.3028640000000  0.5755290000000  0.4403140000000 1.0
C      1  0.4488800000000  0.5562690000000  0.7193480000000 1.0
C      1  0.4488760000000  0.3087750000000  0.6212950000000 1.0
C      1  0.4488820000000  0.3255500000000  0.3556150000000 1.0
C      1  0.4488910000000  0.5834100000000  0.2894690000000 1.0
C      1  0.4488890000000  0.7260020000000  0.5142680000000 1.0
C      1  0.5617840000000  0.5671590000000  0.7247250000000 1.0
C      1  0.5617790000000  0.3070280000000  0.6333180000000 1.0
C      1  0.5617860000000  0.3135750000000  0.3576720000000 1.0
C      1  0.5617940000000  0.5777530000000  0.2787200000000 1.0
C      1  0.5617930000000  0.7344770000000  0.5055710000000 1.0
C      1  0.6539820000000  0.5458530000000  0.3402820000000 1.0
C      1  0.6539810000000  0.6660710000000  0.4942590000000 1.0
C      1  0.6539750000000  0.5567790000000  0.6561740000000 1.0
C      1  0.6539710000000  0.3690150000000  0.6022660000000 1.0
C      1  0.6539750000000  0.3622630000000  0.4070340000000 1.0
C      1  0.3543170000000  0.5438420000000  0.3441310000000 1.0
C      1  0.3543160000000  0.6617880000000  0.4935250000000 1.0
C      1  0.3543100000000  0.5561530000000  0.6518630000000 1.0
C      1  0.3543060000000  0.3729220000000  0.6003280000000 1.0
C      1  0.3543100000000  0.3653130000000  0.4101390000000 1.0
C      1  0.3996620000000  0.2649120000000  0.4335370000000 1.0
C      1  0.3996710000000  0.4905630000000  0.2558760000000 1.0
C      1  0.3996740000000  0.7292590000000  0.4155830000000 1.0
C      1  0.3996660000000  0.6511300000000  0.6919480000000 1.0
C      1  0.3996580000000  0.3641470000000  0.7030450000000 1.0
C      1  0.5963190000000  0.2800470000000  0.4558470000000 1.0
C      1  0.5963280000000  0.4740230000000  0.2771710000000 1.0
C      1  0.5963310000000  0.7038960000000  0.4064400000000 1.0
C      1  0.5963240000000  0.6519880000000  0.6650090000000 1.0
C      1  0.5963170000000  0.3900350000000  0.6955430000000 1.0
C      1  0.4344580000000  0.5651450000000  0.5458470000000 1.0
C      1  0.4344550000000  0.4765280000000  0.5761220000000 1.0
C      1  0.4344550000000  0.4203500000000  0.5011980000000 1.0
C      1  0.4344580000000  0.4742480000000  0.4246170000000 1.0
C      1  0.4344600000000  0.5637360000000  0.4522120000000 1.0
C      1  0.5665050000000  0.5727750000000  0.5316470000000 1.0
C      1  0.5665020000000  0.4923910000000  0.5789950000000 1.0
C      1  0.5665010000000  0.4225200000000  0.5171760000000 1.0
C      1  0.5665040000000  0.4597220000000  0.4316220000000 1.0
C      1  0.5665070000000  0.5525850000000  0.4405650000000 1.0
END
