TITL C-986975-4297-909 0.0427322309395813 3375 -327.06820970385 0 0 60 (Ci) n - 1
REM
REM in /home/bkarasulu/work/CARBON/AIRSS/Generating-Clusters/REBO/Higher-Symm/Only-C60
REM
REM
REM
REM
REM
REM ./C.cell (a2850807a9bf4ad07a5b6933b78d9264)
REM AIRSS Version 0.9.1 bugfix July 2018 build 013d7b7c2542+ Fri, 06 Jul 2018 19:26:36 +0100
REM compiler GCC version 9.2.1 20190827 (Red Hat 9.2.1-1)
REM options -cpp -mtune=generic -march=x86-64 -g -O0 -fpre-include=/usr/include/finclude/math-vector-fortran.h
REM seed 724863812 -225695231 -1041003021 649205537 -2104881137 1527041869 -1709083095 766086799 1315038396 1279909656 1625888196 -1604275151 -438910132 1741604211 193672631 -968076061 -142683347 62747469 -1419954437 -357395570 -1583162513 747008356 -1451962058 96425901 -854954555 2118569752 -238818113 1307177582 630530140 -314330168 72196434 1117369413 1736857840
REM
CELL 1.54180   15.00000   15.00000   15.00000   90.00000   90.00000   90.00000
LATT -1
SFAC C  
C      1  0.5045830000000  0.4703690000000  0.6514660000000 1.0
C      1  0.4954030000000  0.5296400000000  0.3485630000000 1.0
C      1  0.6349170000000  0.4787590000000  0.3276340000000 1.0
C      1  0.3650490000000  0.5212720000000  0.6723480000000 1.0
C      1  0.5303120000000  0.3084270000000  0.3808790000000 1.0
C      1  0.4697240000000  0.6915650000000  0.6191210000000 1.0
C      1  0.3588970000000  0.3596130000000  0.4240090000000 1.0
C      1  0.6410460000000  0.6403100000000  0.5760180000000 1.0
C      1  0.4832390000000  0.3562300000000  0.7145770000000 1.0
C      1  0.5167220000000  0.6437940000000  0.2854560000000 1.0
C      1  0.3787610000000  0.7107500000000  0.4795210000000 1.0
C      1  0.6212520000000  0.2892800000000  0.5204690000000 1.0
C      1  0.5735500000000  0.7191280000000  0.4375890000000 1.0
C      1  0.4264710000000  0.2808750000000  0.5624490000000 1.0
C      1  0.4429890000000  0.6365060000000  0.4286440000000 1.0
C      1  0.5570400000000  0.3634890000000  0.5713880000000 1.0
C      1  0.4208860000000  0.5902100000000  0.2863250000000 1.0
C      1  0.5791510000000  0.4097070000000  0.7136140000000 1.0
C      1  0.7010940000000  0.5629130000000  0.5163260000000 1.0
C      1  0.2988460000000  0.4370420000000  0.4836790000000 1.0
C      1  0.5605000000000  0.5837920000000  0.7342350000000 1.0
C      1  0.4394180000000  0.4162430000000  0.2658070000000 1.0
C      1  0.4724430000000  0.4280960000000  0.3943180000000 1.0
C      1  0.5276010000000  0.5719260000000  0.6057050000000 1.0
C      1  0.6953130000000  0.4979750000000  0.4226000000000 1.0
C      1  0.3046980000000  0.5020410000000  0.5773360000000 1.0
C      1  0.6840760000000  0.4264590000000  0.6725020000000 1.0
C      1  0.3159940000000  0.5736590000000  0.3274570000000 1.0
C      1  0.6707930000000  0.3888790000000  0.4151230000000 1.0
C      1  0.3292490000000  0.6111310000000  0.5848090000000 1.0
C      1  0.7162970000000  0.4649670000000  0.5692540000000 1.0
C      1  0.2837890000000  0.5349880000000  0.4305960000000 1.0
C      1  0.4688110000000  0.5597580000000  0.7448100000000 1.0
C      1  0.5311600000000  0.4402350000000  0.2551890000000 1.0
C      1  0.5728320000000  0.4472140000000  0.4191810000000 1.0
C      1  0.4271650000000  0.5528100000000  0.5808070000000 1.0
C      1  0.6156600000000  0.5062330000000  0.5915840000000 1.0
C      1  0.3843600000000  0.4937780000000  0.4084790000000 1.0
C      1  0.6190490000000  0.5120420000000  0.7051980000000 1.0
C      1  0.3808830000000  0.4879160000000  0.2949590000000 1.0
C      1  0.3750280000000  0.6963470000000  0.5727700000000 1.0
C      1  0.6249660000000  0.3036860000000  0.4272380000000 1.0
C      1  0.5899320000000  0.3748140000000  0.3102020000000 1.0
C      1  0.4100500000000  0.6251980000000  0.6897690000000 1.0
C      1  0.5125160000000  0.6858930000000  0.3739350000000 1.0
C      1  0.4875010000000  0.3141310000000  0.6261010000000 1.0
C      1  0.4018230000000  0.4446460000000  0.5673360000000 1.0
C      1  0.5981730000000  0.5553620000000  0.4325660000000 1.0
C      1  0.3329420000000  0.6350900000000  0.4156140000000 1.0
C      1  0.6670860000000  0.3649150000000  0.5844170000000 1.0
C      1  0.6429650000000  0.6459460000000  0.4646730000000 1.0
C      1  0.3571000000000  0.3540210000000  0.5354160000000 1.0
C      1  0.4285450000000  0.4541440000000  0.7317930000000 1.0
C      1  0.5714030000000  0.5458760000000  0.2681540000000 1.0
C      1  0.4482560000000  0.2967000000000  0.4586470000000 1.0
C      1  0.5517220000000  0.7032420000000  0.5413320000000 1.0
C      1  0.5696510000000  0.6593470000000  0.6622530000000 1.0
C      1  0.4303330000000  0.3406200000000  0.3378060000000 1.0
C      1  0.5104690000000  0.4588000000000  0.5378560000000 1.0
C      1  0.4895200000000  0.5412010000000  0.4621010000000 1.0
END
