TITL C-986979-5873-361 -1.81807965551964e-05 3375 -353.699801302559 0 0 60 (T23) n - 1
REM
REM in /home/bkarasulu/work/CARBON/AIRSS/Generating-Clusters/REBO/Higher-Symm/Only-C60
REM
REM
REM
REM
REM
REM ./C.cell (a2850807a9bf4ad07a5b6933b78d9264)
REM AIRSS Version 0.9.1 bugfix July 2018 build 013d7b7c2542+ Fri, 06 Jul 2018 19:26:36 +0100
REM compiler GCC version 9.2.1 20190827 (Red Hat 9.2.1-1)
REM options -cpp -mtune=generic -march=x86-64 -g -O0 -fpre-include=/usr/include/finclude/math-vector-fortran.h
REM seed 1368731084 853896182 -31982144 -1533035813 1547547992 -198684182 1296723368 -1672266230 1815157361 328441304 1333771595 -2111791372 -1691523379 -1184335780 -2064191029 -264365894 2067746418 -399587802 -1509923163 -44563758 131393586 340347949 2045357974 -970950371 -1533034688 -799388603 1945942058 -759246810 -314417351 1486485583 1956394571 -406650839 1091636243
REM
CELL 1.54180   15.00000   15.00000   15.00000   90.00000   90.00000   90.00000
LATT -1
SFAC C  
C      1  0.4269770000000  0.3909870000000  0.2793330000000 1.0
C      1  0.3909870000000  0.2793330000000  0.4269770000000 1.0
C      1  0.2793330000000  0.4269770000000  0.3909870000000 1.0
C      1  0.4269770000000  0.6090130000000  0.7206670000000 1.0
C      1  0.5730230000000  0.3909870000000  0.7206670000000 1.0
C      1  0.5730230000000  0.6090130000000  0.2793330000000 1.0
C      1  0.3909870000000  0.7206670000000  0.5730230000000 1.0
C      1  0.6090130000000  0.2793330000000  0.5730230000000 1.0
C      1  0.6090130000000  0.7206670000000  0.4269770000000 1.0
C      1  0.2793330000000  0.5730230000000  0.6090130000000 1.0
C      1  0.7206670000000  0.4269770000000  0.6090130000000 1.0
C      1  0.7206670000000  0.5730230000000  0.3909870000000 1.0
C      1  0.5794040000000  0.5685900000000  0.6536710000000 1.0
C      1  0.5685900000000  0.6536710000000  0.5794040000000 1.0
C      1  0.6536710000000  0.5794040000000  0.5685900000000 1.0
C      1  0.5794040000000  0.4314100000000  0.3463290000000 1.0
C      1  0.4205960000000  0.5685900000000  0.3463290000000 1.0
C      1  0.4205960000000  0.4314100000000  0.6536710000000 1.0
C      1  0.5685900000000  0.3463290000000  0.4205960000000 1.0
C      1  0.4314100000000  0.6536710000000  0.4205960000000 1.0
C      1  0.4314100000000  0.3463290000000  0.5794040000000 1.0
C      1  0.6536710000000  0.4205960000000  0.4314100000000 1.0
C      1  0.3463290000000  0.5794040000000  0.4314100000000 1.0
C      1  0.3463290000000  0.4205960000000  0.5685900000000 1.0
C      1  0.7207140000000  0.4950810000000  0.4510700000000 1.0
C      1  0.4950810000000  0.4510700000000  0.7207140000000 1.0
C      1  0.4510700000000  0.7207140000000  0.4950810000000 1.0
C      1  0.7207140000000  0.5049190000000  0.5489300000000 1.0
C      1  0.2792860000000  0.4950810000000  0.5489300000000 1.0
C      1  0.2792860000000  0.5049190000000  0.4510700000000 1.0
C      1  0.4950810000000  0.5489300000000  0.2792860000000 1.0
C      1  0.5049190000000  0.4510700000000  0.2792860000000 1.0
C      1  0.5049190000000  0.5489300000000  0.7207140000000 1.0
C      1  0.4510700000000  0.2792860000000  0.5049190000000 1.0
C      1  0.5489300000000  0.7207140000000  0.5049190000000 1.0
C      1  0.5489300000000  0.2792860000000  0.4950810000000 1.0
C      1  0.6969670000000  0.6649300000000  0.4363400000000 1.0
C      1  0.6649300000000  0.4363400000000  0.6969670000000 1.0
C      1  0.4363400000000  0.6969670000000  0.6649300000000 1.0
C      1  0.6969670000000  0.3350700000000  0.5636600000000 1.0
C      1  0.3030330000000  0.6649300000000  0.5636600000000 1.0
C      1  0.3030330000000  0.3350700000000  0.4363400000000 1.0
C      1  0.6649300000000  0.5636600000000  0.3030330000000 1.0
C      1  0.3350700000000  0.4363400000000  0.3030330000000 1.0
C      1  0.3350700000000  0.5636600000000  0.6969670000000 1.0
C      1  0.4363400000000  0.3030330000000  0.3350700000000 1.0
C      1  0.5636600000000  0.6969670000000  0.3350700000000 1.0
C      1  0.5636600000000  0.3030330000000  0.6649300000000 1.0
C      1  0.5296020000000  0.3836900000000  0.5950400000000 1.0
C      1  0.3836900000000  0.5950400000000  0.5296020000000 1.0
C      1  0.5950400000000  0.5296020000000  0.3836900000000 1.0
C      1  0.5296020000000  0.6163100000000  0.4049600000000 1.0
C      1  0.4703980000000  0.3836900000000  0.4049600000000 1.0
C      1  0.4703980000000  0.6163100000000  0.5950400000000 1.0
C      1  0.3836900000000  0.4049600000000  0.4703980000000 1.0
C      1  0.6163100000000  0.5950400000000  0.4703980000000 1.0
C      1  0.6163100000000  0.4049600000000  0.5296020000000 1.0
C      1  0.5950400000000  0.4703980000000  0.6163100000000 1.0
C      1  0.4049600000000  0.5296020000000  0.6163100000000 1.0
C      1  0.4049600000000  0.4703980000000  0.3836900000000 1.0
END
