TITL C-986979-5873-1128 -6.57316056987708e-06 3375 -363.610501576178 0 0 60 (Ci) n - 1
REM
REM in /home/bkarasulu/work/CARBON/AIRSS/Generating-Clusters/REBO/Higher-Symm/Only-C60
REM
REM
REM
REM
REM
REM ./C.cell (a2850807a9bf4ad07a5b6933b78d9264)
REM AIRSS Version 0.9.1 bugfix July 2018 build 013d7b7c2542+ Fri, 06 Jul 2018 19:26:36 +0100
REM compiler GCC version 9.2.1 20190827 (Red Hat 9.2.1-1)
REM options -cpp -mtune=generic -march=x86-64 -g -O0 -fpre-include=/usr/include/finclude/math-vector-fortran.h
REM seed -599159681 420913504 -1263036541 -1102105948 -1476455952 -1281830854 819834096 -717360117 1068129196 -1823482759 -192428468 1299914497 -1977390251 -378851241 1645112026 -1720128744 -83928070 -514233258 -390694921 1502224903 -966044612 -767803201 1326605648 -27026352 -848082089 -1317456836 1650136007 898899043 415701448 87940250 -1434032679 607476132 665540677
REM
CELL 1.54180   15.00000   15.00000   15.00000   90.00000   90.00000   90.00000
LATT -1
SFAC C  
C      1  0.5982710000000  0.4685370000000  0.4292090000000 1.0
C      1  0.4017290000000  0.5314630000000  0.5707910000000 1.0
C      1  0.5013090000000  0.3242930000000  0.7249340000000 1.0
C      1  0.4986910000000  0.6757070000000  0.2750660000000 1.0
C      1  0.5267290000000  0.7685730000000  0.5703770000000 1.0
C      1  0.4732710000000  0.2314270000000  0.4296230000000 1.0
C      1  0.3727090000000  0.6594230000000  0.5909860000000 1.0
C      1  0.6272910000000  0.3405770000000  0.4090140000000 1.0
C      1  0.5920890000000  0.7147420000000  0.5299180000000 1.0
C      1  0.4079110000000  0.2852580000000  0.4700820000000 1.0
C      1  0.4659760000000  0.4135830000000  0.2456020000000 1.0
C      1  0.5340240000000  0.5864170000000  0.7543980000000 1.0
C      1  0.6658340000000  0.4850610000000  0.5648050000000 1.0
C      1  0.3341660000000  0.5149390000000  0.4351950000000 1.0
C      1  0.4786400000000  0.3970390000000  0.4836490000000 1.0
C      1  0.5213600000000  0.6029610000000  0.5163510000000 1.0
C      1  0.7058770000000  0.5916310000000  0.4505230000000 1.0
C      1  0.2941230000000  0.4083700000000  0.5494770000000 1.0
C      1  0.5718790000000  0.3313960000000  0.6617210000000 1.0
C      1  0.4281210000000  0.6686040000000  0.3382790000000 1.0
C      1  0.5475330000000  0.5965610000000  0.2533630000000 1.0
C      1  0.4524670000000  0.4034390000000  0.7466370000000 1.0
C      1  0.5024160000000  0.7361760000000  0.6748710000000 1.0
C      1  0.4975840000000  0.2638240000000  0.3251290000000 1.0
C      1  0.4932120000000  0.5465880000000  0.5850010000000 1.0
C      1  0.5067880000000  0.4534120000000  0.4149990000000 1.0
C      1  0.5785130000000  0.6519810000000  0.6733010000000 1.0
C      1  0.4214870000000  0.3480190000000  0.3266990000000 1.0
C      1  0.5033570000000  0.4804880000000  0.7591230000000 1.0
C      1  0.4966430000000  0.5195120000000  0.2408770000000 1.0
C      1  0.3568040000000  0.6126230000000  0.3119830000000 1.0
C      1  0.6431960000000  0.3873770000000  0.6880170000000 1.0
C      1  0.6259830000000  0.5790990000000  0.3047190000000 1.0
C      1  0.3740170000000  0.4209010000000  0.6952810000000 1.0
C      1  0.4497250000000  0.4793540000000  0.3328730000000 1.0
C      1  0.5502750000000  0.5206460000000  0.6671270000000 1.0
C      1  0.6373410000000  0.4744430000000  0.6528030000000 1.0
C      1  0.3626590000000  0.5255570000000  0.3471970000000 1.0
C      1  0.6268100000000  0.3995150000000  0.5059700000000 1.0
C      1  0.3731900000000  0.6004850000000  0.4940300000000 1.0
C      1  0.4341320000000  0.3279890000000  0.5618530000000 1.0
C      1  0.5658680000000  0.6720110000000  0.4381470000000 1.0
C      1  0.3214510000000  0.4221070000000  0.4574800000000 1.0
C      1  0.6785490000000  0.5778930000000  0.5425200000000 1.0
C      1  0.4267830000000  0.7372530000000  0.5904540000000 1.0
C      1  0.5732170000000  0.2627460000000  0.4095460000000 1.0
C      1  0.6274350000000  0.6472060000000  0.5901030000000 1.0
C      1  0.3725650000000  0.3527940000000  0.4098970000000 1.0
C      1  0.3595320000000  0.3675000000000  0.6150720000000 1.0
C      1  0.6404680000000  0.6325000000000  0.3849280000000 1.0
C      1  0.6176330000000  0.3854320000000  0.3207620000000 1.0
C      1  0.3823670000000  0.6145680000000  0.6792380000000 1.0
C      1  0.4562720000000  0.6489860000000  0.4340680000000 1.0
C      1  0.5437280000000  0.3510140000000  0.5659320000000 1.0
C      1  0.5429410000000  0.3472980000000  0.2732360000000 1.0
C      1  0.4570590000000  0.6527020000000  0.7267640000000 1.0
C      1  0.6880930000000  0.5091530000000  0.3993930000000 1.0
C      1  0.3119070000000  0.4908470000000  0.6006070000000 1.0
C      1  0.3467830000000  0.5245960000000  0.6916300000000 1.0
C      1  0.6532170000000  0.4754040000000  0.3083700000000 1.0
END
