TITL C-986972-3822-35 -2.59347617616021e-06 3375 -353.074640927831 0 0 60 (C2) n - 1
REM
REM in /home/bkarasulu/work/CARBON/AIRSS/Generating-Clusters/REBO/Higher-Symm/Only-C60
REM
REM
REM
REM
REM
REM ./C.cell (a2850807a9bf4ad07a5b6933b78d9264)
REM AIRSS Version 0.9.1 bugfix July 2018 build 013d7b7c2542+ Fri, 06 Jul 2018 19:26:36 +0100
REM compiler GCC version 9.2.1 20190827 (Red Hat 9.2.1-1)
REM options -cpp -mtune=generic -march=x86-64 -g -O0 -fpre-include=/usr/include/finclude/math-vector-fortran.h
REM seed -676031386 -570838299 483759336 444299333 -401283657 1578473840 -1001991782 -934438209 870899678 265075764 33574497 393768132 -509743981 570749977 24307820 1295965848 -1064470016 305017377 244416026 1727057406 814113225 801570577 365020650 857969821 821047622 1741692588 -1846491047 -1709208529 625400429 -804668353 -57644966 70775095 450444243
REM
CELL 1.54180   15.00000   15.00000   15.00000   90.00000   90.00000   90.00000
LATT -1
SFAC C  
C      1  0.4213490000000  0.6680280000000  0.3306070000000 1.0
C      1  0.6572610000000  0.6704240000000  0.4437160000000 1.0
C      1  0.5786500000000  0.6680240000000  0.6693970000000 1.0
C      1  0.3427390000000  0.6704220000000  0.5562880000000 1.0
C      1  0.5433780000000  0.7255820000000  0.5777370000000 1.0
C      1  0.4410620000000  0.7215940000000  0.5310610000000 1.0
C      1  0.4566220000000  0.7255840000000  0.4222680000000 1.0
C      1  0.5589380000000  0.7215950000000  0.4689440000000 1.0
C      1  0.5175050000000  0.3289260000000  0.7029050000000 1.0
C      1  0.2843140000000  0.3311600000000  0.5183820000000 1.0
C      1  0.4824950000000  0.3289310000000  0.2970890000000 1.0
C      1  0.7156870000000  0.3311620000000  0.4816130000000 1.0
C      1  0.6337460000000  0.4918120000000  0.5981910000000 1.0
C      1  0.4061040000000  0.4952700000000  0.6225730000000 1.0
C      1  0.3662540000000  0.4918140000000  0.4018100000000 1.0
C      1  0.5938960000000  0.4952730000000  0.3774270000000 1.0
C      1  0.4263400000000  0.5512590000000  0.4584840000000 1.0
C      1  0.5331640000000  0.5495130000000  0.4424320000000 1.0
C      1  0.5736600000000  0.5512580000000  0.5415190000000 1.0
C      1  0.4668360000000  0.5495120000000  0.5575700000000 1.0
C      1  0.5426700000000  0.5726820000000  0.2468410000000 1.0
C      1  0.7671390000000  0.5722160000000  0.5537670000000 1.0
C      1  0.4573290000000  0.5726760000000  0.7531630000000 1.0
C      1  0.2328610000000  0.5722170000000  0.4462350000000 1.0
C      1  0.4118870000000  0.5707460000000  0.2757940000000 1.0
C      1  0.7179680000000  0.5789630000000  0.4190030000000 1.0
C      1  0.5881120000000  0.5707420000000  0.7242080000000 1.0
C      1  0.2820320000000  0.5789610000000  0.5809990000000 1.0
C      1  0.4380200000000  0.4883940000000  0.7148930000000 1.0
C      1  0.2727820000000  0.4873830000000  0.4324690000000 1.0
C      1  0.5619790000000  0.4883990000000  0.2851080000000 1.0
C      1  0.7272170000000  0.4873820000000  0.5675320000000 1.0
C      1  0.6152880000000  0.6416570000000  0.5669440000000 1.0
C      1  0.4369210000000  0.6375550000000  0.6041830000000 1.0
C      1  0.3847110000000  0.6416590000000  0.4330590000000 1.0
C      1  0.5630790000000  0.6375570000000  0.3958210000000 1.0
C      1  0.5796690000000  0.4223090000000  0.4984270000000 1.0
C      1  0.5013380000000  0.4211680000000  0.5662000000000 1.0
C      1  0.4203320000000  0.4223080000000  0.5015720000000 1.0
C      1  0.4986620000000  0.4211690000000  0.4337980000000 1.0
C      1  0.4783870000000  0.6411520000000  0.6963640000000 1.0
C      1  0.2847900000000  0.6445440000000  0.4653110000000 1.0
C      1  0.5216120000000  0.6411560000000  0.3036410000000 1.0
C      1  0.7152100000000  0.6445430000000  0.5346930000000 1.0
C      1  0.5141400000000  0.2544030000000  0.6522660000000 1.0
C      1  0.3343740000000  0.2560640000000  0.5156770000000 1.0
C      1  0.4858610000000  0.2544060000000  0.3477240000000 1.0
C      1  0.6656270000000  0.2560660000000  0.4843140000000 1.0
C      1  0.5063310000000  0.2196100000000  0.5660400000000 1.0
C      1  0.4190620000000  0.2199530000000  0.5077630000000 1.0
C      1  0.4936700000000  0.2196110000000  0.4339500000000 1.0
C      1  0.5809400000000  0.2199540000000  0.4922260000000 1.0
C      1  0.6842370000000  0.4289450000000  0.4903240000000 1.0
C      1  0.5123680000000  0.4268070000000  0.6712890000000 1.0
C      1  0.3157640000000  0.4289450000000  0.5096740000000 1.0
C      1  0.4876310000000  0.4268100000000  0.3287100000000 1.0
C      1  0.3181310000000  0.4944700000000  0.5896050000000 1.0
C      1  0.4048820000000  0.4874010000000  0.3157820000000 1.0
C      1  0.6818690000000  0.4944730000000  0.4103960000000 1.0
C      1  0.5951180000000  0.4873970000000  0.6842190000000 1.0
END
