TITL C-986973-6940-807 3.82370787182072e-05 3375 -338.435098490667 0 0 60 (S12) n - 1
REM
REM in /home/bkarasulu/work/CARBON/AIRSS/Generating-Clusters/REBO/Higher-Symm/Only-C60
REM
REM
REM
REM
REM
REM ./C.cell (a2850807a9bf4ad07a5b6933b78d9264)
REM AIRSS Version 0.9.1 bugfix July 2018 build 013d7b7c2542+ Fri, 06 Jul 2018 19:26:36 +0100
REM compiler GCC version 9.2.1 20190827 (Red Hat 9.2.1-1)
REM options -cpp -mtune=generic -march=x86-64 -g -O0 -fpre-include=/usr/include/finclude/math-vector-fortran.h
REM seed 1136564141 -655740205 -1351670372 -513129327 -938389156 1076378643 888738052 560080544 1660651136 475426313 -1534488429 1646752543 1758958484 349299498 299917572 -2052422791 -489839565 -600953309 -1879503105 1567688532 -1257405068 1749538981 -2012351757 1006078806 723034152 1741270301 -1508407527 -2047299987 -21840035 359153629 469674560 944062792 -6207378
REM
CELL 1.54180   15.00000   15.00000   15.00000   90.00000   90.00000   90.00000
LATT -1
SFAC C  
C      1  0.2976770000000  0.5175160000000  0.3982520000000 1.0
C      1  0.3160260000000  0.4140080000000  0.6017480000000 1.0
C      1  0.3836690000000  0.3335410000000  0.3982520000000 1.0
C      1  0.4824840000000  0.2976770000000  0.6017480000000 1.0
C      1  0.5859920000000  0.3160260000000  0.3982520000000 1.0
C      1  0.6664590000000  0.3836690000000  0.6017480000000 1.0
C      1  0.7023230000000  0.4824840000000  0.3982520000000 1.0
C      1  0.6839740000000  0.5859920000000  0.6017480000000 1.0
C      1  0.6163310000000  0.6664590000000  0.3982520000000 1.0
C      1  0.5175160000000  0.7023230000000  0.6017480000000 1.0
C      1  0.4140080000000  0.6839740000000  0.3982520000000 1.0
C      1  0.3335410000000  0.6163310000000  0.6017480000000 1.0
C      1  0.4517790000000  0.5985470000000  0.7152660000000 1.0
C      1  0.4089660000000  0.5612330000000  0.2847340000000 1.0
C      1  0.3905450000000  0.5075120000000  0.7152660000000 1.0
C      1  0.4014530000000  0.4517790000000  0.2847340000000 1.0
C      1  0.4387670000000  0.4089660000000  0.7152660000000 1.0
C      1  0.4924880000000  0.3905450000000  0.2847340000000 1.0
C      1  0.5482210000000  0.4014530000000  0.7152660000000 1.0
C      1  0.5910340000000  0.4387670000000  0.2847340000000 1.0
C      1  0.6094550000000  0.4924880000000  0.7152660000000 1.0
C      1  0.5985470000000  0.5482210000000  0.2847340000000 1.0
C      1  0.5612330000000  0.5910340000000  0.7152660000000 1.0
C      1  0.5075120000000  0.6094550000000  0.2847340000000 1.0
C      1  0.6461150000000  0.4017460000000  0.3614230000000 1.0
C      1  0.6756660000000  0.4879670000000  0.6385770000000 1.0
C      1  0.6581480000000  0.5774120000000  0.3614230000000 1.0
C      1  0.5982540000000  0.6461150000000  0.6385770000000 1.0
C      1  0.5120330000000  0.6756660000000  0.3614230000000 1.0
C      1  0.4225880000000  0.6581480000000  0.6385770000000 1.0
C      1  0.3538850000000  0.5982540000000  0.3614230000000 1.0
C      1  0.3243340000000  0.5120330000000  0.6385770000000 1.0
C      1  0.3418520000000  0.4225880000000  0.3614230000000 1.0
C      1  0.4017460000000  0.3538850000000  0.6385770000000 1.0
C      1  0.4879670000000  0.3243340000000  0.3614230000000 1.0
C      1  0.5774120000000  0.3418520000000  0.6385770000000 1.0
C      1  0.4016270000000  0.4761900000000  0.8237030000000 1.0
C      1  0.4267120000000  0.4301930000000  0.1762970000000 1.0
C      1  0.4714340000000  0.4029020000000  0.8237030000000 1.0
C      1  0.5238100000000  0.4016270000000  0.1762970000000 1.0
C      1  0.5698070000000  0.4267120000000  0.8237030000000 1.0
C      1  0.5970980000000  0.4714340000000  0.1762970000000 1.0
C      1  0.5983730000000  0.5238100000000  0.8237030000000 1.0
C      1  0.5732880000000  0.5698070000000  0.1762970000000 1.0
C      1  0.5285660000000  0.5970980000000  0.8237030000000 1.0
C      1  0.4761900000000  0.5983730000000  0.1762970000000 1.0
C      1  0.4301930000000  0.5732880000000  0.8237030000000 1.0
C      1  0.4029020000000  0.5285660000000  0.1762970000000 1.0
C      1  0.6122810000000  0.6313930000000  0.5265460000000 1.0
C      1  0.5315410000000  0.6699300000000  0.4734540000000 1.0
C      1  0.4423500000000  0.6629350000000  0.5265460000000 1.0
C      1  0.3686070000000  0.6122810000000  0.4734540000000 1.0
C      1  0.3300700000000  0.5315410000000  0.5265460000000 1.0
C      1  0.3370650000000  0.4423500000000  0.4734540000000 1.0
C      1  0.3877190000000  0.3686070000000  0.5265460000000 1.0
C      1  0.4684590000000  0.3300700000000  0.4734540000000 1.0
C      1  0.5576500000000  0.3370650000000  0.5265460000000 1.0
C      1  0.6313930000000  0.3877190000000  0.4734540000000 1.0
C      1  0.6699300000000  0.4684590000000  0.5265460000000 1.0
C      1  0.6629350000000  0.5576500000000  0.4734540000000 1.0
END
