TITL C-986978-6805-738 0.0118719864465652 3375 -329.587519891361 0 0 60 (C2) n - 1
REM
REM in /home/bkarasulu/work/CARBON/AIRSS/Generating-Clusters/REBO/Higher-Symm/Only-C60
REM
REM
REM
REM
REM
REM ./C.cell (a2850807a9bf4ad07a5b6933b78d9264)
REM AIRSS Version 0.9.1 bugfix July 2018 build 013d7b7c2542+ Fri, 06 Jul 2018 19:26:36 +0100
REM compiler GCC version 9.2.1 20190827 (Red Hat 9.2.1-1)
REM options -cpp -mtune=generic -march=x86-64 -g -O0 -fpre-include=/usr/include/finclude/math-vector-fortran.h
REM seed -649448980 -695796902 1078258166 120183279 141409253 277280277 -1595360151 1483814134 -845582974 1675683699 1828389568 -2034080336 998856167 1912950665 434996438 1516849747 -1746432029 -11526013 -607261260 -116582361 -188898654 1640100367 -829737631 159115700 1765079646 1850154124 -1959098282 -2016362896 -1717877336 1361747065 688789404 -1786947839 -10289065
REM
CELL 1.54180   15.00000   15.00000   15.00000   90.00000   90.00000   90.00000
LATT -1
SFAC C  
C      1  0.3604800000000  0.7051930000000  0.4558620000000 1.0
C      1  0.5332800000000  0.7000750000000  0.6443520000000 1.0
C      1  0.6086380000000  0.7048910000000  0.3994180000000 1.0
C      1  0.3604500000000  0.2948840000000  0.5441310000000 1.0
C      1  0.5333050000000  0.2999180000000  0.3556410000000 1.0
C      1  0.6086380000000  0.2950960000000  0.6005740000000 1.0
C      1  0.5991010000000  0.6400720000000  0.3140670000000 1.0
C      1  0.2875600000000  0.6464510000000  0.5090910000000 1.0
C      1  0.6215380000000  0.6478340000000  0.6788580000000 1.0
C      1  0.5991140000000  0.3599210000000  0.6859270000000 1.0
C      1  0.2874520000000  0.3534140000000  0.4907500000000 1.0
C      1  0.6215500000000  0.3521730000000  0.3211380000000 1.0
C      1  0.2817600000000  0.5507870000000  0.5148400000000 1.0
C      1  0.6327470000000  0.5525100000000  0.6807210000000 1.0
C      1  0.5948430000000  0.5437980000000  0.3133920000000 1.0
C      1  0.2812580000000  0.4490570000000  0.4848810000000 1.0
C      1  0.6327240000000  0.4475110000000  0.3192770000000 1.0
C      1  0.5949080000000  0.4561760000000  0.6865900000000 1.0
C      1  0.3429170000000  0.6535540000000  0.7843050000000 1.0
C      1  0.8249700000000  0.6533440000000  0.4938810000000 1.0
C      1  0.3315020000000  0.6555350000000  0.2215260000000 1.0
C      1  0.3429340000000  0.3464630000000  0.2157060000000 1.0
C      1  0.8249800000000  0.3466550000000  0.5061210000000 1.0
C      1  0.3314980000000  0.3444650000000  0.7784640000000 1.0
C      1  0.4385810000000  0.3380270000000  0.3726930000000 1.0
C      1  0.4204050000000  0.3374840000000  0.6173510000000 1.0
C      1  0.6412200000000  0.3348490000000  0.5105370000000 1.0
C      1  0.4385580000000  0.6619400000000  0.6273230000000 1.0
C      1  0.4204100000000  0.6625490000000  0.3826390000000 1.0
C      1  0.6412120000000  0.6651570000000  0.4894690000000 1.0
C      1  0.3732320000000  0.4583810000000  0.6443930000000 1.0
C      1  0.6850850000000  0.4579060000000  0.5326750000000 1.0
C      1  0.4351630000000  0.4603480000000  0.3216990000000 1.0
C      1  0.3731900000000  0.5416540000000  0.3556390000000 1.0
C      1  0.6850880000000  0.5420890000000  0.4673330000000 1.0
C      1  0.4352680000000  0.5396600000000  0.6784490000000 1.0
C      1  0.3738790000000  0.6916670000000  0.5597710000000 1.0
C      1  0.6159220000000  0.6935580000000  0.5795770000000 1.0
C      1  0.5120130000000  0.6891840000000  0.3597720000000 1.0
C      1  0.3739090000000  0.3083260000000  0.4402350000000 1.0
C      1  0.6159370000000  0.3064470000000  0.4204180000000 1.0
C      1  0.5120070000000  0.3108340000000  0.6402200000000 1.0
C      1  0.3638200000000  0.3725940000000  0.7040090000000 1.0
C      1  0.7436110000000  0.3729610000000  0.5144960000000 1.0
C      1  0.3906320000000  0.3742700000000  0.2815450000000 1.0
C      1  0.3638170000000  0.6274210000000  0.2959930000000 1.0
C      1  0.7436090000000  0.6270400000000  0.4855060000000 1.0
C      1  0.3906390000000  0.6257390000000  0.7185000000000 1.0
C      1  0.3787780000000  0.4695820000000  0.4416700000000 1.0
C      1  0.5048900000000  0.4666190000000  0.6281650000000 1.0
C      1  0.6089610000000  0.4715300000000  0.4241750000000 1.0
C      1  0.3790500000000  0.5304960000000  0.5584320000000 1.0
C      1  0.5048410000000  0.5333650000000  0.3718900000000 1.0
C      1  0.6089740000000  0.5284700000000  0.5758160000000 1.0
C      1  0.4039670000000  0.5793920000000  0.4587960000000 1.0
C      1  0.5089570000000  0.5769610000000  0.5995980000000 1.0
C      1  0.5816190000000  0.5811750000000  0.4406210000000 1.0
C      1  0.4040190000000  0.4206740000000  0.5412210000000 1.0
C      1  0.5089360000000  0.4230330000000  0.4004440000000 1.0
C      1  0.5816540000000  0.4188440000000  0.5594180000000 1.0
END
