TITL C-986978-6805-621 3.09592348101727e-05 3375 -377.528498292214 0 0 60 (Td) n - 1
REM
REM in /home/bkarasulu/work/CARBON/AIRSS/Generating-Clusters/REBO/Higher-Symm/Only-C60
REM
REM
REM
REM
REM
REM ./C.cell (a2850807a9bf4ad07a5b6933b78d9264)
REM AIRSS Version 0.9.1 bugfix July 2018 build 013d7b7c2542+ Fri, 06 Jul 2018 19:26:36 +0100
REM compiler GCC version 9.2.1 20190827 (Red Hat 9.2.1-1)
REM options -cpp -mtune=generic -march=x86-64 -g -O0 -fpre-include=/usr/include/finclude/math-vector-fortran.h
REM seed 171930993 -1666736564 1946983073 1177909538 -39596380 -1862444285 -1173481656 83178872 1741226453 220643248 1946063615 1556123606 -1401371469 -148935137 1725465196 1432971063 1981766706 1331541305 1887841800 -1279324356 -384367615 1945928312 1169969100 1870864155 -1375387227 689765302 138552519 -129281029 -733147778 -2140648059 -849207545 -1240863999 2125041461
REM
CELL 1.54180   15.00000   15.00000   15.00000   90.00000   90.00000   90.00000
LATT -1
SFAC C  
C      1  0.7261360000000  0.5456010000000  0.6135280000000 1.0
C      1  0.5456010000000  0.6135280000000  0.7261360000000 1.0
C      1  0.6135280000000  0.7261360000000  0.5456010000000 1.0
C      1  0.2738640000000  0.5456010000000  0.3864720000000 1.0
C      1  0.2738640000000  0.4543990000000  0.6135280000000 1.0
C      1  0.7261360000000  0.4543990000000  0.3864720000000 1.0
C      1  0.4543990000000  0.6135280000000  0.2738640000000 1.0
C      1  0.4543990000000  0.3864720000000  0.7261360000000 1.0
C      1  0.5456010000000  0.3864720000000  0.2738640000000 1.0
C      1  0.3864720000000  0.7261360000000  0.4543990000000 1.0
C      1  0.3864720000000  0.2738640000000  0.5456010000000 1.0
C      1  0.6135280000000  0.2738640000000  0.4543990000000 1.0
C      1  0.6135280000000  0.5456010000000  0.7261360000000 1.0
C      1  0.7261360000000  0.6135280000000  0.5456010000000 1.0
C      1  0.5456010000000  0.7261360000000  0.6135280000000 1.0
C      1  0.3864720000000  0.5456010000000  0.2738640000000 1.0
C      1  0.6135280000000  0.4543990000000  0.2738640000000 1.0
C      1  0.3864720000000  0.4543990000000  0.7261360000000 1.0
C      1  0.2738640000000  0.6135280000000  0.4543990000000 1.0
C      1  0.7261360000000  0.3864720000000  0.4543990000000 1.0
C      1  0.2738640000000  0.3864720000000  0.5456010000000 1.0
C      1  0.4543990000000  0.7261360000000  0.3864720000000 1.0
C      1  0.5456010000000  0.2738640000000  0.3864720000000 1.0
C      1  0.4543990000000  0.2738640000000  0.6135280000000 1.0
C      1  0.5360350000000  0.6717690000000  0.3979480000000 1.0
C      1  0.6717690000000  0.3979480000000  0.5360350000000 1.0
C      1  0.3979480000000  0.5360350000000  0.6717690000000 1.0
C      1  0.4639650000000  0.6717690000000  0.6020520000000 1.0
C      1  0.4639650000000  0.3282310000000  0.3979480000000 1.0
C      1  0.5360350000000  0.3282310000000  0.6020520000000 1.0
C      1  0.3282310000000  0.3979480000000  0.4639650000000 1.0
C      1  0.3282310000000  0.6020520000000  0.5360350000000 1.0
C      1  0.6717690000000  0.6020520000000  0.4639650000000 1.0
C      1  0.6020520000000  0.5360350000000  0.3282310000000 1.0
C      1  0.6020520000000  0.4639650000000  0.6717690000000 1.0
C      1  0.3979480000000  0.4639650000000  0.3282310000000 1.0
C      1  0.3979480000000  0.6717690000000  0.5360350000000 1.0
C      1  0.5360350000000  0.3979480000000  0.6717690000000 1.0
C      1  0.6717690000000  0.5360350000000  0.3979480000000 1.0
C      1  0.6020520000000  0.6717690000000  0.4639650000000 1.0
C      1  0.3979480000000  0.3282310000000  0.4639650000000 1.0
C      1  0.6020520000000  0.3282310000000  0.5360350000000 1.0
C      1  0.4639650000000  0.3979480000000  0.3282310000000 1.0
C      1  0.5360350000000  0.6020520000000  0.3282310000000 1.0
C      1  0.4639650000000  0.6020520000000  0.6717690000000 1.0
C      1  0.3282310000000  0.5360350000000  0.6020520000000 1.0
C      1  0.6717690000000  0.4639650000000  0.6020520000000 1.0
C      1  0.3282310000000  0.4639650000000  0.3979480000000 1.0
C      1  0.7038640000000  0.4235440000000  0.2961360000000 1.0
C      1  0.4235440000000  0.2961360000000  0.7038640000000 1.0
C      1  0.2961360000000  0.7038640000000  0.4235440000000 1.0
C      1  0.2961360000000  0.4235440000000  0.7038640000000 1.0
C      1  0.2961360000000  0.5764560000000  0.2961360000000 1.0
C      1  0.7038640000000  0.5764560000000  0.7038640000000 1.0
C      1  0.4235440000000  0.7038640000000  0.2961360000000 1.0
C      1  0.7038640000000  0.2961360000000  0.4235440000000 1.0
C      1  0.2961360000000  0.2961360000000  0.5764560000000 1.0
C      1  0.7038640000000  0.7038640000000  0.5764560000000 1.0
C      1  0.5764560000000  0.7038640000000  0.7038640000000 1.0
C      1  0.5764560000000  0.2961360000000  0.2961360000000 1.0
END
