TITL C-986973-6940-368 0.0242533668526326 3375 -362.019295280408 0 0 60 (C5) n - 1
REM
REM in /home/bkarasulu/work/CARBON/AIRSS/Generating-Clusters/REBO/Higher-Symm/Only-C60
REM
REM
REM
REM
REM
REM ./C.cell (a2850807a9bf4ad07a5b6933b78d9264)
REM AIRSS Version 0.9.1 bugfix July 2018 build 013d7b7c2542+ Fri, 06 Jul 2018 19:26:36 +0100
REM compiler GCC version 9.2.1 20190827 (Red Hat 9.2.1-1)
REM options -cpp -mtune=generic -march=x86-64 -g -O0 -fpre-include=/usr/include/finclude/math-vector-fortran.h
REM seed 1682086909 927673878 1252216729 2072542468 -308777960 600795842 -772530331 168608331 -798570685 426629827 1245984153 -1697812455 1111413536 -1420783411 1904270622 -300632806 526076366 1498780667 1473715576 501149353 -178219190 1942720137 1501018427 -161563991 -704314751 -1519923883 443562083 1784562642 -600777654 -2108529349 398057725 -1941164852 1699996119
REM
CELL 1.54180   15.00000   15.00000   15.00000   90.00000   90.00000   90.00000
LATT -1
SFAC C  
C      1  0.5876640000000  0.5542120000000  0.7382120000000 1.0
C      1  0.5876530000000  0.7432790000000  0.5220780000000 1.0
C      1  0.5876470000000  0.5961670000000  0.2754180000000 1.0
C      1  0.5876430000000  0.3160830000000  0.3391450000000 1.0
C      1  0.5876490000000  0.2901840000000  0.6252240000000 1.0
C      1  0.5876640000000  0.4457880000000  0.7382120000000 1.0
C      1  0.5876530000000  0.2567210000000  0.5220780000000 1.0
C      1  0.5876470000000  0.4038330000000  0.2754180000000 1.0
C      1  0.5876430000000  0.6839170000000  0.3391450000000 1.0
C      1  0.5876490000000  0.7098160000000  0.6252240000000 1.0
C      1  0.5142230000000  0.7690790000000  0.4638240000000 1.0
C      1  0.5142260000000  0.5487140000000  0.2328410000000 1.0
C      1  0.5142210000000  0.2609330000000  0.3711450000000 1.0
C      1  0.5142360000000  0.3035640000000  0.6875480000000 1.0
C      1  0.5142310000000  0.6175850000000  0.7447500000000 1.0
C      1  0.5142230000000  0.2309210000000  0.4638240000000 1.0
C      1  0.5142260000000  0.4512860000000  0.2328410000000 1.0
C      1  0.5142210000000  0.7390670000000  0.3711450000000 1.0
C      1  0.5142360000000  0.6964360000000  0.6875480000000 1.0
C      1  0.5142310000000  0.3824150000000  0.7447500000000 1.0
C      1  0.6447990000000  0.3411660000000  0.4975150000000 1.0
C      1  0.6447930000000  0.4485640000000  0.6503020000000 1.0
C      1  0.6447770000000  0.6270890000000  0.5953580000000 1.0
C      1  0.6447780000000  0.6299640000000  0.4085960000000 1.0
C      1  0.6447850000000  0.4532590000000  0.3481600000000 1.0
C      1  0.6447990000000  0.6588340000000  0.4975150000000 1.0
C      1  0.6447930000000  0.5514360000000  0.6503020000000 1.0
C      1  0.6447770000000  0.3729110000000  0.5953580000000 1.0
C      1  0.6447780000000  0.3700360000000  0.4085960000000 1.0
C      1  0.6447850000000  0.5467410000000  0.3481600000000 1.0
C      1  0.4231010000000  0.3145940000000  0.3422310000000 1.0
C      1  0.4230930000000  0.2926880000000  0.6276210000000 1.0
C      1  0.4230970000000  0.5572250000000  0.7365580000000 1.0
C      1  0.4231120000000  0.7426210000000  0.5187470000000 1.0
C      1  0.4230970000000  0.5927870000000  0.2749690000000 1.0
C      1  0.4231010000000  0.6854060000000  0.3422310000000 1.0
C      1  0.4230930000000  0.7073120000000  0.6276210000000 1.0
C      1  0.4230970000000  0.4427750000000  0.7365580000000 1.0
C      1  0.4231120000000  0.2573790000000  0.5187470000000 1.0
C      1  0.4230970000000  0.4072130000000  0.2749690000000 1.0
C      1  0.3489010000000  0.3728340000000  0.5953190000000 1.0
C      1  0.3489190000000  0.5513660000000  0.6503500000000 1.0
C      1  0.3489590000000  0.6588330000000  0.4976140000000 1.0
C      1  0.3489030000000  0.5468230000000  0.3481690000000 1.0
C      1  0.3488950000000  0.3700760000000  0.4085050000000 1.0
C      1  0.3489010000000  0.6271660000000  0.5953190000000 1.0
C      1  0.3489190000000  0.4486340000000  0.6503500000000 1.0
C      1  0.3489590000000  0.3411670000000  0.4976140000000 1.0
C      1  0.3489030000000  0.4531770000000  0.3481690000000 1.0
C      1  0.3488950000000  0.6299240000000  0.4085050000000 1.0
C      1  0.4813060000000  0.3545460000000  0.4986160000000 1.0
C      1  0.4812890000000  0.4537600000000  0.6379460000000 1.0
C      1  0.4812950000000  0.6170130000000  0.5865850000000 1.0
C      1  0.4813510000000  0.6185010000000  0.4154720000000 1.0
C      1  0.4813560000000  0.4563020000000  0.3611850000000 1.0
C      1  0.4813060000000  0.6454540000000  0.4986160000000 1.0
C      1  0.4812890000000  0.5462400000000  0.6379460000000 1.0
C      1  0.4812950000000  0.3829870000000  0.5865850000000 1.0
C      1  0.4813510000000  0.3814990000000  0.4154720000000 1.0
C      1  0.4813560000000  0.5436980000000  0.3611850000000 1.0
END
