TITL C-986976-6631-886 6.36387694952973e-06 3375 -350.226906194979 0 0 60 (Td) n - 1
REM
REM in /home/bkarasulu/work/CARBON/AIRSS/Generating-Clusters/REBO/Higher-Symm/Only-C60
REM
REM
REM
REM
REM
REM ./C.cell (a2850807a9bf4ad07a5b6933b78d9264)
REM AIRSS Version 0.9.1 bugfix July 2018 build 013d7b7c2542+ Fri, 06 Jul 2018 19:26:36 +0100
REM compiler GCC version 9.2.1 20190827 (Red Hat 9.2.1-1)
REM options -cpp -mtune=generic -march=x86-64 -g -O0 -fpre-include=/usr/include/finclude/math-vector-fortran.h
REM seed -1537160527 -2105360031 82745406 1743029915 -2019154601 712062206 549172219 149811831 155579992 316259061 -1015864077 1429496020 -1052086334 -6678412 -1071887816 1577554869 151331461 -1238011780 -1308716272 1846344276 -530084899 -2116759591 44192269 1945078248 1658960473 372241166 629289666 110091728 1713342516 -2036580964 1782941395 -1746885451 704411384
REM
CELL 1.54180   15.00000   15.00000   15.00000   90.00000   90.00000   90.00000
LATT -1
SFAC C  
C      1  0.4188910000000  0.6512140000000  0.2824870000000 1.0
C      1  0.2824870000000  0.4188910000000  0.6512140000000 1.0
C      1  0.6512140000000  0.2824870000000  0.4188910000000 1.0
C      1  0.5811090000000  0.6512140000000  0.7175130000000 1.0
C      1  0.4188910000000  0.3487860000000  0.7175140000000 1.0
C      1  0.5811090000000  0.3487860000000  0.2824870000000 1.0
C      1  0.7175140000000  0.4188910000000  0.3487860000000 1.0
C      1  0.2824870000000  0.5811090000000  0.3487860000000 1.0
C      1  0.7175130000000  0.5811090000000  0.6512140000000 1.0
C      1  0.3487860000000  0.2824870000000  0.5811090000000 1.0
C      1  0.6512140000000  0.7175130000000  0.5811090000000 1.0
C      1  0.3487860000000  0.7175140000000  0.4188910000000 1.0
C      1  0.2824860000000  0.6512140000000  0.4188910000000 1.0
C      1  0.6512140000000  0.4188910000000  0.2824870000000 1.0
C      1  0.4188910000000  0.2824860000000  0.6512140000000 1.0
C      1  0.7175140000000  0.6512140000000  0.5811090000000 1.0
C      1  0.7175130000000  0.3487860000000  0.4188910000000 1.0
C      1  0.2824870000000  0.3487860000000  0.5811090000000 1.0
C      1  0.3487860000000  0.4188910000000  0.7175130000000 1.0
C      1  0.3487860000000  0.5811090000000  0.2824870000000 1.0
C      1  0.6512140000000  0.5811090000000  0.7175130000000 1.0
C      1  0.5811090000000  0.2824870000000  0.3487860000000 1.0
C      1  0.5811090000000  0.7175130000000  0.6512140000000 1.0
C      1  0.4188910000000  0.7175130000000  0.3487860000000 1.0
C      1  0.2898430000000  0.5004400000000  0.5801570000000 1.0
C      1  0.5801570000000  0.2898430000000  0.5004400000000 1.0
C      1  0.5004400000000  0.5801570000000  0.2898430000000 1.0
C      1  0.7101570000000  0.5004400000000  0.4198430000000 1.0
C      1  0.2898430000000  0.4995600000000  0.4198430000000 1.0
C      1  0.7101570000000  0.4995600000000  0.5801570000000 1.0
C      1  0.4198430000000  0.2898430000000  0.4995600000000 1.0
C      1  0.5801570000000  0.7101570000000  0.4995600000000 1.0
C      1  0.4198430000000  0.7101570000000  0.5004400000000 1.0
C      1  0.4995600000000  0.5801570000000  0.7101570000000 1.0
C      1  0.5004400000000  0.4198430000000  0.7101570000000 1.0
C      1  0.4995600000000  0.4198430000000  0.2898430000000 1.0
C      1  0.5801570000000  0.5004400000000  0.2898430000000 1.0
C      1  0.5004400000000  0.2898430000000  0.5801570000000 1.0
C      1  0.2898430000000  0.5801570000000  0.5004400000000 1.0
C      1  0.4198430000000  0.5004400000000  0.7101570000000 1.0
C      1  0.4198430000000  0.4995600000000  0.2898430000000 1.0
C      1  0.5801570000000  0.4995600000000  0.7101570000000 1.0
C      1  0.4995600000000  0.2898430000000  0.4198430000000 1.0
C      1  0.4995600000000  0.7101570000000  0.5801570000000 1.0
C      1  0.5004400000000  0.7101570000000  0.4198430000000 1.0
C      1  0.7101570000000  0.5801570000000  0.4995600000000 1.0
C      1  0.7101570000000  0.4198430000000  0.5004400000000 1.0
C      1  0.2898430000000  0.4198430000000  0.4995600000000 1.0
C      1  0.3677380000000  0.5533940000000  0.6322620000000 1.0
C      1  0.5533940000000  0.6322620000000  0.3677380000000 1.0
C      1  0.3677380000000  0.6322620000000  0.5533940000000 1.0
C      1  0.5533940000000  0.3677380000000  0.6322620000000 1.0
C      1  0.6322620000000  0.4466060000000  0.6322620000000 1.0
C      1  0.6322620000000  0.6322620000000  0.4466060000000 1.0
C      1  0.4466060000000  0.6322620000000  0.6322620000000 1.0
C      1  0.6322620000000  0.5533940000000  0.3677380000000 1.0
C      1  0.6322620000000  0.3677380000000  0.5533940000000 1.0
C      1  0.3677380000000  0.3677380000000  0.4466060000000 1.0
C      1  0.4466060000000  0.3677380000000  0.3677380000000 1.0
C      1  0.3677380000000  0.4466060000000  0.3677380000000 1.0
END
