TITL C-986979-5873-438 -3.1258249825026e-05 3375 -337.621518107208 0 0 60 (C1) n - 1
REM
REM in /home/bkarasulu/work/CARBON/AIRSS/Generating-Clusters/REBO/Higher-Symm/Only-C60
REM
REM
REM
REM
REM
REM ./C.cell (a2850807a9bf4ad07a5b6933b78d9264)
REM AIRSS Version 0.9.1 bugfix July 2018 build 013d7b7c2542+ Fri, 06 Jul 2018 19:26:36 +0100
REM compiler GCC version 9.2.1 20190827 (Red Hat 9.2.1-1)
REM options -cpp -mtune=generic -march=x86-64 -g -O0 -fpre-include=/usr/include/finclude/math-vector-fortran.h
REM seed 569663818 362558663 -97727071 -758046200 -1739155570 -1954908575 1792202673 405964679 -364013617 -1074514210 -1865057155 451302660 736930028 -270309865 724544032 -2065035673 -606342110 -1954466688 -232106264 -2053005437 -1449979773 -1784956674 -588894283 -297424697 23978378 1412295976 1872596815 1780061396 -1610604971 2143933925 678477674 -1020506250 1671886732
REM
CELL 1.54180   15.00000   15.00000   15.00000   90.00000   90.00000   90.00000
LATT -1
SFAC C  
C      1  0.6202640000000  0.3290640000000  0.6121880000000 1.0
C      1  0.6232920000000  0.5474680000000  0.6993210000000 1.0
C      1  0.6187690000000  0.7038900000000  0.5047230000000 1.0
C      1  0.6230940000000  0.5809060000000  0.3101860000000 1.0
C      1  0.6200890000000  0.3393540000000  0.3739920000000 1.0
C      1  0.4369680000000  0.5754490000000  0.4578190000000 1.0
C      1  0.4371560000000  0.4836080000000  0.4150970000000 1.0
C      1  0.4368420000000  0.4146010000000  0.4896040000000 1.0
C      1  0.4370430000000  0.4635050000000  0.5783710000000 1.0
C      1  0.4371290000000  0.5629140000000  0.5586140000000 1.0
C      1  0.5339530000000  0.6437950000000  0.2956140000000 1.0
C      1  0.5377980000000  0.3515920000000  0.3018800000000 1.0
C      1  0.5352880000000  0.2649470000000  0.5818820000000 1.0
C      1  0.5356120000000  0.5032260000000  0.7486770000000 1.0
C      1  0.5376400000000  0.7367480000000  0.5722290000000 1.0
C      1  0.6340200000000  0.4188800000000  0.5430210000000 1.0
C      1  0.6339480000000  0.5167070000000  0.5897130000000 1.0
C      1  0.6346140000000  0.5911430000000  0.5117110000000 1.0
C      1  0.6338310000000  0.5395750000000  0.4162120000000 1.0
C      1  0.6349100000000  0.4340550000000  0.4358650000000 1.0
C      1  0.3554330000000  0.5687520000000  0.3532470000000 1.0
C      1  0.3559460000000  0.3817540000000  0.3890570000000 1.0
C      1  0.3555150000000  0.3581250000000  0.5780440000000 1.0
C      1  0.3557280000000  0.5307280000000  0.6590340000000 1.0
C      1  0.3560210000000  0.6608290000000  0.5202580000000 1.0
C      1  0.4583680000000  0.5353860000000  0.6881660000000 1.0
C      1  0.4589870000000  0.6892930000000  0.5238850000000 1.0
C      1  0.4578580000000  0.5817310000000  0.3266260000000 1.0
C      1  0.4588500000000  0.3609760000000  0.3687500000000 1.0
C      1  0.4580800000000  0.3326040000000  0.5921060000000 1.0
C      1  0.6506580000000  0.6811770000000  0.3468120000000 1.0
C      1  0.6531450000000  0.4178690000000  0.3037990000000 1.0
C      1  0.6524040000000  0.2752600000000  0.5202220000000 1.0
C      1  0.6521630000000  0.4441140000000  0.7245650000000 1.0
C      1  0.6534260000000  0.6818170000000  0.6076150000000 1.0
C      1  0.4972330000000  0.4492300000000  0.2768870000000 1.0
C      1  0.4956320000000  0.2692590000000  0.4813260000000 1.0
C      1  0.4955390000000  0.4098480000000  0.7120960000000 1.0
C      1  0.4974840000000  0.6729430000000  0.6502080000000 1.0
C      1  0.4943190000000  0.6981470000000  0.3798080000000 1.0
C      1  0.5919660000000  0.2771860000000  0.4499430000000 1.0
C      1  0.5914070000000  0.3799520000000  0.6967620000000 1.0
C      1  0.5933260000000  0.6418420000000  0.6651030000000 1.0
C      1  0.5901230000000  0.7157210000000  0.4081020000000 1.0
C      1  0.5925880000000  0.4840350000000  0.2824290000000 1.0
C      1  0.2896520000000  0.5811270000000  0.5102060000000 1.0
C      1  0.2894950000000  0.5348390000000  0.4260730000000 1.0
C      1  0.2896060000000  0.4404930000000  0.4439840000000 1.0
C      1  0.2895040000000  0.4284860000000  0.5392420000000 1.0
C      1  0.2895650000000  0.5153680000000  0.5801660000000 1.0
C      1  0.3940490000000  0.3179120000000  0.4765360000000 1.0
C      1  0.3931630000000  0.4216270000000  0.6660520000000 1.0
C      1  0.3942630000000  0.6336240000000  0.6258530000000 1.0
C      1  0.3935170000000  0.6610700000000  0.4117460000000 1.0
C      1  0.3935710000000  0.4658510000000  0.3194510000000 1.0
C      1  0.5334590000000  0.5736460000000  0.4072770000000 1.0
C      1  0.5342430000000  0.4357110000000  0.4032860000000 1.0
C      1  0.5334100000000  0.3866840000000  0.5309220000000 1.0
C      1  0.5338300000000  0.4948750000000  0.6171890000000 1.0
C      1  0.5342140000000  0.6086840000000  0.5404490000000 1.0
END
