TITL C-986979-5873-521 -0.00324176533699515 3375 -334.250966801741 0 0 60 (C5) n - 1
REM
REM in /home/bkarasulu/work/CARBON/AIRSS/Generating-Clusters/REBO/Higher-Symm/Only-C60
REM
REM
REM
REM
REM
REM ./C.cell (a2850807a9bf4ad07a5b6933b78d9264)
REM AIRSS Version 0.9.1 bugfix July 2018 build 013d7b7c2542+ Fri, 06 Jul 2018 19:26:36 +0100
REM compiler GCC version 9.2.1 20190827 (Red Hat 9.2.1-1)
REM options -cpp -mtune=generic -march=x86-64 -g -O0 -fpre-include=/usr/include/finclude/math-vector-fortran.h
REM seed 73697027 2138055595 60189415 863172889 -1790309718 -405656038 -262740991 541166767 -44062447 1968703863 895687441 -1569650004 -1690821595 -120240910 415361253 -666427379 -1258844714 -192393798 1297191140 1343826109 -774166639 -373030776 -1114724997 552594455 -1154788577 1183713357 2039582589 -979534972 -1816796624 1216138271 -1712439114 -1313208478 -1240552192
REM
CELL 1.54180   15.00000   15.00000   15.00000   90.00000   90.00000   90.00000
LATT -1
SFAC C  
C      1  0.3236620000000  0.6602850000000  0.5781600000000 1.0
C      1  0.5979470000000  0.7172480000000  0.5781540000000 1.0
C      1  0.7368790000000  0.4739810000000  0.5781570000000 1.0
C      1  0.5484460000000  0.2666780000000  0.5781590000000 1.0
C      1  0.2930630000000  0.3818150000000  0.5781520000000 1.0
C      1  0.2711490000000  0.4296840000000  0.4829880000000 1.0
C      1  0.3624060000000  0.6959110000000  0.4829880000000 1.0
C      1  0.6438100000000  0.6914060000000  0.4829860000000 1.0
C      1  0.7264730000000  0.4223740000000  0.4829910000000 1.0
C      1  0.4961610000000  0.2606170000000  0.4829810000000 1.0
C      1  0.4607140000000  0.6737640000000  0.3553780000000 1.0
C      1  0.6531360000000  0.5910750000000  0.3553550000000 1.0
C      1  0.6339460000000  0.3824970000000  0.3553420000000 1.0
C      1  0.4296470000000  0.3363280000000  0.3553800000000 1.0
C      1  0.3225670000000  0.5163320000000  0.3553380000000 1.0
C      1  0.4133750000000  0.5084740000000  0.3155790000000 1.0
C      1  0.4812790000000  0.5849980000000  0.3155360000000 1.0
C      1  0.5750580000000  0.5440680000000  0.3155600000000 1.0
C      1  0.5650980000000  0.4422300000000  0.3155760000000 1.0
C      1  0.4651860000000  0.4202300000000  0.3155340000000 1.0
C      1  0.4392230000000  0.4335980000000  0.4450700000000 1.0
C      1  0.4180460000000  0.5373090000000  0.4450830000000 1.0
C      1  0.5101420000000  0.5894400000000  0.4450730000000 1.0
C      1  0.5882060000000  0.5179970000000  0.4450760000000 1.0
C      1  0.5443730000000  0.4216510000000  0.4450820000000 1.0
C      1  0.7069300000000  0.5766120000000  0.4508470000000 1.0
C      1  0.6367890000000  0.3268800000000  0.4508460000000 1.0
C      1  0.3776240000000  0.3163740000000  0.4508480000000 1.0
C      1  0.2875840000000  0.5596540000000  0.4508450000000 1.0
C      1  0.4910730000000  0.7204900000000  0.4508510000000 1.0
C      1  0.2700460000000  0.4870740000000  0.6025320000000 1.0
C      1  0.4166510000000  0.7147090000000  0.6025370000000 1.0
C      1  0.6784550000000  0.6456260000000  0.6025420000000 1.0
C      1  0.6936320000000  0.3752920000000  0.6025380000000 1.0
C      1  0.4412210000000  0.2773000000000  0.6025280000000 1.0
C      1  0.6259290000000  0.4447720000000  0.5119740000000 1.0
C      1  0.4863780000000  0.3631770000000  0.5119770000000 1.0
C      1  0.3656500000000  0.4706660000000  0.5119830000000 1.0
C      1  0.4305880000000  0.6187080000000  0.5119680000000 1.0
C      1  0.5914230000000  0.6026920000000  0.5119640000000 1.0
C      1  0.4132840000000  0.5142240000000  0.7120200000000 1.0
C      1  0.4867320000000  0.5868710000000  0.7120170000000 1.0
C      1  0.5785190000000  0.5394640000000  0.7120220000000 1.0
C      1  0.5617920000000  0.4375200000000  0.7120110000000 1.0
C      1  0.4596750000000  0.4219220000000  0.7120200000000 1.0
C      1  0.4780860000000  0.2535150000000  0.3908240000000 1.0
C      1  0.2588070000000  0.4446820000000  0.3908460000000 1.0
C      1  0.3728490000000  0.7122950000000  0.3908290000000 1.0
C      1  0.6626130000000  0.6865240000000  0.3908260000000 1.0
C      1  0.7276460000000  0.4029840000000  0.3908450000000 1.0
C      1  0.2852460000000  0.5698920000000  0.5497660000000 1.0
C      1  0.5001290000000  0.7258540000000  0.5497660000000 1.0
C      1  0.7148510000000  0.5696760000000  0.5497720000000 1.0
C      1  0.6326540000000  0.3172190000000  0.5497680000000 1.0
C      1  0.3671470000000  0.3173470000000  0.5497710000000 1.0
C      1  0.4065030000000  0.4802750000000  0.6048890000000 1.0
C      1  0.4523500000000  0.5828300000000  0.6048900000000 1.0
C      1  0.5640500000000  0.5709170000000  0.6048860000000 1.0
C      1  0.5872350000000  0.4610000000000  0.6048900000000 1.0
C      1  0.4898670000000  0.4049730000000  0.6048850000000 1.0
END
