TITL C-986975-4297-1179 1.31499874473213e-05 3375 -349.137492784616 0 0 60 (C1) n - 1
REM
REM in /home/bkarasulu/work/CARBON/AIRSS/Generating-Clusters/REBO/Higher-Symm/Only-C60
REM
REM
REM
REM
REM
REM ./C.cell (a2850807a9bf4ad07a5b6933b78d9264)
REM AIRSS Version 0.9.1 bugfix July 2018 build 013d7b7c2542+ Fri, 06 Jul 2018 19:26:36 +0100
REM compiler GCC version 9.2.1 20190827 (Red Hat 9.2.1-1)
REM options -cpp -mtune=generic -march=x86-64 -g -O0 -fpre-include=/usr/include/finclude/math-vector-fortran.h
REM seed 381165838 588131803 -311199656 -878287932 -1393640205 1481038259 -1668812920 -399247051 1598219647 1695153616 -1792006499 884577 1253175525 -1577363051 -117208542 -821153778 1135083265 -1228849164 205593461 1523443977 -1720778350 539234369 1083151825 -236259025 716623468 285953439 1176125617 -1321174888 -1414139403 1786275175 -474251398 -1184706787 -1563665590
REM
CELL 1.54180   15.00000   15.00000   15.00000   90.00000   90.00000   90.00000
LATT -1
SFAC C  
C      1  0.6063990000000  0.6609760000000  0.3728830000000 1.0
C      1  0.5983080000000  0.3192270000000  0.3589720000000 1.0
C      1  0.3075660000000  0.5055770000000  0.3780310000000 1.0
C      1  0.4092140000000  0.6645470000000  0.3789350000000 1.0
C      1  0.4080560000000  0.3196140000000  0.3637080000000 1.0
C      1  0.7000560000000  0.4990180000000  0.3688690000000 1.0
C      1  0.6559880000000  0.6497780000000  0.5774280000000 1.0
C      1  0.5483930000000  0.3065980000000  0.5746260000000 1.0
C      1  0.2924390000000  0.5759910000000  0.5922920000000 1.0
C      1  0.3472890000000  0.6530720000000  0.5944290000000 1.0
C      1  0.4547500000000  0.2950560000000  0.5844860000000 1.0
C      1  0.7021080000000  0.5671500000000  0.5768090000000 1.0
C      1  0.6510800000000  0.7286100000000  0.5244450000000 1.0
C      1  0.6203730000000  0.2700300000000  0.5250790000000 1.0
C      1  0.2411850000000  0.5083180000000  0.5384070000000 1.0
C      1  0.3602240000000  0.7302030000000  0.5387600000000 1.0
C      1  0.3850820000000  0.2576920000000  0.5286830000000 1.0
C      1  0.7670550000000  0.5189300000000  0.5267220000000 1.0
C      1  0.2520300000000  0.4018130000000  0.5090010000000 1.0
C      1  0.5524530000000  0.7757000000000  0.5034500000000 1.0
C      1  0.7119760000000  0.3285800000000  0.5015040000000 1.0
C      1  0.7593030000000  0.4086870000000  0.5049360000000 1.0
C      1  0.4594820000000  0.7746190000000  0.5103870000000 1.0
C      1  0.2969650000000  0.3209780000000  0.5045080000000 1.0
C      1  0.4446350000000  0.6264500000000  0.6247250000000 1.0
C      1  0.6436600000000  0.4941650000000  0.6228080000000 1.0
C      1  0.4061730000000  0.3856160000000  0.6185120000000 1.0
C      1  0.5639470000000  0.6418250000000  0.6256600000000 1.0
C      1  0.3307460000000  0.4788720000000  0.6323520000000 1.0
C      1  0.5787980000000  0.4024120000000  0.6045510000000 1.0
C      1  0.4565100000000  0.5878130000000  0.4242830000000 1.0
C      1  0.6104820000000  0.4906180000000  0.4142580000000 1.0
C      1  0.4500410000000  0.4025260000000  0.4032580000000 1.0
C      1  0.5615760000000  0.5857000000000  0.4223210000000 1.0
C      1  0.3967540000000  0.4965990000000  0.4259000000000 1.0
C      1  0.5566990000000  0.4034750000000  0.3917880000000 1.0
C      1  0.6347600000000  0.4893880000000  0.7344690000000 1.0
C      1  0.3754680000000  0.3873790000000  0.7180400000000 1.0
C      1  0.4742430000000  0.6363720000000  0.7239430000000 1.0
C      1  0.3153290000000  0.4533860000000  0.7363110000000 1.0
C      1  0.5813670000000  0.4176570000000  0.7117020000000 1.0
C      1  0.5634430000000  0.6510320000000  0.7341430000000 1.0
C      1  0.6561720000000  0.6361640000000  0.2971370000000 1.0
C      1  0.5483370000000  0.2752600000000  0.2923320000000 1.0
C      1  0.3063960000000  0.5641200000000  0.3047370000000 1.0
C      1  0.3565280000000  0.6411490000000  0.3045470000000 1.0
C      1  0.4563270000000  0.2786710000000  0.2939330000000 1.0
C      1  0.7024720000000  0.5567860000000  0.2946930000000 1.0
C      1  0.5944310000000  0.5080750000000  0.5252920000000 1.0
C      1  0.4367780000000  0.4053940000000  0.5132630000000 1.0
C      1  0.4309560000000  0.5733730000000  0.5291730000000 1.0
C      1  0.3768230000000  0.4880710000000  0.5384610000000 1.0
C      1  0.5401820000000  0.4167310000000  0.5000390000000 1.0
C      1  0.5357440000000  0.5948110000000  0.5326980000000 1.0
C      1  0.3547700000000  0.2734650000000  0.4256410000000 1.0
C      1  0.3917410000000  0.7369050000000  0.4352600000000 1.0
C      1  0.7720420000000  0.4813850000000  0.4259490000000 1.0
C      1  0.6541650000000  0.2793920000000  0.4228320000000 1.0
C      1  0.6166920000000  0.7386780000000  0.4233770000000 1.0
C      1  0.2370410000000  0.4795260000000  0.4342630000000 1.0
END
