TITL C-986974-580-659 0.103390029550055 3375 -343.395396680761 0 0 60 (C2) n - 1
REM
REM in /home/bkarasulu/work/CARBON/AIRSS/Generating-Clusters/REBO/Higher-Symm/Only-C60
REM
REM
REM
REM
REM
REM ./C.cell (a2850807a9bf4ad07a5b6933b78d9264)
REM AIRSS Version 0.9.1 bugfix July 2018 build 013d7b7c2542+ Fri, 06 Jul 2018 19:26:36 +0100
REM compiler GCC version 9.2.1 20190827 (Red Hat 9.2.1-1)
REM options -cpp -mtune=generic -march=x86-64 -g -O0 -fpre-include=/usr/include/finclude/math-vector-fortran.h
REM seed -83308817 855972687 -21754852 1408341169 -1696044190 -705320610 1269135178 735756010 -1753725021 1830292810 1053726511 915725663 -2081138315 508064806 1646174920 -1746777303 -96386198 -1208425154 -1775429799 903207653 1465621984 103652894 1543354102 -258105889 -1577620165 -554233166 1216833258 125801473 1305739897 75478406 -1520969087 187584631 -1228083174
REM
CELL 1.54180   15.00000   15.00000   15.00000   90.00000   90.00000   90.00000
LATT -1
SFAC C  
C      1  0.4699880000000  0.5707470000000  0.4612600000000 1.0
C      1  0.5300550000000  0.5707890000000  0.5387800000000 1.0
C      1  0.4664950000000  0.6994910000000  0.6204660000000 1.0
C      1  0.5334940000000  0.6994730000000  0.3795310000000 1.0
C      1  0.5789080000000  0.4429410000000  0.2999190000000 1.0
C      1  0.4210940000000  0.4429490000000  0.7000560000000 1.0
C      1  0.3042620000000  0.5254710000000  0.4043140000000 1.0
C      1  0.6957910000000  0.5255110000000  0.5956770000000 1.0
C      1  0.4561000000000  0.3523430000000  0.5898110000000 1.0
C      1  0.5438960000000  0.3523050000000  0.4101640000000 1.0
C      1  0.4006600000000  0.4692070000000  0.3445010000000 1.0
C      1  0.5993030000000  0.4691920000000  0.6554910000000 1.0
C      1  0.7629710000000  0.4905330000000  0.4533950000000 1.0
C      1  0.2369840000000  0.4905110000000  0.5465940000000 1.0
C      1  0.5130250000000  0.2911240000000  0.5462480000000 1.0
C      1  0.4869640000000  0.2911150000000  0.4537550000000 1.0
C      1  0.3351380000000  0.6446540000000  0.5331990000000 1.0
C      1  0.6648620000000  0.6446650000000  0.4668040000000 1.0
C      1  0.3839760000000  0.6805580000000  0.4570000000000 1.0
C      1  0.6160120000000  0.6805630000000  0.5429950000000 1.0
C      1  0.5059490000000  0.4903620000000  0.6422190000000 1.0
C      1  0.4940600000000  0.4903290000000  0.3577270000000 1.0
C      1  0.7041520000000  0.3983170000000  0.4261030000000 1.0
C      1  0.2958480000000  0.3983130000000  0.5738960000000 1.0
C      1  0.3689650000000  0.4811210000000  0.5623120000000 1.0
C      1  0.6310580000000  0.4811120000000  0.4376880000000 1.0
C      1  0.6226260000000  0.3767200000000  0.3553830000000 1.0
C      1  0.3773760000000  0.3767080000000  0.6446040000000 1.0
C      1  0.3063780000000  0.3447810000000  0.4888590000000 1.0
C      1  0.6936160000000  0.3447800000000  0.5111320000000 1.0
C      1  0.3749040000000  0.3115190000000  0.3235970000000 1.0
C      1  0.6250790000000  0.3115090000000  0.6764160000000 1.0
C      1  0.4746040000000  0.7240390000000  0.4588910000000 1.0
C      1  0.5253840000000  0.7240420000000  0.5411070000000 1.0
C      1  0.4698790000000  0.6212890000000  0.3745400000000 1.0
C      1  0.5301160000000  0.6213160000000  0.6254830000000 1.0
C      1  0.5580670000000  0.5468190000000  0.2848090000000 1.0
C      1  0.4419340000000  0.5468170000000  0.7151710000000 1.0
C      1  0.6351100000000  0.6172440000000  0.6236320000000 1.0
C      1  0.3648840000000  0.6172500000000  0.3763540000000 1.0
C      1  0.6243140000000  0.6672170000000  0.3799910000000 1.0
C      1  0.3756770000000  0.6672270000000  0.6200080000000 1.0
C      1  0.2349890000000  0.4984050000000  0.6793020000000 1.0
C      1  0.7650140000000  0.4984020000000  0.3207310000000 1.0
C      1  0.3653450000000  0.5975720000000  0.6842880000000 1.0
C      1  0.6346470000000  0.5975600000000  0.3157170000000 1.0
C      1  0.6052840000000  0.5120200000000  0.5368370000000 1.0
C      1  0.3947250000000  0.5120210000000  0.4632100000000 1.0
C      1  0.3173650000000  0.5233050000000  0.6468300000000 1.0
C      1  0.6826680000000  0.5232910000000  0.3532150000000 1.0
C      1  0.3881810000000  0.3089670000000  0.4271470000000 1.0
C      1  0.6117930000000  0.3089400000000  0.5728520000000 1.0
C      1  0.2803650000000  0.5642300000000  0.5070060000000 1.0
C      1  0.7196580000000  0.5642590000000  0.4930160000000 1.0
C      1  0.6179500000000  0.3874150000000  0.7147020000000 1.0
C      1  0.3820230000000  0.3874180000000  0.2853080000000 1.0
C      1  0.4763540000000  0.4492620000000  0.5465700000000 1.0
C      1  0.5236720000000  0.4493110000000  0.4533850000000 1.0
C      1  0.3295200000000  0.4123240000000  0.4057550000000 1.0
C      1  0.6704890000000  0.4123260000000  0.5942510000000 1.0
END
