TITL C-986973-6940-625 0.00209299552471028 3375 -339.409489496128 0 0 60 (C3) n - 1
REM
REM in /home/bkarasulu/work/CARBON/AIRSS/Generating-Clusters/REBO/Higher-Symm/Only-C60
REM
REM
REM
REM
REM
REM ./C.cell (a2850807a9bf4ad07a5b6933b78d9264)
REM AIRSS Version 0.9.1 bugfix July 2018 build 013d7b7c2542+ Fri, 06 Jul 2018 19:26:36 +0100
REM compiler GCC version 9.2.1 20190827 (Red Hat 9.2.1-1)
REM options -cpp -mtune=generic -march=x86-64 -g -O0 -fpre-include=/usr/include/finclude/math-vector-fortran.h
REM seed -741510711 -750231411 -1925267470 -944076758 1055740768 1450840164 1990559444 -1467798294 2028331920 -171851315 -1497279424 473231513 268264974 -1710936948 -1259139261 -1667039471 1615953043 1629595247 201846250 1498503262 -1324329727 1464930268 -1621441751 1549465450 693719040 1289999327 1573160614 1717848166 1858755874 -1755826419 1455365276 174731271 -1869264126
REM
CELL 1.54180   15.00000   15.00000   15.00000   90.00000   90.00000   90.00000
LATT -1
SFAC C  
C      1  0.4668540000000  0.7624190000000  0.4296740000000 1.0
C      1  0.4668540000000  0.4296930000000  0.7624240000000 1.0
C      1  0.4668570000000  0.3078880000000  0.3079000000000 1.0
C      1  0.4703710000000  0.4297850000000  0.4233690000000 1.0
C      1  0.4703680000000  0.6014720000000  0.4775070000000 1.0
C      1  0.4703660000000  0.4687440000000  0.5991250000000 1.0
C      1  0.2931340000000  0.5613020000000  0.4843820000000 1.0
C      1  0.2931340000000  0.4828720000000  0.5608970000000 1.0
C      1  0.2931350000000  0.4558240000000  0.4547180000000 1.0
C      1  0.4075730000000  0.5243440000000  0.4271360000000 1.0
C      1  0.4075720000000  0.5509280000000  0.5575150000000 1.0
C      1  0.4075730000000  0.4247260000000  0.5153490000000 1.0
C      1  0.6038510000000  0.2888250000000  0.5772770000000 1.0
C      1  0.6038500000000  0.5386650000000  0.2784770000000 1.0
C      1  0.6038490000000  0.6725120000000  0.6442470000000 1.0
C      1  0.7381370000000  0.4377240000000  0.5068410000000 1.0
C      1  0.7381370000000  0.5252160000000  0.4426480000000 1.0
C      1  0.7381370000000  0.5370620000000  0.5505150000000 1.0
C      1  0.4714130000000  0.5234260000000  0.7728950000000 1.0
C      1  0.4714160000000  0.2519530000000  0.3838390000000 1.0
C      1  0.4714130000000  0.7246210000000  0.3432640000000 1.0
C      1  0.6112240000000  0.6414660000000  0.3617950000000 1.0
C      1  0.6112240000000  0.5489570000000  0.6916150000000 1.0
C      1  0.6112260000000  0.3095790000000  0.4465910000000 1.0
C      1  0.5919100000000  0.4214430000000  0.5727620000000 1.0
C      1  0.5919090000000  0.4762640000000  0.3955910000000 1.0
C      1  0.5919070000000  0.6022910000000  0.5316510000000 1.0
C      1  0.5646390000000  0.4051910000000  0.4687410000000 1.0
C      1  0.5646380000000  0.5744770000000  0.4335240000000 1.0
C      1  0.5646380000000  0.5203330000000  0.5977380000000 1.0
C      1  0.3561100000000  0.5122470000000  0.6510650000000 1.0
C      1  0.3561100000000  0.3630480000000  0.4350730000000 1.0
C      1  0.3561100000000  0.6247020000000  0.4138590000000 1.0
C      1  0.3528410000000  0.4050100000000  0.6127930000000 1.0
C      1  0.3528430000000  0.4498120000000  0.3613390000000 1.0
C      1  0.3528410000000  0.6451760000000  0.5258660000000 1.0
C      1  0.5983810000000  0.4106110000000  0.3132960000000 1.0
C      1  0.5983780000000  0.7063870000000  0.5159400000000 1.0
C      1  0.5983790000000  0.3830020000000  0.6707670000000 1.0
C      1  0.5605930000000  0.5566270000000  0.7653090000000 1.0
C      1  0.5605960000000  0.2419230000000  0.4163860000000 1.0
C      1  0.5605940000000  0.7014500000000  0.3183050000000 1.0
C      1  0.4046800000000  0.5689900000000  0.7215110000000 1.0
C      1  0.4046820000000  0.2736700000000  0.4489910000000 1.0
C      1  0.4046810000000  0.6573390000000  0.3294960000000 1.0
C      1  0.4671910000000  0.3999180000000  0.6776650000000 1.0
C      1  0.4671940000000  0.3961790000000  0.3244940000000 1.0
C      1  0.4671910000000  0.7039040000000  0.4978400000000 1.0
C      1  0.4266470000000  0.2564430000000  0.5372440000000 1.0
C      1  0.4266460000000  0.5895230000000  0.2704500000000 1.0
C      1  0.4266450000000  0.6540330000000  0.6923030000000 1.0
C      1  0.6754470000000  0.5476230000000  0.3663360000000 1.0
C      1  0.6754460000000  0.5919460000000  0.6080750000000 1.0
C      1  0.6754460000000  0.3604320000000  0.5255920000000 1.0
C      1  0.5176810000000  0.6913200000000  0.6530960000000 1.0
C      1  0.5176820000000  0.2717550000000  0.5891400000000 1.0
C      1  0.5176820000000  0.5369240000000  0.2577650000000 1.0
C      1  0.4213250000000  0.7033370000000  0.5935830000000 1.0
C      1  0.4213260000000  0.3172850000000  0.6293030000000 1.0
C      1  0.4213260000000  0.4793770000000  0.2771120000000 1.0
END
