TITL C-986977-940-2 0.0375928951320473 3375 -342.275806040098 0 0 60 (Cs) n - 1
REM
REM in /home/bkarasulu/work/CARBON/AIRSS/Generating-Clusters/REBO/Higher-Symm/Only-C60
REM
REM
REM
REM
REM
REM ./C.cell (a2850807a9bf4ad07a5b6933b78d9264)
REM AIRSS Version 0.9.1 bugfix July 2018 build 013d7b7c2542+ Fri, 06 Jul 2018 19:26:36 +0100
REM compiler GCC version 9.2.1 20190827 (Red Hat 9.2.1-1)
REM options -cpp -mtune=generic -march=x86-64 -g -O0 -fpre-include=/usr/include/finclude/math-vector-fortran.h
REM seed 130104879 -1524226715 318081883 1904023371 1094537398 1453306256 -677593542 1136921509 965791513 1925139107 -2051160213 -1941680637 1561333046 -920544734 1092006201 -549047484 -2068175696 -252066597 -480143313 847314383 1964617532 -426577742 -813667360 -143463230 -1578100714 565119315 -806924078 -781314371 -1016394863 889107236 2060171670 1336126629 330913412
REM
CELL 1.54180   15.00000   15.00000   15.00000   90.00000   90.00000   90.00000
LATT -1
SFAC C  
C      1  0.4120610000000  0.2983860000000  0.5976300000000 1.0
C      1  0.5879580000000  0.2983130000000  0.5977740000000 1.0
C      1  0.5508060000000  0.5998840000000  0.6146640000000 1.0
C      1  0.4491970000000  0.5998850000000  0.6147040000000 1.0
C      1  0.2963130000000  0.5819990000000  0.5839740000000 1.0
C      1  0.7037070000000  0.5821010000000  0.5840450000000 1.0
C      1  0.6986020000000  0.5005070000000  0.3051790000000 1.0
C      1  0.3013700000000  0.5007290000000  0.3049050000000 1.0
C      1  0.4236570000000  0.5447370000000  0.5286990000000 1.0
C      1  0.5762860000000  0.5447900000000  0.5284670000000 1.0
C      1  0.3776800000000  0.4473810000000  0.5550940000000 1.0
C      1  0.6224040000000  0.4473490000000  0.5549730000000 1.0
C      1  0.3957890000000  0.3568130000000  0.4421720000000 1.0
C      1  0.6044550000000  0.3566960000000  0.4425320000000 1.0
C      1  0.4117910000000  0.4680440000000  0.4477440000000 1.0
C      1  0.5884190000000  0.4678740000000  0.4477440000000 1.0
C      1  0.7283680000000  0.5149940000000  0.4336590000000 1.0
C      1  0.2717420000000  0.5146630000000  0.4338650000000 1.0
C      1  0.3140590000000  0.5934770000000  0.3235440000000 1.0
C      1  0.6860730000000  0.5933160000000  0.3235990000000 1.0
C      1  0.6842260000000  0.5486520000000  0.6746190000000 1.0
C      1  0.3157740000000  0.5486210000000  0.6745940000000 1.0
C      1  0.4492000000000  0.6595120000000  0.3589300000000 1.0
C      1  0.5512820000000  0.6599700000000  0.3586890000000 1.0
C      1  0.2988250000000  0.4539520000000  0.6884190000000 1.0
C      1  0.7011790000000  0.4539750000000  0.6884210000000 1.0
C      1  0.4430560000000  0.6839990000000  0.5417430000000 1.0
C      1  0.5569610000000  0.6839860000000  0.5417060000000 1.0
C      1  0.5537990000000  0.3826920000000  0.3454990000000 1.0
C      1  0.4471650000000  0.3841980000000  0.3447040000000 1.0
C      1  0.4492870000000  0.5984670000000  0.4420680000000 1.0
C      1  0.5501540000000  0.5987870000000  0.4417810000000 1.0
C      1  0.6448380000000  0.4455470000000  0.3519210000000 1.0
C      1  0.3550340000000  0.4458410000000  0.3519650000000 1.0
C      1  0.4505240000000  0.3398330000000  0.6944490000000 1.0
C      1  0.5494840000000  0.3398410000000  0.6944870000000 1.0
C      1  0.5529660000000  0.5576060000000  0.2362980000000 1.0
C      1  0.4471910000000  0.5578110000000  0.2357590000000 1.0
C      1  0.6343280000000  0.3899270000000  0.6378950000000 1.0
C      1  0.3656720000000  0.3899070000000  0.6378790000000 1.0
C      1  0.7211230000000  0.4896580000000  0.5370570000000 1.0
C      1  0.2788250000000  0.4895050000000  0.5369200000000 1.0
C      1  0.4051790000000  0.5697180000000  0.6970080000000 1.0
C      1  0.5948110000000  0.5697120000000  0.6969800000000 1.0
C      1  0.4134510000000  0.4195690000000  0.7585570000000 1.0
C      1  0.5865500000000  0.4195840000000  0.7585810000000 1.0
C      1  0.4458070000000  0.4547430000000  0.2555190000000 1.0
C      1  0.5517250000000  0.4547170000000  0.2574990000000 1.0
C      1  0.6025430000000  0.6232850000000  0.2875670000000 1.0
C      1  0.3977370000000  0.6233410000000  0.2875790000000 1.0
C      1  0.5478350000000  0.3051600000000  0.5107690000000 1.0
C      1  0.4523350000000  0.3052170000000  0.5106270000000 1.0
C      1  0.3392650000000  0.6461470000000  0.5149980000000 1.0
C      1  0.6607710000000  0.6462280000000  0.5150380000000 1.0
C      1  0.5478650000000  0.5069460000000  0.7500290000000 1.0
C      1  0.4521300000000  0.5069380000000  0.7500370000000 1.0
C      1  0.6938360000000  0.6104520000000  0.4241640000000 1.0
C      1  0.3062410000000  0.6104490000000  0.4241080000000 1.0
C      1  0.7050040000000  0.4068890000000  0.4601260000000 1.0
C      1  0.2952840000000  0.4066840000000  0.4600410000000 1.0
END
