TITL C-986974-580-653 0.000502520655484794 3375 -355.893105001399 0 0 60 (C1) n - 1
REM
REM in /home/bkarasulu/work/CARBON/AIRSS/Generating-Clusters/REBO/Higher-Symm/Only-C60
REM
REM
REM
REM
REM
REM ./C.cell (a2850807a9bf4ad07a5b6933b78d9264)
REM AIRSS Version 0.9.1 bugfix July 2018 build 013d7b7c2542+ Fri, 06 Jul 2018 19:26:36 +0100
REM compiler GCC version 9.2.1 20190827 (Red Hat 9.2.1-1)
REM options -cpp -mtune=generic -march=x86-64 -g -O0 -fpre-include=/usr/include/finclude/math-vector-fortran.h
REM seed -267098413 -1900049210 771139775 1074198212 1039937191 -1809764751 -1887910646 -1337624859 -621794365 -2067592920 810822499 1470448986 31325486 677078342 -1996431683 -1060786703 -992121837 -390879186 2069827974 -681354602 105279862 1486273730 360347978 -151215576 540562983 -519167 1845114843 -129190021 365388052 -1895630391 541001346 274367285 18387713
REM
CELL 1.54180   15.00000   15.00000   15.00000   90.00000   90.00000   90.00000
LATT -1
SFAC C  
C      1  0.2631840000000  0.4604950000000  0.5865290000000 1.0
C      1  0.3813050000000  0.2861430000000  0.5823390000000 1.0
C      1  0.5872060000000  0.2660920000000  0.5780400000000 1.0
C      1  0.7331730000000  0.4268690000000  0.5819310000000 1.0
C      1  0.7000950000000  0.6338820000000  0.5843980000000 1.0
C      1  0.5244660000000  0.7431940000000  0.5804810000000 1.0
C      1  0.3210510000000  0.6695850000000  0.5801450000000 1.0
C      1  0.4752660000000  0.3716340000000  0.5142700000000 1.0
C      1  0.5836830000000  0.3976440000000  0.5127230000000 1.0
C      1  0.6316410000000  0.4999420000000  0.5122760000000 1.0
C      1  0.5803810000000  0.6006440000000  0.5122850000000 1.0
C      1  0.4698770000000  0.6240140000000  0.5152310000000 1.0
C      1  0.3847390000000  0.5514000000000  0.5187870000000 1.0
C      1  0.3873130000000  0.4393940000000  0.5182460000000 1.0
C      1  0.5402300000000  0.3193340000000  0.3685620000000 1.0
C      1  0.6655870000000  0.4169450000000  0.3679260000000 1.0
C      1  0.6674060000000  0.5760420000000  0.3679700000000 1.0
C      1  0.5439010000000  0.6762630000000  0.3692750000000 1.0
C      1  0.3888750000000  0.6418920000000  0.3716930000000 1.0
C      1  0.3189900000000  0.4999100000000  0.3729310000000 1.0
C      1  0.3859000000000  0.3564550000000  0.3709550000000 1.0
C      1  0.4567810000000  0.3075660000000  0.4267410000000 1.0
C      1  0.6225930000000  0.3435700000000  0.4253850000000 1.0
C      1  0.6980750000000  0.4963850000000  0.4249870000000 1.0
C      1  0.6256750000000  0.6504880000000  0.4256370000000 1.0
C      1  0.4600740000000  0.6897300000000  0.4274270000000 1.0
C      1  0.3266220000000  0.5843830000000  0.4303280000000 1.0
C      1  0.3253580000000  0.4145500000000  0.4297710000000 1.0
C      1  0.6849920000000  0.6831550000000  0.5090680000000 1.0
C      1  0.4721960000000  0.7593690000000  0.5075340000000 1.0
C      1  0.2762590000000  0.6381830000000  0.5072160000000 1.0
C      1  0.2575280000000  0.4082000000000  0.5122550000000 1.0
C      1  0.4189950000000  0.2493740000000  0.5080740000000 1.0
C      1  0.6416020000000  0.2754980000000  0.5055200000000 1.0
C      1  0.7615790000000  0.4709940000000  0.5074170000000 1.0
C      1  0.3884330000000  0.4994400000000  0.3031460000000 1.0
C      1  0.4297580000000  0.4114260000000  0.3020290000000 1.0
C      1  0.5245950000000  0.3886320000000  0.3004410000000 1.0
C      1  0.6016930000000  0.4484520000000  0.2997670000000 1.0
C      1  0.6026970000000  0.5460440000000  0.2998960000000 1.0
C      1  0.5268250000000  0.6075010000000  0.3008840000000 1.0
C      1  0.4315220000000  0.5866090000000  0.3024250000000 1.0
C      1  0.5656370000000  0.6606320000000  0.6001670000000 1.0
C      1  0.4110730000000  0.6525390000000  0.6013310000000 1.0
C      1  0.3283240000000  0.5207520000000  0.6055960000000 1.0
C      1  0.3762210000000  0.3743600000000  0.6033180000000 1.0
C      1  0.5139710000000  0.3214980000000  0.5999350000000 1.0
C      1  0.6445180000000  0.4016430000000  0.6010770000000 1.0
C      1  0.6631970000000  0.5488900000000  0.6026990000000 1.0
C      1  0.5387500000000  0.6046020000000  0.6752780000000 1.0
C      1  0.4436660000000  0.6101630000000  0.6802210000000 1.0
C      1  0.3858460000000  0.5240080000000  0.6978420000000 1.0
C      1  0.4153280000000  0.4168520000000  0.6939050000000 1.0
C      1  0.5124840000000  0.3768220000000  0.6777510000000 1.0
C      1  0.5896720000000  0.4327060000000  0.6758130000000 1.0
C      1  0.6001200000000  0.5292690000000  0.6756460000000 1.0
C      1  0.4681730000000  0.4911490000000  0.6260750000000 1.0
C      1  0.5092080000000  0.4997720000000  0.4595250000000 1.0
C      1  0.5032700000000  0.4979990000000  0.5478690000000 1.0
C      1  0.5020570000000  0.4981600000000  0.3728940000000 1.0
END
