TITL C-986974-580-357 0.00502455428441098 3375 -346.034145733084 0 0 60 (C3) n - 1
REM
REM in /home/bkarasulu/work/CARBON/AIRSS/Generating-Clusters/REBO/Higher-Symm/Only-C60
REM
REM
REM
REM
REM
REM ./C.cell (a2850807a9bf4ad07a5b6933b78d9264)
REM AIRSS Version 0.9.1 bugfix July 2018 build 013d7b7c2542+ Fri, 06 Jul 2018 19:26:36 +0100
REM compiler GCC version 9.2.1 20190827 (Red Hat 9.2.1-1)
REM options -cpp -mtune=generic -march=x86-64 -g -O0 -fpre-include=/usr/include/finclude/math-vector-fortran.h
REM seed -407926128 -1058042447 1757085987 1425499371 1312408438 281396891 -1148261276 -1811736480 1359268137 770470050 1259289495 -310239223 -880920577 -376054390 1503055921 -498696119 -932565128 -559366481 927045208 -1338108401 2095461643 -1712199220 1236003316 608809730 437195855 -1201153901 2118535056 -1103706691 -1282567920 1135915823 -1709980283 2030757273 405948188
REM
CELL 1.54180   15.00000   15.00000   15.00000   90.00000   90.00000   90.00000
LATT -1
SFAC C  
C      1  0.6273850000000  0.3014970000000  0.5685640000000 1.0
C      1  0.6081860000000  0.7095600000000  0.5685650000000 1.0
C      1  0.2644470000000  0.4889520000000  0.5685020000000 1.0
C      1  0.5421110000000  0.2895950000000  0.6423480000000 1.0
C      1  0.6611540000000  0.6416520000000  0.6423640000000 1.0
C      1  0.2967090000000  0.5687440000000  0.6423470000000 1.0
C      1  0.6896910000000  0.6524090000000  0.5139650000000 1.0
C      1  0.2731490000000  0.5881450000000  0.5139830000000 1.0
C      1  0.5371410000000  0.2594990000000  0.5139740000000 1.0
C      1  0.7030160000000  0.4794460000000  0.5728470000000 1.0
C      1  0.4162100000000  0.6861440000000  0.5728600000000 1.0
C      1  0.3806690000000  0.3345050000000  0.5728270000000 1.0
C      1  0.4939930000000  0.2793420000000  0.4291090000000 1.0
C      1  0.6941290000000  0.6051260000000  0.4290920000000 1.0
C      1  0.3120290000000  0.6155470000000  0.4291700000000 1.0
C      1  0.7305200000000  0.5857490000000  0.5850050000000 1.0
C      1  0.3104240000000  0.6567950000000  0.5850270000000 1.0
C      1  0.4589840000000  0.2575150000000  0.5849850000000 1.0
C      1  0.3337420000000  0.4864620000000  0.4535840000000 1.0
C      1  0.5948850000000  0.3627370000000  0.4535310000000 1.0
C      1  0.5714330000000  0.6507780000000  0.4534920000000 1.0
C      1  0.4584260000000  0.6281830000000  0.6473790000000 1.0
C      1  0.4097910000000  0.3999400000000  0.6474100000000 1.0
C      1  0.6317390000000  0.4719240000000  0.6473830000000 1.0
C      1  0.5638630000000  0.4852630000000  0.4115410000000 1.0
C      1  0.4808290000000  0.5626780000000  0.4115400000000 1.0
C      1  0.4553040000000  0.4520350000000  0.4115610000000 1.0
C      1  0.5238090000000  0.4400240000000  0.2929590000000 1.0
C      1  0.5400020000000  0.5505600000000  0.2929610000000 1.0
C      1  0.4361630000000  0.5093180000000  0.2929490000000 1.0
C      1  0.5059930000000  0.6463830000000  0.3390380000000 1.0
C      1  0.3701390000000  0.4320070000000  0.3391210000000 1.0
C      1  0.6238080000000  0.4215790000000  0.3390620000000 1.0
C      1  0.6275020000000  0.5089260000000  0.4927410000000 1.0
C      1  0.4284620000000  0.6060040000000  0.4927170000000 1.0
C      1  0.4440260000000  0.3850730000000  0.4927060000000 1.0
C      1  0.5168630000000  0.7330210000000  0.5468830000000 1.0
C      1  0.2897260000000  0.3981440000000  0.5467210000000 1.0
C      1  0.6933750000000  0.3688470000000  0.5468300000000 1.0
C      1  0.5345160000000  0.3495220000000  0.3604010000000 1.0
C      1  0.6130490000000  0.6050640000000  0.3603890000000 1.0
C      1  0.3524890000000  0.5453500000000  0.3604450000000 1.0
C      1  0.3951320000000  0.2902330000000  0.4489180000000 1.0
C      1  0.7341270000000  0.5140450000000  0.4489300000000 1.0
C      1  0.3707790000000  0.6957510000000  0.4489030000000 1.0
C      1  0.3861140000000  0.5174280000000  0.5234340000000 1.0
C      1  0.5418970000000  0.3926100000000  0.5233840000000 1.0
C      1  0.5720300000000  0.5899690000000  0.5233560000000 1.0
C      1  0.3036610000000  0.3220930000000  0.4650220000000 1.0
C      1  0.7521920000000  0.4188780000000  0.4650580000000 1.0
C      1  0.4442290000000  0.7589320000000  0.4650510000000 1.0
C      1  0.6061640000000  0.5587520000000  0.6794770000000 1.0
C      1  0.3960180000000  0.5626280000000  0.6795290000000 1.0
C      1  0.4977710000000  0.3786360000000  0.6795040000000 1.0
C      1  0.2901430000000  0.4049330000000  0.4133640000000 1.0
C      1  0.6872820000000  0.3658150000000  0.4132730000000 1.0
C      1  0.5225820000000  0.7292510000000  0.4132040000000 1.0
C      1  0.5399400000000  0.5954500000000  0.6135370000000 1.0
C      1  0.3974120000000  0.4869070000000  0.6136060000000 1.0
C      1  0.5626440000000  0.4176480000000  0.6135720000000 1.0
END
