TITL C-986974-580-712 -3.83124545789711e-06 3375 -344.731725250986 0 0 60 (C2) n - 1
REM
REM in /home/bkarasulu/work/CARBON/AIRSS/Generating-Clusters/REBO/Higher-Symm/Only-C60
REM
REM
REM
REM
REM
REM ./C.cell (a2850807a9bf4ad07a5b6933b78d9264)
REM AIRSS Version 0.9.1 bugfix July 2018 build 013d7b7c2542+ Fri, 06 Jul 2018 19:26:36 +0100
REM compiler GCC version 9.2.1 20190827 (Red Hat 9.2.1-1)
REM options -cpp -mtune=generic -march=x86-64 -g -O0 -fpre-include=/usr/include/finclude/math-vector-fortran.h
REM seed -919374922 124349010 1913464194 1257479848 -1927914973 1752975619 -1310034293 917620354 1032397106 -522535611 -674884476 1455082156 174985419 1549600427 -1072538742 -1006387672 90785057 1109170023 1140856683 -1478247530 -143452861 1316398873 -1023444376 -1935864741 -1530652450 -1097902779 -588799949 73210900 -902633537 2007392898 -1547966552 -1889454876 1465610761
REM
CELL 1.54180   15.00000   15.00000   15.00000   90.00000   90.00000   90.00000
LATT -1
SFAC C  
C      1  0.5141780000000  0.7180290000000  0.5137780000000 1.0
C      1  0.5333790000000  0.3915810000000  0.6763060000000 1.0
C      1  0.5191270000000  0.3985880000000  0.3024160000000 1.0
C      1  0.4858220000000  0.2819710000000  0.5137780000000 1.0
C      1  0.4666210000000  0.6084190000000  0.6763060000000 1.0
C      1  0.4808730000000  0.6014120000000  0.3024160000000 1.0
C      1  0.6635130000000  0.4070320000000  0.3564920000000 1.0
C      1  0.6654320000000  0.6683920000000  0.4924240000000 1.0
C      1  0.6610820000000  0.4197490000000  0.6507890000000 1.0
C      1  0.3364870000000  0.5929680000000  0.3564920000000 1.0
C      1  0.3345680000000  0.3316080000000  0.4924240000000 1.0
C      1  0.3389180000000  0.5802510000000  0.6507890000000 1.0
C      1  0.4170860000000  0.4462250000000  0.4435190000000 1.0
C      1  0.4165060000000  0.5741650000000  0.4781440000000 1.0
C      1  0.4128750000000  0.4795940000000  0.5716440000000 1.0
C      1  0.5829140000000  0.5537750000000  0.4435190000000 1.0
C      1  0.5834940000000  0.4258350000000  0.4781440000000 1.0
C      1  0.5871250000000  0.5204060000000  0.5716440000000 1.0
C      1  0.6135720000000  0.7237090000000  0.5581610000000 1.0
C      1  0.6226340000000  0.3278170000000  0.6809710000000 1.0
C      1  0.6182720000000  0.4306120000000  0.2686070000000 1.0
C      1  0.3864280000000  0.2762910000000  0.5581610000000 1.0
C      1  0.3773660000000  0.6721830000000  0.6809710000000 1.0
C      1  0.3817280000000  0.5693880000000  0.2686070000000 1.0
C      1  0.4470810000000  0.4768330000000  0.2718080000000 1.0
C      1  0.4424450000000  0.7121630000000  0.5971830000000 1.0
C      1  0.4545250000000  0.3231200000000  0.6360030000000 1.0
C      1  0.5529190000000  0.5231670000000  0.2718080000000 1.0
C      1  0.5575550000000  0.2878370000000  0.5971830000000 1.0
C      1  0.5454750000000  0.6768800000000  0.6360030000000 1.0
C      1  0.6228120000000  0.4965070000000  0.6975250000000 1.0
C      1  0.6222060000000  0.3268040000000  0.3987080000000 1.0
C      1  0.6234100000000  0.6732000000000  0.4023680000000 1.0
C      1  0.3771880000000  0.5034930000000  0.6975250000000 1.0
C      1  0.3777940000000  0.6731960000000  0.3987080000000 1.0
C      1  0.3765900000000  0.3268000000000  0.4023680000000 1.0
C      1  0.4641720000000  0.2879050000000  0.4118720000000 1.0
C      1  0.4647390000000  0.6856330000000  0.3593730000000 1.0
C      1  0.4630020000000  0.5277010000000  0.7419470000000 1.0
C      1  0.5358280000000  0.7120950000000  0.4118720000000 1.0
C      1  0.5352610000000  0.3143670000000  0.3593730000000 1.0
C      1  0.5369980000000  0.4722990000000  0.7419470000000 1.0
C      1  0.6665190000000  0.4147670000000  0.5551880000000 1.0
C      1  0.6684750000000  0.4930880000000  0.3997730000000 1.0
C      1  0.6746420000000  0.5882780000000  0.5465400000000 1.0
C      1  0.3334810000000  0.5852330000000  0.5551880000000 1.0
C      1  0.3315250000000  0.5069120000000  0.3997730000000 1.0
C      1  0.3253580000000  0.4117220000000  0.5465400000000 1.0
C      1  0.3778860000000  0.4058650000000  0.6472830000000 1.0
C      1  0.3780390000000  0.4204470000000  0.3420210000000 1.0
C      1  0.3810200000000  0.6772600000000  0.5084360000000 1.0
C      1  0.6221140000000  0.5941350000000  0.6472830000000 1.0
C      1  0.6219610000000  0.5795530000000  0.3420210000000 1.0
C      1  0.6189800000000  0.3227400000000  0.5084360000000 1.0
C      1  0.4627500000000  0.5664270000000  0.5815070000000 1.0
C      1  0.4608810000000  0.3910420000000  0.5164130000000 1.0
C      1  0.4609740000000  0.5390590000000  0.3928030000000 1.0
C      1  0.5372500000000  0.4335730000000  0.5815070000000 1.0
C      1  0.5391190000000  0.6089580000000  0.5164130000000 1.0
C      1  0.5390260000000  0.4609410000000  0.3928030000000 1.0
END
