TITL C-986978-6805-1113 4.28838416176613e-06 3375 -355.77454388002 0 0 60 (Cs) n - 1
REM
REM in /home/bkarasulu/work/CARBON/AIRSS/Generating-Clusters/REBO/Higher-Symm/Only-C60
REM
REM
REM
REM
REM
REM ./C.cell (a2850807a9bf4ad07a5b6933b78d9264)
REM AIRSS Version 0.9.1 bugfix July 2018 build 013d7b7c2542+ Fri, 06 Jul 2018 19:26:36 +0100
REM compiler GCC version 9.2.1 20190827 (Red Hat 9.2.1-1)
REM options -cpp -mtune=generic -march=x86-64 -g -O0 -fpre-include=/usr/include/finclude/math-vector-fortran.h
REM seed 1403861881 -1819882683 -1069222104 771311602 1192855586 1577825205 -373091452 1207488908 -1772713731 304579175 1697080718 -369824881 238529761 -59090266 1843113912 -1384440107 1917070973 -1068420958 389980237 -73950730 -1695275251 -265108795 495501982 -1173800086 1096689555 -516473996 -1987605564 498895413 1461105868 1405465968 -1034635200 -1738112526 53168258
REM
CELL 1.54180   15.00000   15.00000   15.00000   90.00000   90.00000   90.00000
LATT -1
SFAC C  
C      1  0.5448870000000  0.2753540000000  0.7687460000000 1.0
C      1  0.4551690000000  0.7164250000000  0.7596600000000 1.0
C      1  0.4550960000000  0.2753600000000  0.7687470000000 1.0
C      1  0.5448630000000  0.7164180000000  0.7596580000000 1.0
C      1  0.5490310000000  0.6058230000000  0.5265620000000 1.0
C      1  0.4505250000000  0.4148470000000  0.5319270000000 1.0
C      1  0.4509830000000  0.6058300000000  0.5265630000000 1.0
C      1  0.5494660000000  0.4148410000000  0.5319250000000 1.0
C      1  0.2891580000000  0.6239910000000  0.3860350000000 1.0
C      1  0.7138960000000  0.3411190000000  0.3815520000000 1.0
C      1  0.7108550000000  0.6239640000000  0.3860290000000 1.0
C      1  0.2860800000000  0.3411470000000  0.3815600000000 1.0
C      1  0.5870280000000  0.5579640000000  0.4425460000000 1.0
C      1  0.4087780000000  0.4539730000000  0.4447170000000 1.0
C      1  0.4129780000000  0.5579760000000  0.4425490000000 1.0
C      1  0.5912150000000  0.4539610000000  0.4447140000000 1.0
C      1  0.5838530000000  0.4576950000000  0.2722940000000 1.0
C      1  0.4162090000000  0.5541090000000  0.2708920000000 1.0
C      1  0.4161340000000  0.4577060000000  0.2722960000000 1.0
C      1  0.5837910000000  0.5540990000000  0.2708900000000 1.0
C      1  0.5465330000000  0.4177180000000  0.1931420000000 1.0
C      1  0.4534870000000  0.5920150000000  0.1908030000000 1.0
C      1  0.4534470000000  0.4177240000000  0.1931430000000 1.0
C      1  0.5465150000000  0.5920100000000  0.1908020000000 1.0
C      1  0.5880320000000  0.4643700000000  0.6089650000000 1.0
C      1  0.4173900000000  0.5617650000000  0.6076070000000 1.0
C      1  0.4119670000000  0.4643810000000  0.6089680000000 1.0
C      1  0.5826200000000  0.5617550000000  0.6076050000000 1.0
C      1  0.3263890000000  0.5496430000000  0.6627070000000 1.0
C      1  0.6696120000000  0.4361820000000  0.6625950000000 1.0
C      1  0.6736220000000  0.5496210000000  0.6627020000000 1.0
C      1  0.3303850000000  0.4362030000000  0.6626010000000 1.0
C      1  0.3258390000000  0.6948610000000  0.5717340000000 1.0
C      1  0.6583350000000  0.3000720000000  0.5750430000000 1.0
C      1  0.6741870000000  0.6948400000000  0.5717290000000 1.0
C      1  0.3416440000000  0.3000920000000  0.5750490000000 1.0
C      1  0.6142020000000  0.6823520000000  0.4977390000000 1.0
C      1  0.3956460000000  0.3304820000000  0.5029560000000 1.0
C      1  0.3858210000000  0.6823660000000  0.4977420000000 1.0
C      1  0.6043330000000  0.3304690000000  0.5029520000000 1.0
C      1  0.6262600000000  0.6959310000000  0.7273550000000 1.0
C      1  0.3745720000000  0.2961360000000  0.7341770000000 1.0
C      1  0.3737690000000  0.6959480000000  0.7273590000000 1.0
C      1  0.6254130000000  0.2961200000000  0.7341730000000 1.0
C      1  0.3048490000000  0.5320930000000  0.4184480000000 1.0
C      1  0.6993790000000  0.4329890000000  0.4180760000000 1.0
C      1  0.6951530000000  0.5320690000000  0.4184420000000 1.0
C      1  0.3006100000000  0.4330150000000  0.4180820000000 1.0
C      1  0.6752980000000  0.6525900000000  0.6590090000000 1.0
C      1  0.3304580000000  0.3391630000000  0.6625700000000 1.0
C      1  0.3247240000000  0.6526120000000  0.6590140000000 1.0
C      1  0.6695280000000  0.3391420000000  0.6625640000000 1.0
C      1  0.4485240000000  0.4065330000000  0.3570620000000 1.0
C      1  0.5520900000000  0.6079500000000  0.3548430000000 1.0
C      1  0.5514590000000  0.4065270000000  0.3570600000000 1.0
C      1  0.4479190000000  0.6079570000000  0.3548450000000 1.0
C      1  0.3833890000000  0.3290190000000  0.4080750000000 1.0
C      1  0.6295290000000  0.6768320000000  0.4021640000000 1.0
C      1  0.6165860000000  0.3290040000000  0.4080710000000 1.0
C      1  0.3704900000000  0.6768490000000  0.4021680000000 1.0
END
