TITL C-986979-5873-380 0.00941598911181952 3375 -358.223993981039 0 0 60 (C1) n - 1
REM
REM in /home/bkarasulu/work/CARBON/AIRSS/Generating-Clusters/REBO/Higher-Symm/Only-C60
REM
REM
REM
REM
REM
REM ./C.cell (a2850807a9bf4ad07a5b6933b78d9264)
REM AIRSS Version 0.9.1 bugfix July 2018 build 013d7b7c2542+ Fri, 06 Jul 2018 19:26:36 +0100
REM compiler GCC version 9.2.1 20190827 (Red Hat 9.2.1-1)
REM options -cpp -mtune=generic -march=x86-64 -g -O0 -fpre-include=/usr/include/finclude/math-vector-fortran.h
REM seed 1132530576 575733597 -1753744036 2049396829 -1670053825 -1381365083 -1318140118 180879731 933406909 757869075 289843258 1351955234 1936832164 -853659185 -654335877 2104823803 229506254 919947370 720103002 -1304923246 2060451957 2105402721 329979402 366067158 852026835 131109919 1954766877 556530097 -1025723041 534563908 -2044831714 -2113095939 -1694469366
REM
CELL 1.54180   15.00000   15.00000   15.00000   90.00000   90.00000   90.00000
LATT -1
SFAC C  
C      1  0.4490750000000  0.4227050000000  0.2969210000000 1.0
C      1  0.4464230000000  0.6673050000000  0.3596060000000 1.0
C      1  0.4497830000000  0.6858760000000  0.6155830000000 1.0
C      1  0.4524100000000  0.4477960000000  0.7079190000000 1.0
C      1  0.4548540000000  0.2912630000000  0.5101890000000 1.0
C      1  0.5481880000000  0.4191690000000  0.2989990000000 1.0
C      1  0.5446300000000  0.6627520000000  0.3684670000000 1.0
C      1  0.5486880000000  0.6791160000000  0.6184690000000 1.0
C      1  0.5513840000000  0.4431770000000  0.7116160000000 1.0
C      1  0.5530090000000  0.2826210000000  0.5152200000000 1.0
C      1  0.3847920000000  0.6280010000000  0.6620390000000 1.0
C      1  0.3870860000000  0.3870680000000  0.6668720000000 1.0
C      1  0.3855730000000  0.3041660000000  0.4406500000000 1.0
C      1  0.3805500000000  0.4948920000000  0.2859950000000 1.0
C      1  0.3821220000000  0.6968870000000  0.4285960000000 1.0
C      1  0.6166840000000  0.6244810000000  0.6666180000000 1.0
C      1  0.6191980000000  0.3784000000000  0.6763340000000 1.0
C      1  0.6169980000000  0.3000180000000  0.4421570000000 1.0
C      1  0.6129300000000  0.4932860000000  0.2975800000000 1.0
C      1  0.6133600000000  0.6917450000000  0.4335020000000 1.0
C      1  0.2978600000000  0.4755600000000  0.3317970000000 1.0
C      1  0.2988370000000  0.6501510000000  0.4253470000000 1.0
C      1  0.3014300000000  0.6169330000000  0.6170160000000 1.0
C      1  0.3027080000000  0.4251220000000  0.6452790000000 1.0
C      1  0.3017310000000  0.3369500000000  0.4724740000000 1.0
C      1  0.6970890000000  0.4751620000000  0.3380320000000 1.0
C      1  0.6974490000000  0.6471390000000  0.4269210000000 1.0
C      1  0.6998870000000  0.6156680000000  0.6201920000000 1.0
C      1  0.7019420000000  0.4207870000000  0.6506300000000 1.0
C      1  0.7004620000000  0.3354070000000  0.4720490000000 1.0
C      1  0.4219590000000  0.3415970000000  0.5912270000000 1.0
C      1  0.4155000000000  0.3616940000000  0.3705530000000 1.0
C      1  0.4119370000000  0.5799070000000  0.3203010000000 1.0
C      1  0.4169110000000  0.6928980000000  0.5200970000000 1.0
C      1  0.4203200000000  0.5408850000000  0.6845450000000 1.0
C      1  0.5874780000000  0.3300090000000  0.5984820000000 1.0
C      1  0.5813970000000  0.3571680000000  0.3719120000000 1.0
C      1  0.5775460000000  0.5745210000000  0.3320600000000 1.0
C      1  0.5822320000000  0.6849370000000  0.5231100000000 1.0
C      1  0.5858390000000  0.5362990000000  0.6892380000000 1.0
C      1  0.7371890000000  0.4139620000000  0.5437520000000 1.0
C      1  0.7381230000000  0.4331140000000  0.4336550000000 1.0
C      1  0.7376750000000  0.5430590000000  0.4171970000000 1.0
C      1  0.7371830000000  0.5925100000000  0.5169160000000 1.0
C      1  0.7371640000000  0.5127300000000  0.5953350000000 1.0
C      1  0.2623960000000  0.4162050000000  0.5410960000000 1.0
C      1  0.2629330000000  0.4339530000000  0.4308200000000 1.0
C      1  0.2627400000000  0.5441840000000  0.4141450000000 1.0
C      1  0.2617850000000  0.5939970000000  0.5143210000000 1.0
C      1  0.2620320000000  0.5150130000000  0.5924340000000 1.0
C      1  0.4518760000000  0.5166250000000  0.5857470000000 1.0
C      1  0.4631730000000  0.4234410000000  0.5331450000000 1.0
C      1  0.4453980000000  0.4454940000000  0.4282150000000 1.0
C      1  0.4276720000000  0.5487280000000  0.4175730000000 1.0
C      1  0.4419710000000  0.5917190000000  0.5111900000000 1.0
C      1  0.5600310000000  0.5015710000000  0.5922370000000 1.0
C      1  0.5720790000000  0.4126090000000  0.5375940000000 1.0
C      1  0.5540190000000  0.4356440000000  0.4368420000000 1.0
C      1  0.5364530000000  0.5424230000000  0.4275200000000 1.0
C      1  0.5498550000000  0.5835010000000  0.5256700000000 1.0
END
