TITL C-986978-6805-971 0.0912517633576065 3375 -329.647534943637 0 0 60 (Ci) n - 1
REM
REM in /home/bkarasulu/work/CARBON/AIRSS/Generating-Clusters/REBO/Higher-Symm/Only-C60
REM
REM
REM
REM
REM
REM ./C.cell (a2850807a9bf4ad07a5b6933b78d9264)
REM AIRSS Version 0.9.1 bugfix July 2018 build 013d7b7c2542+ Fri, 06 Jul 2018 19:26:36 +0100
REM compiler GCC version 9.2.1 20190827 (Red Hat 9.2.1-1)
REM options -cpp -mtune=generic -march=x86-64 -g -O0 -fpre-include=/usr/include/finclude/math-vector-fortran.h
REM seed 573126801 118304653 1392619377 -1694370212 197343569 -82726454 1275798213 -1524879590 -1682396326 -112418131 -935691708 1593283562 1144569680 1112150536 -1394782226 -704133466 -13411347 1358070367 -1320319446 -564295896 -1283629555 108472233 -1149454574 -182582904 159137683 -1372243599 2120954226 110649359 -1305850773 -2136764578 403973003 511695948 -1262511213
REM
CELL 1.54180   15.00000   15.00000   15.00000   90.00000   90.00000   90.00000
LATT -1
SFAC C  
C      1  0.4206570000000  0.5290680000000  0.4476630000000 1.0
C      1  0.5793180000000  0.4709390000000  0.5523530000000 1.0
C      1  0.4273310000000  0.5324720000000  0.2494120000000 1.0
C      1  0.5726850000000  0.4675190000000  0.7505790000000 1.0
C      1  0.5780470000000  0.4258480000000  0.4501600000000 1.0
C      1  0.4219650000000  0.5741570000000  0.5498610000000 1.0
C      1  0.3619690000000  0.3275020000000  0.3470090000000 1.0
C      1  0.6380210000000  0.6725020000000  0.6529870000000 1.0
C      1  0.6196220000000  0.3267240000000  0.4137230000000 1.0
C      1  0.3803710000000  0.6733030000000  0.5862700000000 1.0
C      1  0.4825360000000  0.7128970000000  0.5755610000000 1.0
C      1  0.5174620000000  0.2871150000000  0.4244260000000 1.0
C      1  0.4232690000000  0.4792540000000  0.6880940000000 1.0
C      1  0.5767330000000  0.5207340000000  0.3119110000000 1.0
C      1  0.4674190000000  0.4395020000000  0.4678930000000 1.0
C      1  0.5325950000000  0.5605060000000  0.5321110000000 1.0
C      1  0.3018200000000  0.6245300000000  0.5225330000000 1.0
C      1  0.6981760000000  0.3754540000000  0.4774570000000 1.0
C      1  0.5922820000000  0.7079790000000  0.3647760000000 1.0
C      1  0.4077000000000  0.2920210000000  0.6352570000000 1.0
C      1  0.6261910000000  0.7012780000000  0.4728880000000 1.0
C      1  0.3738100000000  0.2987200000000  0.5271410000000 1.0
C      1  0.5747220000000  0.5907700000000  0.7009420000000 1.0
C      1  0.4252800000000  0.4092230000000  0.2990530000000 1.0
C      1  0.7122800000000  0.5323880000000  0.5191090000000 1.0
C      1  0.2877260000000  0.4675920000000  0.4808750000000 1.0
C      1  0.5637710000000  0.7883030000000  0.3327750000000 1.0
C      1  0.4361810000000  0.2116980000000  0.6672840000000 1.0
C      1  0.6013700000000  0.2387980000000  0.4841500000000 1.0
C      1  0.3986390000000  0.7612070000000  0.5158200000000 1.0
C      1  0.4580100000000  0.3815680000000  0.6716840000000 1.0
C      1  0.5419960000000  0.6184210000000  0.3283210000000 1.0
C      1  0.6727810000000  0.4937560000000  0.6035850000000 1.0
C      1  0.3272040000000  0.5062500000000  0.3963920000000 1.0
C      1  0.5600300000000  0.3719220000000  0.6946160000000 1.0
C      1  0.4399800000000  0.6280650000000  0.3053760000000 1.0
C      1  0.3562090000000  0.6847060000000  0.4566780000000 1.0
C      1  0.6437970000000  0.3152870000000  0.5433110000000 1.0
C      1  0.3060460000000  0.3815850000000  0.5111030000000 1.0
C      1  0.6939690000000  0.6184100000000  0.4889060000000 1.0
C      1  0.2953400000000  0.5332260000000  0.5496630000000 1.0
C      1  0.7046670000000  0.4667900000000  0.4503530000000 1.0
C      1  0.5171830000000  0.6820450000000  0.4797910000000 1.0
C      1  0.4828150000000  0.3179550000000  0.5202000000000 1.0
C      1  0.5503330000000  0.6375510000000  0.6013480000000 1.0
C      1  0.4496530000000  0.3624590000000  0.3986580000000 1.0
C      1  0.4913180000000  0.5277030000000  0.7328910000000 1.0
C      1  0.5086910000000  0.4722850000000  0.2671130000000 1.0
C      1  0.4366830000000  0.4090420000000  0.5658400000000 1.0
C      1  0.5633220000000  0.5909580000000  0.4341690000000 1.0
C      1  0.4379020000000  0.6317790000000  0.4160420000000 1.0
C      1  0.5621030000000  0.3682130000000  0.5839470000000 1.0
C      1  0.3365460000000  0.5881670000000  0.3190080000000 1.0
C      1  0.6634570000000  0.4118300000000  0.6809630000000 1.0
C      1  0.3379450000000  0.3798660000000  0.6153140000000 1.0
C      1  0.6620580000000  0.6201430000000  0.3846960000000 1.0
C      1  0.3669880000000  0.5139340000000  0.6230510000000 1.0
C      1  0.6330190000000  0.4860850000000  0.3769320000000 1.0
C      1  0.6615870000000  0.5215200000000  0.7107830000000 1.0
C      1  0.3384190000000  0.4784750000000  0.2891930000000 1.0
END
