TITL C-986976-6631-245 0.112978878091945 3375 -332.995696338012 0 0 60 (S4) n - 1
REM
REM in /home/bkarasulu/work/CARBON/AIRSS/Generating-Clusters/REBO/Higher-Symm/Only-C60
REM
REM
REM
REM
REM
REM ./C.cell (a2850807a9bf4ad07a5b6933b78d9264)
REM AIRSS Version 0.9.1 bugfix July 2018 build 013d7b7c2542+ Fri, 06 Jul 2018 19:26:36 +0100
REM compiler GCC version 9.2.1 20190827 (Red Hat 9.2.1-1)
REM options -cpp -mtune=generic -march=x86-64 -g -O0 -fpre-include=/usr/include/finclude/math-vector-fortran.h
REM seed -394213793 -426035575 -1422039140 -1496899987 164796094 -1359302803 865538743 1185741552 927579986 171508699 -1183995841 1158829005 485055765 1485039557 703265335 1773078198 1653452468 280978992 -1047844271 -1916287050 882863215 -1122029128 -266822968 614054692 -610198083 -838921380 855289635 1626425307 -1933773257 1129157759 1408610219 -1305257350 1829170709
REM
CELL 1.54180   15.00000   15.00000   15.00000   90.00000   90.00000   90.00000
LATT -1
SFAC C  
C      1  0.3596160000000  0.6971670000000  0.5801760000000 1.0
C      1  0.4198490000000  0.3028200000000  0.3596110000000 1.0
C      1  0.6403870000000  0.6971780000000  0.4198380000000 1.0
C      1  0.5801540000000  0.3028580000000  0.6404090000000 1.0
C      1  0.3270710000000  0.6253530000000  0.6442320000000 1.0
C      1  0.3557510000000  0.3746200000000  0.3270890000000 1.0
C      1  0.6728450000000  0.6253870000000  0.3558970000000 1.0
C      1  0.6441920000000  0.3746820000000  0.6729040000000 1.0
C      1  0.5932340000000  0.3299800000000  0.2612790000000 1.0
C      1  0.7386940000000  0.6700500000000  0.5932330000000 1.0
C      1  0.4067600000000  0.3299130000000  0.7387220000000 1.0
C      1  0.2612690000000  0.6700630000000  0.4067680000000 1.0
C      1  0.5666470000000  0.7155940000000  0.6340180000000 1.0
C      1  0.3659410000000  0.2843560000000  0.5666240000000 1.0
C      1  0.4333670000000  0.7156670000000  0.3659180000000 1.0
C      1  0.6340540000000  0.2843720000000  0.4333540000000 1.0
C      1  0.6764990000000  0.4291210000000  0.4735960000000 1.0
C      1  0.5264020000000  0.5708590000000  0.6765050000000 1.0
C      1  0.3235160000000  0.4291190000000  0.5264190000000 1.0
C      1  0.4735880000000  0.5708940000000  0.3235160000000 1.0
C      1  0.4113050000000  0.6240590000000  0.3634310000000 1.0
C      1  0.6365580000000  0.3759840000000  0.4113140000000 1.0
C      1  0.5887030000000  0.6239750000000  0.6365650000000 1.0
C      1  0.3634240000000  0.3759470000000  0.5887010000000 1.0
C      1  0.4157240000000  0.5780370000000  0.6904460000000 1.0
C      1  0.3095670000000  0.4219890000000  0.4158010000000 1.0
C      1  0.5842230000000  0.5780820000000  0.3095870000000 1.0
C      1  0.6904190000000  0.4219930000000  0.5842540000000 1.0
C      1  0.5870480000000  0.4539360000000  0.7168690000000 1.0
C      1  0.2831260000000  0.5460500000000  0.5870680000000 1.0
C      1  0.4129240000000  0.4539280000000  0.2831400000000 1.0
C      1  0.7168280000000  0.5460400000000  0.4128770000000 1.0
C      1  0.4954790000000  0.7752640000000  0.3924220000000 1.0
C      1  0.6074990000000  0.2247750000000  0.4954270000000 1.0
C      1  0.5046030000000  0.7752070000000  0.6073840000000 1.0
C      1  0.3924620000000  0.2247580000000  0.5045360000000 1.0
C      1  0.6715330000000  0.6063280000000  0.5751380000000 1.0
C      1  0.4248820000000  0.3936150000000  0.6715290000000 1.0
C      1  0.3284990000000  0.6063670000000  0.4248920000000 1.0
C      1  0.5751210000000  0.3936680000000  0.3284840000000 1.0
C      1  0.7116480000000  0.5243310000000  0.5189300000000 1.0
C      1  0.4810090000000  0.4757120000000  0.7117270000000 1.0
C      1  0.2883390000000  0.5242040000000  0.4809760000000 1.0
C      1  0.5189300000000  0.4757110000000  0.2883260000000 1.0
C      1  0.4169790000000  0.7692020000000  0.5851000000000 1.0
C      1  0.4148580000000  0.2307560000000  0.4169370000000 1.0
C      1  0.5830700000000  0.7692450000000  0.4148400000000 1.0
C      1  0.5851430000000  0.2307730000000  0.5830450000000 1.0
C      1  0.6062340000000  0.5223040000000  0.4037200000000 1.0
C      1  0.5963050000000  0.4777370000000  0.6060890000000 1.0
C      1  0.3939290000000  0.5222600000000  0.5962490000000 1.0
C      1  0.4037560000000  0.4777390000000  0.3939510000000 1.0
C      1  0.4766940000000  0.3902330000000  0.3808740000000 1.0
C      1  0.6191960000000  0.6097260000000  0.4766050000000 1.0
C      1  0.5233860000000  0.3902490000000  0.6191710000000 1.0
C      1  0.3808720000000  0.6097690000000  0.5233640000000 1.0
C      1  0.5603090000000  0.5327100000000  0.5274430000000 1.0
C      1  0.4726430000000  0.4672940000000  0.5603540000000 1.0
C      1  0.4396290000000  0.5327160000000  0.4726860000000 1.0
C      1  0.5273080000000  0.4672730000000  0.4396400000000 1.0
END
