TITL C-986973-6940-559 2.04538864838628e-06 3375 -342.046753080383 0 0 60 (C1) n - 1
REM
REM in /home/bkarasulu/work/CARBON/AIRSS/Generating-Clusters/REBO/Higher-Symm/Only-C60
REM
REM
REM
REM
REM
REM ./C.cell (a2850807a9bf4ad07a5b6933b78d9264)
REM AIRSS Version 0.9.1 bugfix July 2018 build 013d7b7c2542+ Fri, 06 Jul 2018 19:26:36 +0100
REM compiler GCC version 9.2.1 20190827 (Red Hat 9.2.1-1)
REM options -cpp -mtune=generic -march=x86-64 -g -O0 -fpre-include=/usr/include/finclude/math-vector-fortran.h
REM seed -1399854411 1600585863 -755570911 -1395794186 1409081486 -1538756700 -2013638122 -565136420 1268064571 -1604456104 -2126425160 1399564680 -386520773 433349954 -1576040255 -1064060623 -122666298 2008899485 -1185042060 -873178807 -2068753750 1708633190 -2078968360 841087596 1396425304 -1230615979 -1431862802 -1193928105 -719671266 309677186 -1569881332 1311717541 -1748864333
REM
CELL 1.54180   15.00000   15.00000   15.00000   90.00000   90.00000   90.00000
LATT -1
SFAC C  
C      1  0.6389190000000  0.2330670000000  0.5180230000000 1.0
C      1  0.4007750000000  0.4859190000000  0.4426790000000 1.0
C      1  0.5079180000000  0.6887920000000  0.6643230000000 1.0
C      1  0.5898130000000  0.6870630000000  0.4496850000000 1.0
C      1  0.3030580000000  0.4512790000000  0.4621470000000 1.0
C      1  0.6446560000000  0.4079110000000  0.7242870000000 1.0
C      1  0.6612930000000  0.3395760000000  0.5027550000000 1.0
C      1  0.6074760000000  0.5524010000000  0.3174850000000 1.0
C      1  0.5376380000000  0.4026860000000  0.2660420000000 1.0
C      1  0.5516230000000  0.5048010000000  0.6457420000000 1.0
C      1  0.4904760000000  0.6898620000000  0.4144200000000 1.0
C      1  0.3001170000000  0.3555060000000  0.4792090000000 1.0
C      1  0.4197200000000  0.6946820000000  0.3274400000000 1.0
C      1  0.7469150000000  0.5773880000000  0.5979040000000 1.0
C      1  0.4443520000000  0.6106530000000  0.5514570000000 1.0
C      1  0.6931890000000  0.5807500000000  0.6715980000000 1.0
C      1  0.5907690000000  0.5921330000000  0.7673110000000 1.0
C      1  0.6438210000000  0.4977000000000  0.6896240000000 1.0
C      1  0.3374400000000  0.3670020000000  0.3200130000000 1.0
C      1  0.6258590000000  0.4652690000000  0.2611390000000 1.0
C      1  0.3938030000000  0.3305560000000  0.5242430000000 1.0
C      1  0.3674020000000  0.4564590000000  0.2972820000000 1.0
C      1  0.4113830000000  0.6111650000000  0.2797810000000 1.0
C      1  0.5911040000000  0.6284600000000  0.6742140000000 1.0
C      1  0.4620130000000  0.4595840000000  0.2758430000000 1.0
C      1  0.4103690000000  0.5918570000000  0.4513570000000 1.0
C      1  0.4430350000000  0.3107940000000  0.4233690000000 1.0
C      1  0.5001410000000  0.3618290000000  0.5513340000000 1.0
C      1  0.4276800000000  0.7295850000000  0.6074310000000 1.0
C      1  0.5117520000000  0.5121850000000  0.4598510000000 1.0
C      1  0.4096030000000  0.3059480000000  0.3389050000000 1.0
C      1  0.4106520000000  0.6435390000000  0.6761220000000 1.0
C      1  0.3992820000000  0.4715390000000  0.6643760000000 1.0
C      1  0.3869400000000  0.3997400000000  0.6105250000000 1.0
C      1  0.4843220000000  0.4707290000000  0.7180610000000 1.0
C      1  0.2933830000000  0.5973530000000  0.3929490000000 1.0
C      1  0.2684470000000  0.3489380000000  0.3842280000000 1.0
C      1  0.2876680000000  0.5471910000000  0.4774030000000 1.0
C      1  0.4234680000000  0.7116100000000  0.5030790000000 1.0
C      1  0.6497650000000  0.4463670000000  0.5245460000000 1.0
C      1  0.5399430000000  0.5919150000000  0.5787390000000 1.0
C      1  0.6269610000000  0.3825100000000  0.3270220000000 1.0
C      1  0.5824450000000  0.3081480000000  0.5777130000000 1.0
C      1  0.6436340000000  0.5268450000000  0.4197740000000 1.0
C      1  0.6538820000000  0.1513690000000  0.4984070000000 1.0
C      1  0.6046520000000  0.5999350000000  0.4975740000000 1.0
C      1  0.3575450000000  0.6851810000000  0.4145970000000 1.0
C      1  0.4768150000000  0.4071140000000  0.4541860000000 1.0
C      1  0.3328960000000  0.5764110000000  0.5565320000000 1.0
C      1  0.7069890000000  0.5386940000000  0.5184140000000 1.0
C      1  0.6488530000000  0.7505360000000  0.4369760000000 1.0
C      1  0.6512710000000  0.4132990000000  0.4176670000000 1.0
C      1  0.3682840000000  0.5608360000000  0.6483310000000 1.0
C      1  0.5506800000000  0.4622020000000  0.5499400000000 1.0
C      1  0.3370340000000  0.5518920000000  0.3134400000000 1.0
C      1  0.6019370000000  0.3213040000000  0.6741040000000 1.0
C      1  0.5278500000000  0.5854920000000  0.3903360000000 1.0
C      1  0.4973310000000  0.5558670000000  0.2880210000000 1.0
C      1  0.5392680000000  0.3829260000000  0.7351230000000 1.0
C      1  0.4836940000000  0.5276560000000  0.7949190000000 1.0
END
