TITL C-986978-6805-31 -5.79522802599137e-06 3375 -349.294812176544 0 0 60 (C2) n - 1
REM
REM in /home/bkarasulu/work/CARBON/AIRSS/Generating-Clusters/REBO/Higher-Symm/Only-C60
REM
REM
REM
REM
REM
REM ./C.cell (a2850807a9bf4ad07a5b6933b78d9264)
REM AIRSS Version 0.9.1 bugfix July 2018 build 013d7b7c2542+ Fri, 06 Jul 2018 19:26:36 +0100
REM compiler GCC version 9.2.1 20190827 (Red Hat 9.2.1-1)
REM options -cpp -mtune=generic -march=x86-64 -g -O0 -fpre-include=/usr/include/finclude/math-vector-fortran.h
REM seed -254723386 1625685952 -1222546832 93759501 553267623 1494324979 -1922400037 338569379 -1224193747 1660757581 -1661539866 1109403769 -303515757 -1664649259 -589335188 1245586813 1437014990 1497936353 -1283590556 -490533361 -865263845 1749494824 1279098795 482332149 -729077915 -1278287954 -526300136 1157926900 -1067024534 -1527179224 53780679 -908892206 1873879920
REM
CELL 1.54180   15.00000   15.00000   15.00000   90.00000   90.00000   90.00000
LATT -1
SFAC C  
C      1  0.4893650000000  0.5847430000000  0.2691070000000 1.0
C      1  0.5660130000000  0.5081040000000  0.2722430000000 1.0
C      1  0.5106360000000  0.4152580000000  0.2691070000000 1.0
C      1  0.4339880000000  0.4918970000000  0.2722420000000 1.0
C      1  0.3888080000000  0.4737270000000  0.5625360000000 1.0
C      1  0.4684600000000  0.6225910000000  0.5624020000000 1.0
C      1  0.6111910000000  0.5262730000000  0.5625370000000 1.0
C      1  0.5315400000000  0.3774090000000  0.5624010000000 1.0
C      1  0.6497770000000  0.5729030000000  0.3135720000000 1.0
C      1  0.5753360000000  0.3331740000000  0.3110430000000 1.0
C      1  0.3502230000000  0.4270980000000  0.3135710000000 1.0
C      1  0.4246650000000  0.6668260000000  0.3110430000000 1.0
C      1  0.6510000000000  0.6198810000000  0.3967060000000 1.0
C      1  0.6210220000000  0.3382790000000  0.3949130000000 1.0
C      1  0.3490010000000  0.3801190000000  0.3967050000000 1.0
C      1  0.3789790000000  0.6617220000000  0.3949130000000 1.0
C      1  0.4237740000000  0.3200650000000  0.4032150000000 1.0
C      1  0.3292070000000  0.5799060000000  0.4025370000000 1.0
C      1  0.5762260000000  0.6799350000000  0.4032150000000 1.0
C      1  0.6707930000000  0.4200950000000  0.4025370000000 1.0
C      1  0.5172140000000  0.1603630000000  0.6733750000000 1.0
C      1  0.1795190000000  0.4814130000000  0.6765010000000 1.0
C      1  0.4827850000000  0.8396370000000  0.6733760000000 1.0
C      1  0.8204800000000  0.5185870000000  0.6765030000000 1.0
C      1  0.3551080000000  0.6271060000000  0.6318190000000 1.0
C      1  0.6026990000000  0.6367600000000  0.6348880000000 1.0
C      1  0.6448910000000  0.3728940000000  0.6318190000000 1.0
C      1  0.3973000000000  0.3632400000000  0.6348870000000 1.0
C      1  0.5460230000000  0.5480300000000  0.6490030000000 1.0
C      1  0.5613650000000  0.4383440000000  0.6489110000000 1.0
C      1  0.4539760000000  0.4519690000000  0.6490030000000 1.0
C      1  0.4386340000000  0.5616550000000  0.6489110000000 1.0
C      1  0.5377180000000  0.7038200000000  0.5849800000000 1.0
C      1  0.6906880000000  0.4560830000000  0.5834740000000 1.0
C      1  0.4622820000000  0.2961790000000  0.5849800000000 1.0
C      1  0.3093120000000  0.5439170000000  0.5834730000000 1.0
C      1  0.3084970000000  0.3832720000000  0.6386450000000 1.0
C      1  0.3792160000000  0.7139630000000  0.6372780000000 1.0
C      1  0.6915020000000  0.6167270000000  0.6386470000000 1.0
C      1  0.6207830000000  0.2860360000000  0.6372780000000 1.0
C      1  0.5640880000000  0.5169520000000  0.4802920000000 1.0
C      1  0.5207100000000  0.4222500000000  0.4788770000000 1.0
C      1  0.4359120000000  0.4830480000000  0.4802910000000 1.0
C      1  0.4792900000000  0.5777500000000  0.4788770000000 1.0
C      1  0.4284310000000  0.7078280000000  0.4614380000000 1.0
C      1  0.6966270000000  0.5681520000000  0.4618360000000 1.0
C      1  0.5715690000000  0.2921720000000  0.4614380000000 1.0
C      1  0.3033730000000  0.4318480000000  0.4618350000000 1.0
C      1  0.7389470000000  0.5341840000000  0.6367510000000 1.0
C      1  0.5363660000000  0.2419950000000  0.6356840000000 1.0
C      1  0.2610520000000  0.4658160000000  0.6367500000000 1.0
C      1  0.4636330000000  0.7580050000000  0.6356850000000 1.0
C      1  0.5239490000000  0.7086050000000  0.4780060000000 1.0
C      1  0.6977430000000  0.4725830000000  0.4774550000000 1.0
C      1  0.4760510000000  0.2913950000000  0.4780060000000 1.0
C      1  0.3022570000000  0.5274170000000  0.4774540000000 1.0
C      1  0.6611600000000  0.4705150000000  0.3222010000000 1.0
C      1  0.4721000000000  0.3216760000000  0.3203140000000 1.0
C      1  0.3388400000000  0.5294850000000  0.3222000000000 1.0
C      1  0.5279000000000  0.6783240000000  0.3203150000000 1.0
END
