TITL C-986978-6805-503 -4.23219405542455e-06 3375 -330.132358522473 0 0 60 (Th) n - 1
REM
REM in /home/bkarasulu/work/CARBON/AIRSS/Generating-Clusters/REBO/Higher-Symm/Only-C60
REM
REM
REM
REM
REM
REM ./C.cell (a2850807a9bf4ad07a5b6933b78d9264)
REM AIRSS Version 0.9.1 bugfix July 2018 build 013d7b7c2542+ Fri, 06 Jul 2018 19:26:36 +0100
REM compiler GCC version 9.2.1 20190827 (Red Hat 9.2.1-1)
REM options -cpp -mtune=generic -march=x86-64 -g -O0 -fpre-include=/usr/include/finclude/math-vector-fortran.h
REM seed 888343818 276264397 -1477586579 -898747598 -512366445 -25800853 -832106052 1709993038 1961822253 193265637 -1229139892 -2096857512 -880789786 -418669296 776371946 291325354 1208511300 -223698175 862512915 1685748156 715773199 -904115152 -1056629545 -418702717 -1291601702 -1825660664 1925700866 -1597151504 454769969 -771760940 -1545995735 -970637906 1382432911
REM
CELL 1.54180   15.00000   15.00000   15.00000   90.00000   90.00000   90.00000
LATT -1
SFAC C  
C      1  0.4127750000000  0.4193690000000  0.7331170000000 1.0
C      1  0.7331170000000  0.4127750000000  0.4193690000000 1.0
C      1  0.4193690000000  0.7331170000000  0.4127750000000 1.0
C      1  0.5872250000000  0.4193690000000  0.2668830000000 1.0
C      1  0.4127750000000  0.5806310000000  0.2668830000000 1.0
C      1  0.5872250000000  0.5806310000000  0.7331170000000 1.0
C      1  0.2668830000000  0.4127750000000  0.5806310000000 1.0
C      1  0.7331170000000  0.5872250000000  0.5806310000000 1.0
C      1  0.2668830000000  0.5872250000000  0.4193690000000 1.0
C      1  0.5806310000000  0.7331170000000  0.5872250000000 1.0
C      1  0.4193690000000  0.2668830000000  0.5872250000000 1.0
C      1  0.5806310000000  0.2668830000000  0.4127750000000 1.0
C      1  0.4127750000000  0.5806310000000  0.7331170000000 1.0
C      1  0.7331170000000  0.5872250000000  0.4193690000000 1.0
C      1  0.4193690000000  0.2668830000000  0.4127750000000 1.0
C      1  0.5872250000000  0.5806310000000  0.2668830000000 1.0
C      1  0.4127750000000  0.4193690000000  0.2668830000000 1.0
C      1  0.5872250000000  0.4193690000000  0.7331170000000 1.0
C      1  0.2668830000000  0.5872250000000  0.5806310000000 1.0
C      1  0.7331170000000  0.4127750000000  0.5806310000000 1.0
C      1  0.2668830000000  0.4127750000000  0.4193690000000 1.0
C      1  0.5806310000000  0.2668830000000  0.5872250000000 1.0
C      1  0.4193690000000  0.7331170000000  0.5872250000000 1.0
C      1  0.5806310000000  0.7331170000000  0.4127750000000 1.0
C      1  0.3857840000000  0.3617940000000  0.4513010000000 1.0
C      1  0.4513010000000  0.3857840000000  0.3617940000000 1.0
C      1  0.3617940000000  0.4513010000000  0.3857840000000 1.0
C      1  0.6142160000000  0.3617940000000  0.5486990000000 1.0
C      1  0.3857840000000  0.6382060000000  0.5486990000000 1.0
C      1  0.6142160000000  0.6382060000000  0.4513010000000 1.0
C      1  0.5486990000000  0.3857840000000  0.6382060000000 1.0
C      1  0.4513010000000  0.6142160000000  0.6382060000000 1.0
C      1  0.5486990000000  0.6142160000000  0.3617940000000 1.0
C      1  0.6382060000000  0.4513010000000  0.6142160000000 1.0
C      1  0.3617940000000  0.5486990000000  0.6142160000000 1.0
C      1  0.6382060000000  0.5486990000000  0.3857840000000 1.0
C      1  0.3857840000000  0.6382060000000  0.4513010000000 1.0
C      1  0.4513010000000  0.6142160000000  0.3617940000000 1.0
C      1  0.3617940000000  0.5486990000000  0.3857840000000 1.0
C      1  0.6142160000000  0.6382060000000  0.5486990000000 1.0
C      1  0.3857840000000  0.3617940000000  0.5486990000000 1.0
C      1  0.6142160000000  0.3617940000000  0.4513010000000 1.0
C      1  0.5486990000000  0.6142160000000  0.6382060000000 1.0
C      1  0.4513010000000  0.3857840000000  0.6382060000000 1.0
C      1  0.5486990000000  0.3857840000000  0.3617940000000 1.0
C      1  0.6382060000000  0.5486990000000  0.6142160000000 1.0
C      1  0.3617940000000  0.4513010000000  0.6142160000000 1.0
C      1  0.6382060000000  0.4513010000000  0.3857840000000 1.0
C      1  0.5000000000000  0.7669340000000  0.4513370000000 1.0
C      1  0.4513370000000  0.5000000000000  0.7669340000000 1.0
C      1  0.7669340000000  0.4513370000000  0.5000000000000 1.0
C      1  0.5000000000000  0.7669340000000  0.5486630000000 1.0
C      1  0.5000000000000  0.2330660000000  0.5486630000000 1.0
C      1  0.5000000000000  0.2330660000000  0.4513370000000 1.0
C      1  0.5486630000000  0.5000000000000  0.2330660000000 1.0
C      1  0.5486630000000  0.5000000000000  0.7669340000000 1.0
C      1  0.2330660000000  0.4513370000000  0.5000000000000 1.0
C      1  0.7669340000000  0.5486630000000  0.5000000000000 1.0
C      1  0.2330660000000  0.5486630000000  0.5000000000000 1.0
C      1  0.4513370000000  0.5000000000000  0.2330660000000 1.0
END
