TITL C-986978-6805-740 -0.000952987148788572 3375 -330.154828052583 0 0 60 (C6) n - 1
REM
REM in /home/bkarasulu/work/CARBON/AIRSS/Generating-Clusters/REBO/Higher-Symm/Only-C60
REM
REM
REM
REM
REM
REM ./C.cell (a2850807a9bf4ad07a5b6933b78d9264)
REM AIRSS Version 0.9.1 bugfix July 2018 build 013d7b7c2542+ Fri, 06 Jul 2018 19:26:36 +0100
REM compiler GCC version 9.2.1 20190827 (Red Hat 9.2.1-1)
REM options -cpp -mtune=generic -march=x86-64 -g -O0 -fpre-include=/usr/include/finclude/math-vector-fortran.h
REM seed 52156753 -225389789 -641921153 1920276761 -1066456895 404297514 -1115075782 -177551674 -1639537350 -1140917852 1199672524 -1237910548 1147884959 -1579139994 -345667434 136430906 500243548 871275620 -566070737 679352890 -320626039 -633512742 1167406282 1764685406 -842417018 -1159731365 -2066857270 86103919 679527914 1915911334 -839966933 -179391193 -895214380
REM
CELL 1.54180   15.00000   15.00000   15.00000   90.00000   90.00000   90.00000
LATT -1
SFAC C  
C      1  0.7074520000000  0.6337790000000  0.3662400000000 1.0
C      1  0.7074820000000  0.6827240000000  0.5489800000000 1.0
C      1  0.7074950000000  0.5489440000000  0.6827380000000 1.0
C      1  0.7074520000000  0.3662210000000  0.6337600000000 1.0
C      1  0.7074820000000  0.3172760000000  0.4510200000000 1.0
C      1  0.7074950000000  0.4510560000000  0.3172620000000 1.0
C      1  0.7074520000000  0.6337790000000  0.6337600000000 1.0
C      1  0.7074820000000  0.6827240000000  0.4510200000000 1.0
C      1  0.7074950000000  0.5489440000000  0.3172620000000 1.0
C      1  0.7074520000000  0.3662210000000  0.3662400000000 1.0
C      1  0.7074820000000  0.3172760000000  0.5489800000000 1.0
C      1  0.7074950000000  0.4510560000000  0.6827380000000 1.0
C      1  0.4893970000000  0.6530770000000  0.3495650000000 1.0
C      1  0.4894280000000  0.7067490000000  0.5573940000000 1.0
C      1  0.4894310000000  0.5536460000000  0.7077730000000 1.0
C      1  0.4893970000000  0.3469230000000  0.6504350000000 1.0
C      1  0.4894280000000  0.2932520000000  0.4426060000000 1.0
C      1  0.4894310000000  0.4463540000000  0.2922270000000 1.0
C      1  0.4893970000000  0.6530770000000  0.6504350000000 1.0
C      1  0.4894280000000  0.7067480000000  0.4426060000000 1.0
C      1  0.4894310000000  0.5536460000000  0.2922270000000 1.0
C      1  0.4893970000000  0.3469230000000  0.3495650000000 1.0
C      1  0.4894280000000  0.2932510000000  0.5573940000000 1.0
C      1  0.4894310000000  0.4463540000000  0.7077730000000 1.0
C      1  0.3921630000000  0.3292380000000  0.3065900000000 1.0
C      1  0.3921930000000  0.5822940000000  0.2558630000000 1.0
C      1  0.3921830000000  0.7526940000000  0.4490150000000 1.0
C      1  0.3921630000000  0.6707620000000  0.6934100000000 1.0
C      1  0.3921930000000  0.4177060000000  0.7441370000000 1.0
C      1  0.3921830000000  0.2473060000000  0.5509860000000 1.0
C      1  0.3921630000000  0.3292380000000  0.6934100000000 1.0
C      1  0.3921930000000  0.5822940000000  0.7441370000000 1.0
C      1  0.3921830000000  0.7526940000000  0.5509860000000 1.0
C      1  0.3921630000000  0.6707620000000  0.3065900000000 1.0
C      1  0.3921930000000  0.4177060000000  0.2558630000000 1.0
C      1  0.3921830000000  0.2473060000000  0.4490150000000 1.0
C      1  0.5996750000000  0.3449340000000  0.3448550000000 1.0
C      1  0.5997040000000  0.5568380000000  0.2881620000000 1.0
C      1  0.5997020000000  0.7118970000000  0.4432950000000 1.0
C      1  0.5996750000000  0.6550660000000  0.6551450000000 1.0
C      1  0.5997040000000  0.4431620000000  0.7118380000000 1.0
C      1  0.5997020000000  0.2881030000000  0.5567060000000 1.0
C      1  0.5996750000000  0.3449340000000  0.6551450000000 1.0
C      1  0.5997040000000  0.5568380000000  0.7118380000000 1.0
C      1  0.5997020000000  0.7118970000000  0.5567060000000 1.0
C      1  0.5996750000000  0.6550660000000  0.3448550000000 1.0
C      1  0.5997040000000  0.4431620000000  0.2881620000000 1.0
C      1  0.5997020000000  0.2881030000000  0.4432950000000 1.0
C      1  0.3112060000000  0.5472230000000  0.3116630000000 1.0
C      1  0.3112360000000  0.6867150000000  0.4467250000000 1.0
C      1  0.3112520000000  0.6395160000000  0.6351690000000 1.0
C      1  0.3112060000000  0.4527770000000  0.6883370000000 1.0
C      1  0.3112360000000  0.3132850000000  0.5532750000000 1.0
C      1  0.3112520000000  0.3604840000000  0.3648310000000 1.0
C      1  0.3112060000000  0.5472230000000  0.6883370000000 1.0
C      1  0.3112360000000  0.6867150000000  0.5532750000000 1.0
C      1  0.3112520000000  0.6395160000000  0.3648310000000 1.0
C      1  0.3112060000000  0.4527770000000  0.3116630000000 1.0
C      1  0.3112360000000  0.3132850000000  0.4467250000000 1.0
C      1  0.3112520000000  0.3604840000000  0.6351690000000 1.0
END
