TITL C-986979-5873-122 0.00129579937428295 3375 -319.104990110526 0 0 60 (C1) n - 1
REM
REM in /home/bkarasulu/work/CARBON/AIRSS/Generating-Clusters/REBO/Higher-Symm/Only-C60
REM
REM
REM
REM
REM
REM ./C.cell (a2850807a9bf4ad07a5b6933b78d9264)
REM AIRSS Version 0.9.1 bugfix July 2018 build 013d7b7c2542+ Fri, 06 Jul 2018 19:26:36 +0100
REM compiler GCC version 9.2.1 20190827 (Red Hat 9.2.1-1)
REM options -cpp -mtune=generic -march=x86-64 -g -O0 -fpre-include=/usr/include/finclude/math-vector-fortran.h
REM seed -1302301089 -2028225621 1567231823 -919326263 -1309527372 1352415826 -66060362 -1596064463 -2125409368 -519341602 212724326 -941243099 -25248036 1568494390 333092312 1991277273 1934197037 -1840012043 -588223273 557139161 1170162341 1652017163 -496015971 -1329549337 1640086176 1741863743 -109680060 725188977 -1197088119 327177701 1308945002 702768512 -565701318
REM
CELL 1.54180   15.00000   15.00000   15.00000   90.00000   90.00000   90.00000
LATT -1
SFAC C  
C      1  0.5502880000000  0.3019130000000  0.2858820000000 1.0
C      1  0.5489740000000  0.7832360000000  0.4218680000000 1.0
C      1  0.5347730000000  0.4316220000000  0.7159180000000 1.0
C      1  0.4515800000000  0.3373910000000  0.6559740000000 1.0
C      1  0.4470720000000  0.4707490000000  0.2817300000000 1.0
C      1  0.4504150000000  0.7194770000000  0.5656930000000 1.0
C      1  0.6427220000000  0.6386600000000  0.6734910000000 1.0
C      1  0.6466330000000  0.2962920000000  0.5300820000000 1.0
C      1  0.6598360000000  0.5707890000000  0.3013560000000 1.0
C      1  0.4974910000000  0.5372600000000  0.2728690000000 1.0
C      1  0.4913870000000  0.6892980000000  0.6324060000000 1.0
C      1  0.4881910000000  0.2853310000000  0.6002340000000 1.0
C      1  0.5980540000000  0.3497690000000  0.7014340000000 1.0
C      1  0.5554940000000  0.3934770000000  0.2772490000000 1.0
C      1  0.5650150000000  0.7578190000000  0.5097490000000 1.0
C      1  0.3032770000000  0.3094330000000  0.3296910000000 1.0
C      1  0.2999460000000  0.7414420000000  0.4021020000000 1.0
C      1  0.2934450000000  0.4578390000000  0.7262480000000 1.0
C      1  0.4996000000000  0.6605080000000  0.3216480000000 1.0
C      1  0.4826040000000  0.5895260000000  0.7199770000000 1.0
C      1  0.5119720000000  0.2724010000000  0.4415490000000 1.0
C      1  0.5774980000000  0.2709160000000  0.3715560000000 1.0
C      1  0.5699320000000  0.7126530000000  0.3607220000000 1.0
C      1  0.5544610000000  0.5283250000000  0.7320360000000 1.0
C      1  0.4438080000000  0.6553630000000  0.4798380000000 1.0
C      1  0.4376210000000  0.4407050000000  0.6251760000000 1.0
C      1  0.4338350000000  0.4261660000000  0.3792390000000 1.0
C      1  0.3648790000000  0.4890450000000  0.6797170000000 1.0
C      1  0.3696650000000  0.3436590000000  0.3803450000000 1.0
C      1  0.3691330000000  0.6840830000000  0.4091420000000 1.0
C      1  0.5772260000000  0.5550820000000  0.3455480000000 1.0
C      1  0.5680690000000  0.6131260000000  0.6205330000000 1.0
C      1  0.5542230000000  0.3349140000000  0.5247850000000 1.0
C      1  0.6848640000000  0.5968920000000  0.4317230000000 1.0
C      1  0.6718940000000  0.4967460000000  0.5937890000000 1.0
C      1  0.6819780000000  0.3930790000000  0.4369380000000 1.0
C      1  0.4190220000000  0.3792570000000  0.5340510000000 1.0
C      1  0.4031550000000  0.5287650000000  0.3930040000000 1.0
C      1  0.4065240000000  0.5940250000000  0.5678710000000 1.0
C      1  0.5678830000000  0.6672580000000  0.5256660000000 1.0
C      1  0.5651390000000  0.4066150000000  0.6084360000000 1.0
C      1  0.5612460000000  0.4491080000000  0.3494750000000 1.0
C      1  0.4212460000000  0.6151470000000  0.3551950000000 1.0
C      1  0.4052320000000  0.5766420000000  0.6655200000000 1.0
C      1  0.4255760000000  0.3204750000000  0.4600190000000 1.0
C      1  0.6585920000000  0.3149140000000  0.3987980000000 1.0
C      1  0.6471150000000  0.6672450000000  0.3918990000000 1.0
C      1  0.6369280000000  0.5059670000000  0.6752990000000 1.0
C      1  0.5238810000000  0.4122770000000  0.4466650000000 1.0
C      1  0.5382370000000  0.6066350000000  0.4392490000000 1.0
C      1  0.5247810000000  0.5110820000000  0.6033870000000 1.0
C      1  0.7934660000000  0.4971180000000  0.4850040000000 1.0
C      1  0.0877582000000  0.4819690000000  0.5052010000000 1.0
C      1  0.8785190000000  0.4980360000000  0.4860020000000 1.0
C      1  0.5706890000000  0.5060050000000  0.4692120000000 1.0
C      1  0.1737570000000  0.4966590000000  0.5005720000000 1.0
C      1  0.6814650000000  0.4961700000000  0.4836960000000 1.0
C      1  0.2601840000000  0.5122800000000  0.4954100000000 1.0
C      1  0.4671170000000  0.5185670000000  0.5092720000000 1.0
C      1  0.3566550000000  0.5331400000000  0.4876930000000 1.0
END
