TITL C-986972-3822-55 1.22865797456801e-06 3375 -372.776400133564 0 0 60 (C1) n - 1
REM
REM in /home/bkarasulu/work/CARBON/AIRSS/Generating-Clusters/REBO/Higher-Symm/Only-C60
REM
REM
REM
REM
REM
REM ./C.cell (a2850807a9bf4ad07a5b6933b78d9264)
REM AIRSS Version 0.9.1 bugfix July 2018 build 013d7b7c2542+ Fri, 06 Jul 2018 19:26:36 +0100
REM compiler GCC version 9.2.1 20190827 (Red Hat 9.2.1-1)
REM options -cpp -mtune=generic -march=x86-64 -g -O0 -fpre-include=/usr/include/finclude/math-vector-fortran.h
REM seed 706319061 377315088 797318331 -20615106 -1199393741 1192246277 -1107332790 -1344485346 -1376607587 -1008133494 521140990 1051565972 -1558782430 2009202137 1108745244 -1564085805 -926832116 -2062472076 2145440778 -1915314581 1176630594 -2087494454 -370660943 -977627266 -1375340531 -1107090188 -2092635469 -159803235 871131196 270156963 1203372544 705016878 -1412527880
REM
CELL 1.54180   15.00000   15.00000   15.00000   90.00000   90.00000   90.00000
LATT -1
SFAC C  
C      1  0.4640570000000  0.5741950000000  0.7144500000000 1.0
C      1  0.7103110000000  0.5815250000000  0.4344580000000 1.0
C      1  0.3397370000000  0.5683210000000  0.3551220000000 1.0
C      1  0.6942580000000  0.4210290000000  0.3912550000000 1.0
C      1  0.3128460000000  0.4087370000000  0.3930330000000 1.0
C      1  0.5022180000000  0.4114810000000  0.7140550000000 1.0
C      1  0.4219390000000  0.6349260000000  0.3614620000000 1.0
C      1  0.4231640000000  0.6386800000000  0.6369510000000 1.0
C      1  0.6578110000000  0.6453670000000  0.5011970000000 1.0
C      1  0.4466160000000  0.6034640000000  0.5341090000000 1.0
C      1  0.5578480000000  0.6096860000000  0.5293280000000 1.0
C      1  0.4969010000000  0.6056410000000  0.4364240000000 1.0
C      1  0.3372610000000  0.4793720000000  0.7067250000000 1.0
C      1  0.7499860000000  0.4758760000000  0.5511880000000 1.0
C      1  0.4294000000000  0.4645740000000  0.2664020000000 1.0
C      1  0.5895610000000  0.6387700000000  0.3438710000000 1.0
C      1  0.3206640000000  0.6325550000000  0.5015360000000 1.0
C      1  0.5944230000000  0.6415880000000  0.6560590000000 1.0
C      1  0.5896140000000  0.4824650000000  0.2489940000000 1.0
C      1  0.2626520000000  0.4619240000000  0.5567490000000 1.0
C      1  0.6714080000000  0.4642000000000  0.6581430000000 1.0
C      1  0.3486120000000  0.4822190000000  0.3136040000000 1.0
C      1  0.4242550000000  0.4910100000000  0.7376650000000 1.0
C      1  0.7467410000000  0.4958510000000  0.4591810000000 1.0
C      1  0.5600730000000  0.5686580000000  0.7086070000000 1.0
C      1  0.6648820000000  0.5777660000000  0.3494490000000 1.0
C      1  0.2898480000000  0.5652990000000  0.4385800000000 1.0
C      1  0.6228260000000  0.3440630000000  0.4312680000000 1.0
C      1  0.3647750000000  0.3197260000000  0.4226350000000 1.0
C      1  0.4765080000000  0.3374350000000  0.6331010000000 1.0
C      1  0.3893070000000  0.3315300000000  0.5986120000000 1.0
C      1  0.6221960000000  0.3302420000000  0.5250210000000 1.0
C      1  0.4420780000000  0.3018030000000  0.3741280000000 1.0
C      1  0.4746670000000  0.4530320000000  0.3905770000000 1.0
C      1  0.4024090000000  0.4640130000000  0.5915290000000 1.0
C      1  0.6185470000000  0.4628670000000  0.5359070000000 1.0
C      1  0.6904890000000  0.3870340000000  0.5800540000000 1.0
C      1  0.4795870000000  0.3794810000000  0.3061240000000 1.0
C      1  0.3195610000000  0.4002520000000  0.6317330000000 1.0
C      1  0.5469170000000  0.3080510000000  0.5773040000000 1.0
C      1  0.5464400000000  0.3289490000000  0.3830900000000 1.0
C      1  0.3673700000000  0.2976180000000  0.5138490000000 1.0
C      1  0.3928510000000  0.5155720000000  0.5147220000000 1.0
C      1  0.5578040000000  0.5164250000000  0.5815890000000 1.0
C      1  0.5405300000000  0.5146840000000  0.4085900000000 1.0
C      1  0.7203070000000  0.5460950000000  0.6200940000000 1.0
C      1  0.5042810000000  0.5268300000000  0.2561460000000 1.0
C      1  0.2925390000000  0.5301590000000  0.6278350000000 1.0
C      1  0.3961510000000  0.4651340000000  0.4364400000000 1.0
C      1  0.4882680000000  0.4697330000000  0.6232650000000 1.0
C      1  0.6163060000000  0.4762950000000  0.4447900000000 1.0
C      1  0.2668090000000  0.4765140000000  0.4658880000000 1.0
C      1  0.5924420000000  0.4780120000000  0.7057310000000 1.0
C      1  0.6574810000000  0.4897380000000  0.3138900000000 1.0
C      1  0.3838220000000  0.6874930000000  0.4519830000000 1.0
C      1  0.5182430000000  0.6955540000000  0.6309380000000 1.0
C      1  0.5955250000000  0.6942480000000  0.4234820000000 1.0
C      1  0.3287750000000  0.6118380000000  0.5948750000000 1.0
C      1  0.6700540000000  0.6243230000000  0.6023320000000 1.0
C      1  0.5070480000000  0.6100760000000  0.3038790000000 1.0
END
