TITL C-986979-5873-268 -6.21114275208946e-06 3375 -334.719045179924 0 0 60 (C1) n - 1
REM
REM in /home/bkarasulu/work/CARBON/AIRSS/Generating-Clusters/REBO/Higher-Symm/Only-C60
REM
REM
REM
REM
REM
REM ./C.cell (a2850807a9bf4ad07a5b6933b78d9264)
REM AIRSS Version 0.9.1 bugfix July 2018 build 013d7b7c2542+ Fri, 06 Jul 2018 19:26:36 +0100
REM compiler GCC version 9.2.1 20190827 (Red Hat 9.2.1-1)
REM options -cpp -mtune=generic -march=x86-64 -g -O0 -fpre-include=/usr/include/finclude/math-vector-fortran.h
REM seed -1677895332 1292386159 1936033763 2035993506 454680689 390730088 893413861 -266515265 -1744515066 417662850 698986097 -173874293 -181209615 -2084130146 2025408736 1886858654 1691373039 -2090047898 -45642117 -1687808759 -2075496737 -861763676 204011036 658962298 1404363064 -87647313 -973636930 1683588835 129517424 1225702308 1039301822 -1370101079 -1525921083
REM
CELL 1.54180   15.00000   15.00000   15.00000   90.00000   90.00000   90.00000
LATT -1
SFAC C  
C      1  0.6162980000000  0.2634860000000  0.4218560000000 1.0
C      1  0.6200010000000  0.5602770000000  0.7398950000000 1.0
C      1  0.6200150000000  0.6718030000000  0.3327340000000 1.0
C      1  0.3506620000000  0.5680200000000  0.2936050000000 1.0
C      1  0.3368890000000  0.2773250000000  0.5383480000000 1.0
C      1  0.3533950000000  0.6432820000000  0.6656340000000 1.0
C      1  0.4545350000000  0.5321760000000  0.2647980000000 1.0
C      1  0.4424430000000  0.3057820000000  0.5715930000000 1.0
C      1  0.4559670000000  0.6881130000000  0.6465730000000 1.0
C      1  0.4649440000000  0.6195880000000  0.3370450000000 1.0
C      1  0.4806200000000  0.3246820000000  0.4651060000000 1.0
C      1  0.4693200000000  0.5820010000000  0.6864830000000 1.0
C      1  0.6269200000000  0.3081990000000  0.5952530000000 1.0
C      1  0.6377420000000  0.6861710000000  0.6153180000000 1.0
C      1  0.6410070000000  0.5080020000000  0.2773090000000 1.0
C      1  0.5400190000000  0.6805700000000  0.3826370000000 1.0
C      1  0.5405180000000  0.3097110000000  0.3861920000000 1.0
C      1  0.5388010000000  0.5112300000000  0.7281780000000 1.0
C      1  0.2727640000000  0.4855560000000  0.2962080000000 1.0
C      1  0.2683450000000  0.3220970000000  0.6145680000000 1.0
C      1  0.2712400000000  0.6749830000000  0.5939680000000 1.0
C      1  0.6055530000000  0.6043880000000  0.5152580000000 1.0
C      1  0.6068510000000  0.4617180000000  0.3973710000000 1.0
C      1  0.6085210000000  0.4401180000000  0.5923450000000 1.0
C      1  0.5320350000000  0.4202770000000  0.7089070000000 1.0
C      1  0.5348050000000  0.7115310000000  0.4684210000000 1.0
C      1  0.5371440000000  0.3694010000000  0.3176800000000 1.0
C      1  0.5163370000000  0.5655800000000  0.4708760000000 1.0
C      1  0.5103420000000  0.4539100000000  0.4518010000000 1.0
C      1  0.5141120000000  0.4925580000000  0.5989460000000 1.0
C      1  0.5314640000000  0.3404060000000  0.6335750000000 1.0
C      1  0.5417020000000  0.7048920000000  0.5743640000000 1.0
C      1  0.5433670000000  0.4666810000000  0.2806460000000 1.0
C      1  0.7024130000000  0.4521660000000  0.3359780000000 1.0
C      1  0.6987500000000  0.3765120000000  0.6189920000000 1.0
C      1  0.7005040000000  0.6632540000000  0.5393740000000 1.0
C      1  0.3206590000000  0.3286480000000  0.6951240000000 1.0
C      1  0.3274480000000  0.7372900000000  0.5434970000000 1.0
C      1  0.3320620000000  0.4127320000000  0.2686380000000 1.0
C      1  0.5400490000000  0.3848680000000  0.5292870000000 1.0
C      1  0.5370380000000  0.5948980000000  0.5990740000000 1.0
C      1  0.5430390000000  0.5462190000000  0.3623490000000 1.0
C      1  0.6497050000000  0.6013930000000  0.2830910000000 1.0
C      1  0.6348530000000  0.2643760000000  0.5120430000000 1.0
C      1  0.6451310000000  0.6356610000000  0.6944780000000 1.0
C      1  0.4168270000000  0.4322480000000  0.3014420000000 1.0
C      1  0.4067060000000  0.3510240000000  0.6704730000000 1.0
C      1  0.4136310000000  0.7035630000000  0.5430850000000 1.0
C      1  0.7065920000000  0.4720610000000  0.4434330000000 1.0
C      1  0.7083550000000  0.4626510000000  0.5517340000000 1.0
C      1  0.7069630000000  0.5603560000000  0.5056600000000 1.0
C      1  0.4172780000000  0.4457500000000  0.6161400000000 1.0
C      1  0.4220300000000  0.6113480000000  0.4888780000000 1.0
C      1  0.4200460000000  0.4292730000000  0.4089110000000 1.0
C      1  0.3774880000000  0.3528640000000  0.4651260000000 1.0
C      1  0.3819790000000  0.5341340000000  0.6503740000000 1.0
C      1  0.3788880000000  0.6060020000000  0.3974490000000 1.0
C      1  0.3413040000000  0.5019020000000  0.3861850000000 1.0
C      1  0.3416130000000  0.3922620000000  0.5618430000000 1.0
C      1  0.3439710000000  0.5920300000000  0.5638520000000 1.0
END
