TITL C-986976-6631-262 0.027230412835406 3375 -333.126966476543 0 0 60 (D3) n - 1
REM
REM in /home/bkarasulu/work/CARBON/AIRSS/Generating-Clusters/REBO/Higher-Symm/Only-C60
REM
REM
REM
REM
REM
REM ./C.cell (a2850807a9bf4ad07a5b6933b78d9264)
REM AIRSS Version 0.9.1 bugfix July 2018 build 013d7b7c2542+ Fri, 06 Jul 2018 19:26:36 +0100
REM compiler GCC version 9.2.1 20190827 (Red Hat 9.2.1-1)
REM options -cpp -mtune=generic -march=x86-64 -g -O0 -fpre-include=/usr/include/finclude/math-vector-fortran.h
REM seed 293361418 2081371363 -383737181 2056017696 2053030299 -1656490511 38421434 -833088099 -1330686371 -1881679246 926582794 1946856477 1634220722 -812180956 -982381548 353819056 1904261379 1432216700 929739678 -2044316186 1091651639 -1558737705 1561906564 -381990366 -944125759 -1790033615 -1791923344 1543797389 -2028287774 686437097 -1974993973 2063678657 -178571248
REM
CELL 1.54180   15.00000   15.00000   15.00000   90.00000   90.00000   90.00000
LATT -1
SFAC C  
C      1  0.6188700000000  0.7411310000000  0.4927350000000 1.0
C      1  0.4468560000000  0.7411320000000  0.6065770000000 1.0
C      1  0.4342730000000  0.7411320000000  0.4006870000000 1.0
C      1  0.3811300000000  0.2588690000000  0.4927350000000 1.0
C      1  0.5531440000000  0.2588680000000  0.6065770000000 1.0
C      1  0.5657270000000  0.2588680000000  0.4006870000000 1.0
C      1  0.4316360000000  0.3726900000000  0.5454330000000 1.0
C      1  0.4948340000000  0.3726910000000  0.4180800000000 1.0
C      1  0.5735300000000  0.3726870000000  0.5364860000000 1.0
C      1  0.5683640000000  0.6273100000000  0.5454330000000 1.0
C      1  0.5051660000000  0.6273090000000  0.4180800000000 1.0
C      1  0.4264700000000  0.6273130000000  0.5364860000000 1.0
C      1  0.3414980000000  0.6137120000000  0.4615530000000 1.0
C      1  0.6125470000000  0.6137120000000  0.3819570000000 1.0
C      1  0.5459550000000  0.6137120000000  0.6564900000000 1.0
C      1  0.6585020000000  0.3862880000000  0.4615530000000 1.0
C      1  0.3874530000000  0.3862880000000  0.3819570000000 1.0
C      1  0.4540450000000  0.3862880000000  0.6564900000000 1.0
C      1  0.5768550000000  0.5406420000000  0.5013370000000 1.0
C      1  0.4604670000000  0.5406200000000  0.5658720000000 1.0
C      1  0.4627020000000  0.5406490000000  0.4327490000000 1.0
C      1  0.4231450000000  0.4593580000000  0.5013370000000 1.0
C      1  0.5395330000000  0.4593800000000  0.5658730000000 1.0
C      1  0.5372980000000  0.4593510000000  0.4327490000000 1.0
C      1  0.3505810000000  0.3036430000000  0.5926520000000 1.0
C      1  0.4944690000000  0.3036420000000  0.3242730000000 1.0
C      1  0.6549490000000  0.3036430000000  0.5830750000000 1.0
C      1  0.6494190000000  0.6963570000000  0.5926520000000 1.0
C      1  0.5055310000000  0.6963580000000  0.3242730000000 1.0
C      1  0.3450510000000  0.6963570000000  0.5830750000000 1.0
C      1  0.4110910000000  0.4892220000000  0.3447350000000 1.0
C      1  0.6789220000000  0.4892190000000  0.5006340000000 1.0
C      1  0.4099890000000  0.4892160000000  0.6546360000000 1.0
C      1  0.5889090000000  0.5107780000000  0.3447350000000 1.0
C      1  0.3210780000000  0.5107810000000  0.5006340000000 1.0
C      1  0.5900110000000  0.5107840000000  0.6546360000000 1.0
C      1  0.6681150000000  0.6511540000000  0.4607820000000 1.0
C      1  0.4499070000000  0.6511540000000  0.6652020000000 1.0
C      1  0.3819780000000  0.6511540000000  0.3740160000000 1.0
C      1  0.3318850000000  0.3488460000000  0.4607820000000 1.0
C      1  0.5500930000000  0.3488460000000  0.6652020000000 1.0
C      1  0.6180220000000  0.3488460000000  0.3740160000000 1.0
C      1  0.3749660000000  0.5885880000000  0.6552150000000 1.0
C      1  0.4281080000000  0.5885690000000  0.3141540000000 1.0
C      1  0.6969110000000  0.5885770000000  0.5306680000000 1.0
C      1  0.6250340000000  0.4114120000000  0.6552150000000 1.0
C      1  0.5718920000000  0.4114310000000  0.3141540000000 1.0
C      1  0.3030890000000  0.4114230000000  0.5306680000000 1.0
C      1  0.3022390000000  0.5962050000000  0.5706310000000 1.0
C      1  0.5377120000000  0.5962060000000  0.2934170000000 1.0
C      1  0.6600490000000  0.5962050000000  0.6359510000000 1.0
C      1  0.6977610000000  0.4037950000000  0.5706310000000 1.0
C      1  0.4622880000000  0.4037940000000  0.2934170000000 1.0
C      1  0.3399510000000  0.4037950000000  0.6359510000000 1.0
C      1  0.4563520000000  0.2655580000000  0.5780140000000 1.0
C      1  0.4542610000000  0.2655580000000  0.4231930000000 1.0
C      1  0.5893860000000  0.2655580000000  0.4987930000000 1.0
C      1  0.5436480000000  0.7344420000000  0.5780140000000 1.0
C      1  0.5457390000000  0.7344420000000  0.4231930000000 1.0
C      1  0.4106140000000  0.7344420000000  0.4987930000000 1.0
END
