TITL C-986976-6631-880 3.00183116188328e-06 3375 -357.64004971582 0 0 60 (C1) n - 1
REM
REM in /home/bkarasulu/work/CARBON/AIRSS/Generating-Clusters/REBO/Higher-Symm/Only-C60
REM
REM
REM
REM
REM
REM ./C.cell (a2850807a9bf4ad07a5b6933b78d9264)
REM AIRSS Version 0.9.1 bugfix July 2018 build 013d7b7c2542+ Fri, 06 Jul 2018 19:26:36 +0100
REM compiler GCC version 9.2.1 20190827 (Red Hat 9.2.1-1)
REM options -cpp -mtune=generic -march=x86-64 -g -O0 -fpre-include=/usr/include/finclude/math-vector-fortran.h
REM seed -484487768 1968887021 889103649 -1972205472 1539523933 556590939 -2050464476 959177875 746442377 814264618 -2009128729 171271803 849207910 510832110 670874457 522945985 -917072411 635154779 2041295539 14660788 -355254232 1688133792 -352592664 1639844947 -1104592771 2129374009 1412532120 -1051728200 1623088808 -967388586 48162301 2059946979 1465378764
REM
CELL 1.54180   15.00000   15.00000   15.00000   90.00000   90.00000   90.00000
LATT -1
SFAC C  
C      1  0.3433330000000  0.2874880000000  0.4121330000000 1.0
C      1  0.6500230000000  0.2973830000000  0.5916980000000 1.0
C      1  0.3605150000000  0.7035780000000  0.4178680000000 1.0
C      1  0.6445240000000  0.7141450000000  0.5770560000000 1.0
C      1  0.6393320000000  0.2952900000000  0.4169990000000 1.0
C      1  0.3553940000000  0.2864820000000  0.5775790000000 1.0
C      1  0.6561020000000  0.7111750000000  0.4122510000000 1.0
C      1  0.3503660000000  0.7033670000000  0.5928090000000 1.0
C      1  0.5456730000000  0.3071270000000  0.6307460000000 1.0
C      1  0.4338460000000  0.3102910000000  0.3541760000000 1.0
C      1  0.5587650000000  0.6903630000000  0.6396890000000 1.0
C      1  0.4622430000000  0.6939700000000  0.3742600000000 1.0
C      1  0.4425720000000  0.3151350000000  0.6346620000000 1.0
C      1  0.5372950000000  0.3029020000000  0.3712720000000 1.0
C      1  0.4551540000000  0.6969250000000  0.6340230000000 1.0
C      1  0.5648100000000  0.6845850000000  0.3588050000000 1.0
C      1  0.5778520000000  0.4105440000000  0.6233040000000 1.0
C      1  0.4244960000000  0.4131170000000  0.3651590000000 1.0
C      1  0.5736680000000  0.5881380000000  0.6335720000000 1.0
C      1  0.4246340000000  0.5917110000000  0.3759520000000 1.0
C      1  0.4286460000000  0.4163620000000  0.6284760000000 1.0
C      1  0.5802980000000  0.4048780000000  0.3694820000000 1.0
C      1  0.4168570000000  0.5937980000000  0.6293890000000 1.0
C      1  0.5740680000000  0.5825270000000  0.3693250000000 1.0
C      1  0.3153060000000  0.6292620000000  0.4547540000000 1.0
C      1  0.6922070000000  0.6353700000000  0.5464070000000 1.0
C      1  0.3030530000000  0.3670550000000  0.4500400000000 1.0
C      1  0.6889100000000  0.3724820000000  0.5488400000000 1.0
C      1  0.6973080000000  0.6319730000000  0.4504980000000 1.0
C      1  0.3109460000000  0.6284360000000  0.5504870000000 1.0
C      1  0.6855790000000  0.3694040000000  0.4530730000000 1.0
C      1  0.3072470000000  0.3650300000000  0.5460630000000 1.0
C      1  0.4427140000000  0.2407390000000  0.4413920000000 1.0
C      1  0.5688100000000  0.2248990000000  0.5599800000000 1.0
C      1  0.4450680000000  0.7674890000000  0.4583120000000 1.0
C      1  0.5421650000000  0.7564530000000  0.5487840000000 1.0
C      1  0.5546110000000  0.2319430000000  0.4577570000000 1.0
C      1  0.4571180000000  0.2438260000000  0.5476190000000 1.0
C      1  0.5570090000000  0.7581100000000  0.4423600000000 1.0
C      1  0.4306300000000  0.7762020000000  0.5602310000000 1.0
C      1  0.4525930000000  0.4549230000000  0.7197300000000 1.0
C      1  0.5563030000000  0.4421330000000  0.2755030000000 1.0
C      1  0.4422280000000  0.5563360000000  0.7234070000000 1.0
C      1  0.5488170000000  0.5438350000000  0.2782570000000 1.0
C      1  0.5564090000000  0.4448660000000  0.7199830000000 1.0
C      1  0.4515900000000  0.4548260000000  0.2765260000000 1.0
C      1  0.5471410000000  0.5468880000000  0.7224490000000 1.0
C      1  0.4451190000000  0.5570910000000  0.2796970000000 1.0
C      1  0.6666330000000  0.4618440000000  0.5884330000000 1.0
C      1  0.3364160000000  0.4483690000000  0.4066440000000 1.0
C      1  0.6624020000000  0.5548110000000  0.5925150000000 1.0
C      1  0.3354670000000  0.5413220000000  0.4122570000000 1.0
C      1  0.3371720000000  0.4466850000000  0.5913430000000 1.0
C      1  0.6672390000000  0.4563420000000  0.4087190000000 1.0
C      1  0.3308200000000  0.5396310000000  0.5915240000000 1.0
C      1  0.6645870000000  0.5495110000000  0.4074540000000 1.0
C      1  0.4982540000000  0.5607420000000  0.5601140000000 1.0
C      1  0.5003980000000  0.5477090000000  0.4480240000000 1.0
C      1  0.5011610000000  0.4528590000000  0.5511130000000 1.0
C      1  0.5001010000000  0.4393250000000  0.4390290000000 1.0
END
