TITL C-986974-580-275 -1.91279328198008e-05 3375 -357.363449634041 0 0 60 (C1) n - 1
REM
REM in /home/bkarasulu/work/CARBON/AIRSS/Generating-Clusters/REBO/Higher-Symm/Only-C60
REM
REM
REM
REM
REM
REM ./C.cell (a2850807a9bf4ad07a5b6933b78d9264)
REM AIRSS Version 0.9.1 bugfix July 2018 build 013d7b7c2542+ Fri, 06 Jul 2018 19:26:36 +0100
REM compiler GCC version 9.2.1 20190827 (Red Hat 9.2.1-1)
REM options -cpp -mtune=generic -march=x86-64 -g -O0 -fpre-include=/usr/include/finclude/math-vector-fortran.h
REM seed -476331412 -97488088 221186331 -489632766 1532608897 -314406005 1381539926 -1771672144 1427386632 -462418491 -837454746 -776093998 -100138919 -1242906049 -562311156 -1357736776 -2061781214 -1616590129 -482716196 1342917676 1745590798 -927040835 -74202209 -1508690925 -1098790415 1215173609 -1963699299 -736408437 1251310619 1359674105 -1028079553 -983305350 533133371
REM
CELL 1.54180   15.00000   15.00000   15.00000   90.00000   90.00000   90.00000
LATT -1
SFAC C  
C      1  0.4261120000000  0.5906150000000  0.7106810000000 1.0
C      1  0.5194540000000  0.6106240000000  0.7089790000000 1.0
C      1  0.5744810000000  0.5531310000000  0.6445010000000 1.0
C      1  0.5744170000000  0.4482000000000  0.6446230000000 1.0
C      1  0.5189630000000  0.3908380000000  0.7088080000000 1.0
C      1  0.4257330000000  0.4114610000000  0.7105380000000 1.0
C      1  0.3871510000000  0.5011330000000  0.7081530000000 1.0
C      1  0.6015350000000  0.5704140000000  0.4122740000000 1.0
C      1  0.6198010000000  0.4683300000000  0.4118680000000 1.0
C      1  0.5505330000000  0.3907420000000  0.4108330000000 1.0
C      1  0.4475510000000  0.3968680000000  0.4104380000000 1.0
C      1  0.3883360000000  0.4804490000000  0.4105440000000 1.0
C      1  0.4160970000000  0.5788700000000  0.4111970000000 1.0
C      1  0.5104380000000  0.6192050000000  0.4118370000000 1.0
C      1  0.7815470000000  0.5036930000000  0.3573910000000 1.0
C      1  0.6803310000000  0.2840680000000  0.3585290000000 1.0
C      1  0.4435040000000  0.2273450000000  0.3587650000000 1.0
C      1  0.2540110000000  0.3773020000000  0.3574100000000 1.0
C      1  0.2518670000000  0.6188670000000  0.3573420000000 1.0
C      1  0.4380210000000  0.7723710000000  0.3588530000000 1.0
C      1  0.6760480000000  0.7206900000000  0.3592410000000 1.0
C      1  0.7174500000000  0.4392820000000  0.4264490000000 1.0
C      1  0.5875800000000  0.2956370000000  0.4237590000000 1.0
C      1  0.3965550000000  0.3083310000000  0.4237740000000 1.0
C      1  0.2873270000000  0.4642460000000  0.4231860000000 1.0
C      1  0.3399740000000  0.6471310000000  0.4239370000000 1.0
C      1  0.5158900000000  0.7213150000000  0.4245890000000 1.0
C      1  0.6844140000000  0.6296570000000  0.4275530000000 1.0
C      1  0.7621200000000  0.5642950000000  0.4346730000000 1.0
C      1  0.7128870000000  0.3379730000000  0.4366890000000 1.0
C      1  0.5071670000000  0.2357890000000  0.4354360000000 1.0
C      1  0.2994560000000  0.3324680000000  0.4343620000000 1.0
C      1  0.2449590000000  0.5548690000000  0.4338270000000 1.0
C      1  0.3843890000000  0.7366890000000  0.4352040000000 1.0
C      1  0.6139400000000  0.7422220000000  0.4342500000000 1.0
C      1  0.5415470000000  0.3193810000000  0.6382720000000 1.0
C      1  0.3840050000000  0.3569190000000  0.6386330000000 1.0
C      1  0.3181100000000  0.5013680000000  0.6363910000000 1.0
C      1  0.3847490000000  0.6454780000000  0.6387800000000 1.0
C      1  0.5424200000000  0.6821910000000  0.6387510000000 1.0
C      1  0.6729950000000  0.5800020000000  0.6247050000000 1.0
C      1  0.6728040000000  0.4210590000000  0.6246560000000 1.0
C      1  0.4492220000000  0.2633570000000  0.5135090000000 1.0
C      1  0.2838310000000  0.3942480000000  0.5123340000000 1.0
C      1  0.2825760000000  0.6052790000000  0.5124030000000 1.0
C      1  0.4472530000000  0.7379020000000  0.5137010000000 1.0
C      1  0.6537420000000  0.6972610000000  0.5139760000000 1.0
C      1  0.7573580000000  0.5011080000000  0.5129640000000 1.0
C      1  0.6545320000000  0.3051910000000  0.5131090000000 1.0
C      1  0.4541530000000  0.7034190000000  0.5987690000000 1.0
C      1  0.6303600000000  0.6674000000000  0.5983440000000 1.0
C      1  0.7211930000000  0.5005130000000  0.5985920000000 1.0
C      1  0.6294650000000  0.3340680000000  0.5974800000000 1.0
C      1  0.4529220000000  0.2986290000000  0.5984530000000 1.0
C      1  0.3142560000000  0.4118280000000  0.5971980000000 1.0
C      1  0.3147440000000  0.5910770000000  0.5972990000000 1.0
C      1  0.5058890000000  0.5008390000000  0.3549370000000 1.0
C      1  0.5049140000000  0.5002480000000  0.4690240000000 1.0
C      1  0.5278630000000  0.5005720000000  0.5550650000000 1.0
C      1  0.5058200000000  0.5015130000000  0.2671560000000 1.0
END
