TITL C-986978-6805-720 -2.80202065955124e-06 3375 -360.040363585389 0 0 60 (C5) n - 1
REM
REM in /home/bkarasulu/work/CARBON/AIRSS/Generating-Clusters/REBO/Higher-Symm/Only-C60
REM
REM
REM
REM
REM
REM ./C.cell (a2850807a9bf4ad07a5b6933b78d9264)
REM AIRSS Version 0.9.1 bugfix July 2018 build 013d7b7c2542+ Fri, 06 Jul 2018 19:26:36 +0100
REM compiler GCC version 9.2.1 20190827 (Red Hat 9.2.1-1)
REM options -cpp -mtune=generic -march=x86-64 -g -O0 -fpre-include=/usr/include/finclude/math-vector-fortran.h
REM seed 1366458560 -895031256 346494095 -2071865465 1894823211 -307679229 1736031070 -845406649 192207175 1621170863 2077032366 1661681286 1335363605 1170927621 454051377 1181331299 1835873213 1158393590 -1738238650 1376262850 -478503321 -1926443303 -535841572 -613724306 -196454454 -483600978 -461195519 2021158359 -1337452834 -1910910711 -847655638 1449036745 766831974
REM
CELL 1.54180   15.00000   15.00000   15.00000   90.00000   90.00000   90.00000
LATT -1
SFAC C  
C      1  0.3542430000000  0.6745550000000  0.6207180000000 1.0
C      1  0.3542520000000  0.6687570000000  0.3712910000000 1.0
C      1  0.3542500000000  0.4297470000000  0.2997290000000 1.0
C      1  0.3542400000000  0.2878280000000  0.5049270000000 1.0
C      1  0.3542360000000  0.4391280000000  0.7033090000000 1.0
C      1  0.5664250000000  0.3543540000000  0.5985320000000 1.0
C      1  0.5664270000000  0.5486990000000  0.6689660000000 1.0
C      1  0.5664350000000  0.6757420000000  0.5058980000000 1.0
C      1  0.5664390000000  0.5599130000000  0.3346820000000 1.0
C      1  0.5664330000000  0.3612850000000  0.3919330000000 1.0
C      1  0.3149530000000  0.6831760000000  0.5254400000000 1.0
C      1  0.3149580000000  0.5808080000000  0.3336500000000 1.0
C      1  0.3149520000000  0.3667710000000  0.3717410000000 1.0
C      1  0.3149440000000  0.3368570000000  0.5870720000000 1.0
C      1  0.3149440000000  0.5324060000000  0.6820640000000 1.0
C      1  0.3669870000000  0.3526370000000  0.6690700000000 1.0
C      1  0.3669920000000  0.6152640000000  0.6923950000000 1.0
C      1  0.3670030000000  0.7186030000000  0.4498300000000 1.0
C      1  0.3670050000000  0.5198440000000  0.2765910000000 1.0
C      1  0.3669960000000  0.2936640000000  0.4120900000000 1.0
C      1  0.4757240000000  0.3350800000000  0.6597580000000 1.0
C      1  0.4757270000000  0.6009770000000  0.7062160000000 1.0
C      1  0.4757390000000  0.7273280000000  0.4676890000000 1.0
C      1  0.4757420000000  0.5395200000000  0.2738130000000 1.0
C      1  0.4757330000000  0.2970970000000  0.3925180000000 1.0
C      1  0.6900190000000  0.3264210000000  0.4968620000000 1.0
C      1  0.6900160000000  0.4433680000000  0.6641150000000 1.0
C      1  0.6900220000000  0.6385730000000  0.6045760000000 1.0
C      1  0.6900290000000  0.6422700000000  0.4005260000000 1.0
C      1  0.6900280000000  0.4493490000000  0.3339550000000 1.0
C      1  0.5643420000000  0.4378430000000  0.5527970000000 1.0
C      1  0.5643430000000  0.5310020000000  0.5754300000000 1.0
C      1  0.5643470000000  0.5813150000000  0.4938250000000 1.0
C      1  0.5643490000000  0.5192520000000  0.4207570000000 1.0
C      1  0.5643460000000  0.4305810000000  0.4572030000000 1.0
C      1  0.3776020000000  0.5859710000000  0.5238700000000 1.0
C      1  0.3776050000000  0.5492740000000  0.4256120000000 1.0
C      1  0.3776020000000  0.4444850000000  0.4301500000000 1.0
C      1  0.3775980000000  0.4164190000000  0.5312120000000 1.0
C      1  0.3775980000000  0.5038630000000  0.5891340000000 1.0
C      1  0.6084610000000  0.2921180000000  0.5314800000000 1.0
C      1  0.6084580000000  0.4656950000000  0.7074360000000 1.0
C      1  0.6084670000000  0.6866770000000  0.5967280000000 1.0
C      1  0.6084750000000  0.6496750000000  0.3523500000000 1.0
C      1  0.6084710000000  0.4058240000000  0.3120250000000 1.0
C      1  0.4434550000000  0.3928090000000  0.3526830000000 1.0
C      1  0.4434470000000  0.3267720000000  0.5564210000000 1.0
C      1  0.4434450000000  0.5001320000000  0.6821840000000 1.0
C      1  0.4434530000000  0.6733110000000  0.5561730000000 1.0
C      1  0.4434600000000  0.6069820000000  0.3525300000000 1.0
C      1  0.7212330000000  0.4163790000000  0.4962550000000 1.0
C      1  0.7212310000000  0.4705870000000  0.5783720000000 1.0
C      1  0.7212340000000  0.5654370000000  0.5521930000000 1.0
C      1  0.7212380000000  0.5698490000000  0.4538960000000 1.0
C      1  0.7212370000000  0.4777260000000  0.4193240000000 1.0
C      1  0.5165280000000  0.4421960000000  0.2985610000000 1.0
C      1  0.5165180000000  0.2905560000000  0.4927270000000 1.0
C      1  0.5165140000000  0.4283610000000  0.6969450000000 1.0
C      1  0.5165210000000  0.6651680000000  0.6289930000000 1.0
C      1  0.5165300000000  0.6737180000000  0.3827770000000 1.0
END
