TITL C-986975-4297-335 -0.00386818583816314 3375 -330.770273085469 0 0 60 (C1) n - 1
REM
REM in /home/bkarasulu/work/CARBON/AIRSS/Generating-Clusters/REBO/Higher-Symm/Only-C60
REM
REM
REM
REM
REM
REM ./C.cell (a2850807a9bf4ad07a5b6933b78d9264)
REM AIRSS Version 0.9.1 bugfix July 2018 build 013d7b7c2542+ Fri, 06 Jul 2018 19:26:36 +0100
REM compiler GCC version 9.2.1 20190827 (Red Hat 9.2.1-1)
REM options -cpp -mtune=generic -march=x86-64 -g -O0 -fpre-include=/usr/include/finclude/math-vector-fortran.h
REM seed -1029661726 1192569741 1088532284 659746209 562449538 -1191648472 1276672824 -134467308 1434590971 -476546069 -1913699761 1138709192 1780200487 -1607776268 323971935 925661005 -249921954 524646199 347466946 -612195548 -2017994865 -1148155037 -2144071024 852963256 776336767 -519773296 1817132298 -813203587 331934603 781979995 1772367259 -1240487060 1911958869
REM
CELL 1.54180   15.00000   15.00000   15.00000   90.00000   90.00000   90.00000
LATT -1
SFAC C  
C      1  0.3428890000000  0.3105500000000  0.5061810000000 1.0
C      1  0.3831440000000  0.4343690000000  0.2725350000000 1.0
C      1  0.3437790000000  0.6443240000000  0.3726590000000 1.0
C      1  0.3796270000000  0.6680550000000  0.6505640000000 1.0
C      1  0.3849620000000  0.4625540000000  0.7283210000000 1.0
C      1  0.6538120000000  0.3075900000000  0.5142640000000 1.0
C      1  0.6479210000000  0.4348060000000  0.3136010000000 1.0
C      1  0.6173470000000  0.7052150000000  0.3572110000000 1.0
C      1  0.6680600000000  0.6662240000000  0.5771200000000 1.0
C      1  0.6419080000000  0.4247380000000  0.7421490000000 1.0
C      1  0.4591610000000  0.5613410000000  0.6532020000000 1.0
C      1  0.4100290000000  0.3543470000000  0.6093490000000 1.0
C      1  0.4257210000000  0.3575260000000  0.3947710000000 1.0
C      1  0.4328060000000  0.5579200000000  0.3246150000000 1.0
C      1  0.4174170000000  0.6850460000000  0.4999120000000 1.0
C      1  0.6041920000000  0.5660470000000  0.6731120000000 1.0
C      1  0.5595570000000  0.3688980000000  0.6275170000000 1.0
C      1  0.5696050000000  0.3491500000000  0.4131310000000 1.0
C      1  0.5658660000000  0.5577720000000  0.3285110000000 1.0
C      1  0.5672310000000  0.6787280000000  0.4917530000000 1.0
C      1  0.5767450000000  0.4937670000000  0.7342200000000 1.0
C      1  0.5630620000000  0.3020720000000  0.5535050000000 1.0
C      1  0.5626280000000  0.3854500000000  0.3204610000000 1.0
C      1  0.5420460000000  0.6526090000000  0.3309270000000 1.0
C      1  0.5599880000000  0.7007980000000  0.5944770000000 1.0
C      1  0.4779850000000  0.4927580000000  0.7271170000000 1.0
C      1  0.4509420000000  0.2866470000000  0.5353100000000 1.0
C      1  0.4602300000000  0.3861380000000  0.3069600000000 1.0
C      1  0.4383280000000  0.6605440000000  0.3301210000000 1.0
C      1  0.4453230000000  0.7018550000000  0.5907910000000 1.0
C      1  0.3794490000000  0.4266070000000  0.4524770000000 1.0
C      1  0.3987630000000  0.5197670000000  0.4154640000000 1.0
C      1  0.3763410000000  0.5939980000000  0.4916340000000 1.0
C      1  0.4271980000000  0.5266330000000  0.5589400000000 1.0
C      1  0.3662650000000  0.4358600000000  0.5651660000000 1.0
C      1  0.6101480000000  0.4237470000000  0.4671790000000 1.0
C      1  0.6085890000000  0.5178650000000  0.4100890000000 1.0
C      1  0.6198120000000  0.5885030000000  0.4812330000000 1.0
C      1  0.6366550000000  0.5374210000000  0.5814720000000 1.0
C      1  0.6258550000000  0.4377390000000  0.5752610000000 1.0
C      1  0.3363870000000  0.4957860000000  0.6514100000000 1.0
C      1  0.2800330000000  0.3887700000000  0.4761540000000 1.0
C      1  0.3313280000000  0.4741720000000  0.3375780000000 1.0
C      1  0.2839310000000  0.5832880000000  0.4267820000000 1.0
C      1  0.3293050000000  0.5906240000000  0.6494180000000 1.0
C      1  0.6829940000000  0.3996950000000  0.6626940000000 1.0
C      1  0.7144560000000  0.3917970000000  0.4891300000000 1.0
C      1  0.7053560000000  0.4721720000000  0.3880370000000 1.0
C      1  0.6754910000000  0.6650520000000  0.4184650000000 1.0
C      1  0.7321530000000  0.5777840000000  0.5456500000000 1.0
C      1  0.5017430000000  0.5076040000000  0.2726540000000 1.0
C      1  0.5306330000000  0.6246390000000  0.6574630000000 1.0
C      1  0.4766480000000  0.3728410000000  0.6693880000000 1.0
C      1  0.4902390000000  0.3103990000000  0.4425760000000 1.0
C      1  0.4922880000000  0.6998750000000  0.4451620000000 1.0
C      1  0.8606800000000  0.4887010000000  0.4711170000000 1.0
C      1  0.1600070000000  0.4707860000000  0.3827020000000 1.0
C      1  0.7678210000000  0.4918120000000  0.4806110000000 1.0
C      1  0.2488040000000  0.4768720000000  0.4117280000000 1.0
C      1  0.5147560000000  0.4966360000000  0.5095120000000 1.0
END
