TITL C-986974-580-211 -0.000272372296087167 3375 -338.00688980347 0 0 60 (C2) n - 1
REM
REM in /home/bkarasulu/work/CARBON/AIRSS/Generating-Clusters/REBO/Higher-Symm/Only-C60
REM
REM
REM
REM
REM
REM ./C.cell (a2850807a9bf4ad07a5b6933b78d9264)
REM AIRSS Version 0.9.1 bugfix July 2018 build 013d7b7c2542+ Fri, 06 Jul 2018 19:26:36 +0100
REM compiler GCC version 9.2.1 20190827 (Red Hat 9.2.1-1)
REM options -cpp -mtune=generic -march=x86-64 -g -O0 -fpre-include=/usr/include/finclude/math-vector-fortran.h
REM seed -1822253864 194781264 957467179 310161715 1908837120 -1481705251 1887839505 -1523979248 -717074520 -548176979 1088883672 -1129909806 1145887224 2070135061 164600747 1139850178 -2041207347 1671380673 -1057767988 410579402 1756940818 938771153 -193450943 1363986061 -800461586 -636142920 509354273 1387909954 -1146262186 -1962738351 1328235062 1525409931 2090976539
REM
CELL 1.54180   15.00000   15.00000   15.00000   90.00000   90.00000   90.00000
LATT -1
SFAC C  
C      1  0.6828660000000  0.5998670000000  0.3806830000000 1.0
C      1  0.3171400000000  0.4001380000000  0.3806700000000 1.0
C      1  0.6859250000000  0.3948510000000  0.6338620000000 1.0
C      1  0.3140690000000  0.6051430000000  0.6338570000000 1.0
C      1  0.4157810000000  0.4553940000000  0.7072220000000 1.0
C      1  0.5842090000000  0.5445970000000  0.7072280000000 1.0
C      1  0.4129980000000  0.5391970000000  0.2962490000000 1.0
C      1  0.5870120000000  0.4608120000000  0.2962520000000 1.0
C      1  0.3961160000000  0.3203820000000  0.3641600000000 1.0
C      1  0.6038910000000  0.6796250000000  0.3641730000000 1.0
C      1  0.3963070000000  0.6817930000000  0.6430790000000 1.0
C      1  0.6036860000000  0.3182010000000  0.6430760000000 1.0
C      1  0.4728320000000  0.5484340000000  0.6936330000000 1.0
C      1  0.5271590000000  0.4515580000000  0.6936320000000 1.0
C      1  0.4772280000000  0.4492750000000  0.2672400000000 1.0
C      1  0.5227830000000  0.5507360000000  0.2672430000000 1.0
C      1  0.4611330000000  0.6750070000000  0.4703980000000 1.0
C      1  0.5388680000000  0.3249940000000  0.4703920000000 1.0
C      1  0.4651880000000  0.3193960000000  0.5489690000000 1.0
C      1  0.5348090000000  0.6806020000000  0.5489780000000 1.0
C      1  0.6878900000000  0.4598390000000  0.5649640000000 1.0
C      1  0.3121070000000  0.5401580000000  0.5649570000000 1.0
C      1  0.6885420000000  0.5359790000000  0.4577730000000 1.0
C      1  0.3114600000000  0.4640230000000  0.4577620000000 1.0
C      1  0.3380610000000  0.2897470000000  0.4510440000000 1.0
C      1  0.6619420000000  0.7102550000000  0.4510610000000 1.0
C      1  0.3346430000000  0.7157320000000  0.5626570000000 1.0
C      1  0.6653540000000  0.2842650000000  0.5626560000000 1.0
C      1  0.5273990000000  0.5739320000000  0.5258690000000 1.0
C      1  0.4725990000000  0.4260670000000  0.5258640000000 1.0
C      1  0.5250630000000  0.4247260000000  0.4314830000000 1.0
C      1  0.4749400000000  0.5752770000000  0.4314850000000 1.0
C      1  0.3678220000000  0.5999980000000  0.3562750000000 1.0
C      1  0.6321850000000  0.4000080000000  0.3562770000000 1.0
C      1  0.3664580000000  0.3906810000000  0.6582440000000 1.0
C      1  0.6335350000000  0.6093120000000  0.6582550000000 1.0
C      1  0.6843580000000  0.5742850000000  0.5646790000000 1.0
C      1  0.3156390000000  0.4257120000000  0.5646670000000 1.0
C      1  0.6828140000000  0.4222290000000  0.4558960000000 1.0
C      1  0.3171880000000  0.5777730000000  0.4558910000000 1.0
C      1  0.6374500000000  0.6707380000000  0.5318080000000 1.0
C      1  0.3625490000000  0.3292600000000  0.5317930000000 1.0
C      1  0.6402200000000  0.3251250000000  0.4830960000000 1.0
C      1  0.3597800000000  0.6748760000000  0.4830970000000 1.0
C      1  0.4116910000000  0.4922170000000  0.4208010000000 1.0
C      1  0.5883130000000  0.5077870000000  0.4208060000000 1.0
C      1  0.4114530000000  0.5111160000000  0.5323040000000 1.0
C      1  0.5885460000000  0.4888820000000  0.5323070000000 1.0
C      1  0.5007860000000  0.7061390000000  0.3738290000000 1.0
C      1  0.4992200000000  0.2938670000000  0.3738200000000 1.0
C      1  0.5008030000000  0.2917560000000  0.6413780000000 1.0
C      1  0.4991900000000  0.7082380000000  0.6413880000000 1.0
C      1  0.5514190000000  0.4106240000000  0.6059210000000 1.0
C      1  0.4485760000000  0.5893720000000  0.6059230000000 1.0
C      1  0.5522650000000  0.5840830000000  0.3595350000000 1.0
C      1  0.4477420000000  0.4159240000000  0.3595280000000 1.0
C      1  0.4082390000000  0.6868350000000  0.3487990000000 1.0
C      1  0.5917680000000  0.3131710000000  0.3487950000000 1.0
C      1  0.4076320000000  0.3048120000000  0.6681530000000 1.0
C      1  0.5923590000000  0.6951810000000  0.6681660000000 1.0
END
