TITL C-986973-6940-471 1.28829096765477e-06 3375 -347.66610815609 0 0 60 (Ci) n - 1
REM
REM in /home/bkarasulu/work/CARBON/AIRSS/Generating-Clusters/REBO/Higher-Symm/Only-C60
REM
REM
REM
REM
REM
REM ./C.cell (a2850807a9bf4ad07a5b6933b78d9264)
REM AIRSS Version 0.9.1 bugfix July 2018 build 013d7b7c2542+ Fri, 06 Jul 2018 19:26:36 +0100
REM compiler GCC version 9.2.1 20190827 (Red Hat 9.2.1-1)
REM options -cpp -mtune=generic -march=x86-64 -g -O0 -fpre-include=/usr/include/finclude/math-vector-fortran.h
REM seed -38089398 -1494502375 997111355 1918583004 758001400 -925070007 -652586589 -55710753 -1657046753 2023171056 501293671 -729106029 -1841850217 873363730 590154361 -749437162 -1585244753 -1597921372 465975078 -1112618018 1247430241 1326438532 1446245214 1386509074 30822077 -591915285 -1317586295 -1953812205 -1206227628 -2145794623 392763359 2080180084 -420746943
REM
CELL 1.54180   15.00000   15.00000   15.00000   90.00000   90.00000   90.00000
LATT -1
SFAC C  
C      1  0.5300720000000  0.2276110000000  0.5290230000000 1.0
C      1  0.2854540000000  0.3333960000000  0.4710320000000 1.0
C      1  0.2477190000000  0.6062540000000  0.5312040000000 1.0
C      1  0.4699280000000  0.7723890000000  0.4709770000000 1.0
C      1  0.7145460000000  0.6666040000000  0.5289680000000 1.0
C      1  0.7522810000000  0.3937460000000  0.4687960000000 1.0
C      1  0.3803900000000  0.5615740000000  0.7014500000000 1.0
C      1  0.4997000000000  0.6035840000000  0.3264750000000 1.0
C      1  0.5941120000000  0.5597890000000  0.6755420000000 1.0
C      1  0.6196100000000  0.4384260000000  0.2985500000000 1.0
C      1  0.5003000000000  0.3964160000000  0.6735250000000 1.0
C      1  0.4058880000000  0.4402110000000  0.3244580000000 1.0
C      1  0.5812380000000  0.4411100000000  0.4985960000000 1.0
C      1  0.4766970000000  0.4014630000000  0.4910840000000 1.0
C      1  0.4041130000000  0.4580550000000  0.5316130000000 1.0
C      1  0.4187620000000  0.5588900000000  0.5014040000000 1.0
C      1  0.5233030000000  0.5985370000000  0.5089160000000 1.0
C      1  0.5958870000000  0.5419450000000  0.4683870000000 1.0
C      1  0.2169560000000  0.5385060000000  0.5832810000000 1.0
C      1  0.3961120000000  0.7598340000000  0.4197000000000 1.0
C      1  0.6724810000000  0.7210810000000  0.5888960000000 1.0
C      1  0.7830440000000  0.4614940000000  0.4167180000000 1.0
C      1  0.6038880000000  0.2401660000000  0.5803000000000 1.0
C      1  0.3275190000000  0.2789190000000  0.4111040000000 1.0
C      1  0.5490490000000  0.4433380000000  0.5943640000000 1.0
C      1  0.4908210000000  0.4314950000000  0.3932220000000 1.0
C      1  0.4353910000000  0.5069310000000  0.6227720000000 1.0
C      1  0.4509510000000  0.5566620000000  0.4056360000000 1.0
C      1  0.5091790000000  0.5685050000000  0.6067780000000 1.0
C      1  0.5646090000000  0.4930690000000  0.3772280000000 1.0
C      1  0.6550910000000  0.3666980000000  0.4913520000000 1.0
C      1  0.4605700000000  0.2958330000000  0.4975990000000 1.0
C      1  0.3055380000000  0.4300120000000  0.5018210000000 1.0
C      1  0.3449090000000  0.6333020000000  0.5086480000000 1.0
C      1  0.5394300000000  0.7041670000000  0.5024010000000 1.0
C      1  0.6944620000000  0.5699880000000  0.4981790000000 1.0
C      1  0.6446540000000  0.3215630000000  0.5855240000000 1.0
C      1  0.4188840000000  0.2807620000000  0.4040680000000 1.0
C      1  0.2677470000000  0.4634850000000  0.5931010000000 1.0
C      1  0.3553460000000  0.6784370000000  0.4144760000000 1.0
C      1  0.5811160000000  0.7192380000000  0.5959320000000 1.0
C      1  0.7322540000000  0.5365150000000  0.4068990000000 1.0
C      1  0.6567700000000  0.4910490000000  0.6556640000000 1.0
C      1  0.5767180000000  0.3504860000000  0.3317390000000 1.0
C      1  0.4103780000000  0.3796710000000  0.6535400000000 1.0
C      1  0.3432300000000  0.5089510000000  0.3443360000000 1.0
C      1  0.4232820000000  0.6495140000000  0.6682620000000 1.0
C      1  0.5896220000000  0.6203290000000  0.3464600000000 1.0
C      1  0.6176630000000  0.3149060000000  0.4064150000000 1.0
C      1  0.3976610000000  0.3246820000000  0.5812290000000 1.0
C      1  0.2890070000000  0.4919260000000  0.4166620000000 1.0
C      1  0.3823370000000  0.6850940000000  0.5935850000000 1.0
C      1  0.6023390000000  0.6753180000000  0.4187710000000 1.0
C      1  0.7109930000000  0.5080740000000  0.5833380000000 1.0
C      1  0.5354830000000  0.6569060000000  0.6673640000000 1.0
C      1  0.6592870000000  0.5382920000000  0.3357900000000 1.0
C      1  0.6144380000000  0.3894520000000  0.6639000000000 1.0
C      1  0.4645170000000  0.3430940000000  0.3326360000000 1.0
C      1  0.3407130000000  0.4617080000000  0.6642100000000 1.0
C      1  0.3855620000000  0.6105480000000  0.3361000000000 1.0
END
