TITL C-986979-5873-20 -2.03409399703594e-07 3375 -329.262663531624 0 0 60 (Td) n - 1
REM
REM in /home/bkarasulu/work/CARBON/AIRSS/Generating-Clusters/REBO/Higher-Symm/Only-C60
REM
REM
REM
REM
REM
REM ./C.cell (a2850807a9bf4ad07a5b6933b78d9264)
REM AIRSS Version 0.9.1 bugfix July 2018 build 013d7b7c2542+ Fri, 06 Jul 2018 19:26:36 +0100
REM compiler GCC version 9.2.1 20190827 (Red Hat 9.2.1-1)
REM options -cpp -mtune=generic -march=x86-64 -g -O0 -fpre-include=/usr/include/finclude/math-vector-fortran.h
REM seed -1753877513 -17793370 -1391984022 100387988 543074058 -1410889753 -1567461370 -42011705 1870580587 -1467885752 -1209823240 1380148122 -656862440 1921887492 644599831 348644177 -2139483169 -2144347691 1228414690 1182708157 -1947811642 -1100256887 -744336999 -454920846 -920566226 -1984883948 -934731878 -1297822459 2113104735 462123682 -954124560 -1380951308 -937980600
REM
CELL 1.54180   15.00000   15.00000   15.00000   90.00000   90.00000   90.00000
LATT -1
SFAC C  
C      1  0.4253630000000  0.4972420000000  0.3545850000000 1.0
C      1  0.4972420000000  0.3545850000000  0.4253630000000 1.0
C      1  0.3545850000000  0.4253630000000  0.4972420000000 1.0
C      1  0.4253630000000  0.5027580000000  0.6454150000000 1.0
C      1  0.5746370000000  0.4972420000000  0.6454150000000 1.0
C      1  0.5746370000000  0.5027580000000  0.3545850000000 1.0
C      1  0.4972420000000  0.6454150000000  0.5746370000000 1.0
C      1  0.5027580000000  0.3545850000000  0.5746370000000 1.0
C      1  0.5027580000000  0.6454150000000  0.4253630000000 1.0
C      1  0.3545850000000  0.5746370000000  0.5027580000000 1.0
C      1  0.6454150000000  0.4253630000000  0.5027580000000 1.0
C      1  0.6454150000000  0.5746370000000  0.4972420000000 1.0
C      1  0.4253630000000  0.3545850000000  0.4972420000000 1.0
C      1  0.4972420000000  0.4253630000000  0.3545850000000 1.0
C      1  0.3545850000000  0.4972420000000  0.4253630000000 1.0
C      1  0.4253630000000  0.6454150000000  0.5027580000000 1.0
C      1  0.5746370000000  0.6454150000000  0.4972420000000 1.0
C      1  0.5746370000000  0.3545850000000  0.5027580000000 1.0
C      1  0.4972420000000  0.5746370000000  0.6454150000000 1.0
C      1  0.5027580000000  0.5746370000000  0.3545850000000 1.0
C      1  0.5027580000000  0.4253630000000  0.6454150000000 1.0
C      1  0.3545850000000  0.5027580000000  0.5746370000000 1.0
C      1  0.6454150000000  0.5027580000000  0.4253630000000 1.0
C      1  0.6454150000000  0.4972420000000  0.5746370000000 1.0
C      1  0.2828970000000  0.6368770000000  0.4435900000000 1.0
C      1  0.6368770000000  0.4435900000000  0.2828970000000 1.0
C      1  0.4435900000000  0.2828970000000  0.6368770000000 1.0
C      1  0.2828970000000  0.3631230000000  0.5564100000000 1.0
C      1  0.7171030000000  0.6368770000000  0.5564100000000 1.0
C      1  0.7171030000000  0.3631230000000  0.4435900000000 1.0
C      1  0.6368770000000  0.5564100000000  0.7171030000000 1.0
C      1  0.3631230000000  0.4435900000000  0.7171030000000 1.0
C      1  0.3631230000000  0.5564100000000  0.2828970000000 1.0
C      1  0.4435900000000  0.7171030000000  0.3631230000000 1.0
C      1  0.5564100000000  0.2828970000000  0.3631230000000 1.0
C      1  0.5564100000000  0.7171030000000  0.6368770000000 1.0
C      1  0.2828970000000  0.4435900000000  0.6368770000000 1.0
C      1  0.6368770000000  0.2828970000000  0.4435900000000 1.0
C      1  0.4435900000000  0.6368770000000  0.2828970000000 1.0
C      1  0.2828970000000  0.5564100000000  0.3631230000000 1.0
C      1  0.7171030000000  0.5564100000000  0.6368770000000 1.0
C      1  0.7171030000000  0.4435900000000  0.3631230000000 1.0
C      1  0.6368770000000  0.7171030000000  0.5564100000000 1.0
C      1  0.3631230000000  0.7171030000000  0.4435900000000 1.0
C      1  0.3631230000000  0.2828970000000  0.5564100000000 1.0
C      1  0.4435900000000  0.3631230000000  0.7171030000000 1.0
C      1  0.5564100000000  0.3631230000000  0.2828970000000 1.0
C      1  0.5564100000000  0.6368770000000  0.7171030000000 1.0
C      1  0.5347270000000  0.2334750000000  0.4652730000000 1.0
C      1  0.4652730000000  0.4652730000000  0.7665250000000 1.0
C      1  0.5347270000000  0.7665250000000  0.5347270000000 1.0
C      1  0.4652730000000  0.2334750000000  0.5347270000000 1.0
C      1  0.4652730000000  0.7665250000000  0.4652730000000 1.0
C      1  0.2334750000000  0.5347270000000  0.4652730000000 1.0
C      1  0.2334750000000  0.4652730000000  0.5347270000000 1.0
C      1  0.7665250000000  0.4652730000000  0.4652730000000 1.0
C      1  0.7665250000000  0.5347270000000  0.5347270000000 1.0
C      1  0.4652730000000  0.5347270000000  0.2334750000000 1.0
C      1  0.5347270000000  0.5347270000000  0.7665250000000 1.0
C      1  0.5347270000000  0.4652730000000  0.2334750000000 1.0
END
