TITL C-986975-4297-484 0.000162178118878341 3375 -351.093467188496 0 0 60 (C2) n - 1
REM
REM in /home/bkarasulu/work/CARBON/AIRSS/Generating-Clusters/REBO/Higher-Symm/Only-C60
REM
REM
REM
REM
REM
REM ./C.cell (a2850807a9bf4ad07a5b6933b78d9264)
REM AIRSS Version 0.9.1 bugfix July 2018 build 013d7b7c2542+ Fri, 06 Jul 2018 19:26:36 +0100
REM compiler GCC version 9.2.1 20190827 (Red Hat 9.2.1-1)
REM options -cpp -mtune=generic -march=x86-64 -g -O0 -fpre-include=/usr/include/finclude/math-vector-fortran.h
REM seed -39962562 339752080 1703985393 1864170896 529243049 -1046115003 -844624240 -114496673 -296605279 -1591039852 2066183364 -428107571 -1011332986 720087902 1878164422 -324448279 -1899379366 1166657692 -1916827267 -1925687164 497601456 -1081888554 1566052912 -1508699747 -1845196900 1815913799 567632019 1995179977 1245940323 1013974998 -1059071017 -86632803 -909266729
REM
CELL 1.54180   15.00000   15.00000   15.00000   90.00000   90.00000   90.00000
LATT -1
SFAC C  
C      1  0.4326160000000  0.5544840000000  0.3108940000000 1.0
C      1  0.4965010000000  0.3991250000000  0.3004040000000 1.0
C      1  0.5988890000000  0.5321940000000  0.2948350000000 1.0
C      1  0.5674030000000  0.5544040000000  0.6891210000000 1.0
C      1  0.5034640000000  0.3990660000000  0.6995670000000 1.0
C      1  0.4011230000000  0.5321690000000  0.7051740000000 1.0
C      1  0.5780280000000  0.4629370000000  0.6883620000000 1.0
C      1  0.4746510000000  0.5869660000000  0.6979710000000 1.0
C      1  0.4200620000000  0.4357120000000  0.7151700000000 1.0
C      1  0.4219590000000  0.4630200000000  0.3116270000000 1.0
C      1  0.5253790000000  0.5870150000000  0.3020540000000 1.0
C      1  0.5799150000000  0.4357470000000  0.2848110000000 1.0
C      1  0.4353950000000  0.5497790000000  0.4439310000000 1.0
C      1  0.5126690000000  0.4117610000000  0.4320480000000 1.0
C      1  0.5979750000000  0.5462300000000  0.4272590000000 1.0
C      1  0.5646220000000  0.5497400000000  0.5560830000000 1.0
C      1  0.4873000000000  0.4117450000000  0.5679260000000 1.0
C      1  0.4020410000000  0.5462430000000  0.5727540000000 1.0
C      1  0.5674920000000  0.4607350000000  0.5481910000000 1.0
C      1  0.4763590000000  0.5921990000000  0.5632210000000 1.0
C      1  0.4124920000000  0.4517130000000  0.5831760000000 1.0
C      1  0.4324940000000  0.4607720000000  0.4517980000000 1.0
C      1  0.5236730000000  0.5922090000000  0.4368060000000 1.0
C      1  0.5874910000000  0.4517070000000  0.4168100000000 1.0
C      1  0.6997320000000  0.5458050000000  0.3422790000000 1.0
C      1  0.3788200000000  0.6377850000000  0.3623070000000 1.0
C      1  0.4685690000000  0.3097000000000  0.3592810000000 1.0
C      1  0.3002850000000  0.5458300000000  0.6577340000000 1.0
C      1  0.6212280000000  0.6377020000000  0.6377330000000 1.0
C      1  0.5313640000000  0.3096480000000  0.6406630000000 1.0
C      1  0.3148510000000  0.4335270000000  0.6703650000000 1.0
C      1  0.6241900000000  0.3748440000000  0.6313560000000 1.0
C      1  0.5172830000000  0.6822470000000  0.6508580000000 1.0
C      1  0.6851260000000  0.4335110000000  0.3296160000000 1.0
C      1  0.3757660000000  0.3749260000000  0.3686070000000 1.0
C      1  0.4827820000000  0.6822970000000  0.3491950000000 1.0
C      1  0.3521250000000  0.3294840000000  0.6731870000000 1.0
C      1  0.6920130000000  0.4649350000000  0.6199780000000 1.0
C      1  0.4095600000000  0.6982380000000  0.6657200000000 1.0
C      1  0.6478150000000  0.3294830000000  0.3267630000000 1.0
C      1  0.3079750000000  0.4650380000000  0.3800120000000 1.0
C      1  0.5905100000000  0.6982540000000  0.3343380000000 1.0
C      1  0.6557440000000  0.6477490000000  0.3290750000000 1.0
C      1  0.3155310000000  0.5467160000000  0.3741080000000 1.0
C      1  0.5728680000000  0.2955550000000  0.3352020000000 1.0
C      1  0.3443080000000  0.6477540000000  0.6709690000000 1.0
C      1  0.6844850000000  0.5466140000000  0.6259060000000 1.0
C      1  0.4270600000000  0.2955330000000  0.6647390000000 1.0
C      1  0.6951210000000  0.4560600000000  0.4407520000000 1.0
C      1  0.4586980000000  0.6793680000000  0.4606020000000 1.0
C      1  0.3544420000000  0.3909110000000  0.4802980000000 1.0
C      1  0.3048630000000  0.4561110000000  0.5592350000000 1.0
C      1  0.5413650000000  0.6793420000000  0.5394500000000 1.0
C      1  0.6455190000000  0.3908540000000  0.5196690000000 1.0
C      1  0.2981170000000  0.5694260000000  0.5463160000000 1.0
C      1  0.5486890000000  0.3299620000000  0.5304730000000 1.0
C      1  0.6406310000000  0.6238550000000  0.5265270000000 1.0
C      1  0.7019070000000  0.5693690000000  0.4537040000000 1.0
C      1  0.4512510000000  0.3299880000000  0.4694770000000 1.0
C      1  0.3594130000000  0.6239120000000  0.4735090000000 1.0
END
