TITL C-986975-4297-1165 4.39272308215177e-06 3375 -343.690254465368 0 0 60 (Ci) n - 1
REM
REM in /home/bkarasulu/work/CARBON/AIRSS/Generating-Clusters/REBO/Higher-Symm/Only-C60
REM
REM
REM
REM
REM
REM ./C.cell (a2850807a9bf4ad07a5b6933b78d9264)
REM AIRSS Version 0.9.1 bugfix July 2018 build 013d7b7c2542+ Fri, 06 Jul 2018 19:26:36 +0100
REM compiler GCC version 9.2.1 20190827 (Red Hat 9.2.1-1)
REM options -cpp -mtune=generic -march=x86-64 -g -O0 -fpre-include=/usr/include/finclude/math-vector-fortran.h
REM seed 204869263 -1954099474 1620013194 601627446 1932947076 1700999889 -2065539853 -2051592557 1524402730 -1306712563 974375796 -880351433 -534418940 -1575281014 863716651 -614839826 1024326502 -664542185 2103821146 -946908135 1517937149 1586732322 -641992030 -988497270 -1104765361 1168444516 -616815948 -2035098282 -1357005643 1752788929 916115954 513046620 1879007068
REM
CELL 1.54180   15.00000   15.00000   15.00000   90.00000   90.00000   90.00000
LATT -1
SFAC C  
C      1  0.5018220000000  0.4853110000000  0.6004440000000 1.0
C      1  0.4981780000000  0.5146890000000  0.3995560000000 1.0
C      1  0.2767760000000  0.6452710000000  0.3857430000000 1.0
C      1  0.7232240000000  0.3547290000000  0.6142570000000 1.0
C      1  0.2910560000000  0.4127180000000  0.5293010000000 1.0
C      1  0.7089440000000  0.5872820000000  0.4706990000000 1.0
C      1  0.3882920000000  0.7344610000000  0.4605560000000 1.0
C      1  0.6117080000000  0.2655390000000  0.5394440000000 1.0
C      1  0.5021970000000  0.5867720000000  0.5646700000000 1.0
C      1  0.4978030000000  0.4132280000000  0.4353300000000 1.0
C      1  0.6735000000000  0.6165500000000  0.5696270000000 1.0
C      1  0.3265000000000  0.3834500000000  0.4303730000000 1.0
C      1  0.4259820000000  0.4709820000000  0.6724190000000 1.0
C      1  0.5740180000000  0.5290180000000  0.3275810000000 1.0
C      1  0.4261250000000  0.6370780000000  0.3172650000000 1.0
C      1  0.5738750000000  0.3629220000000  0.6827350000000 1.0
C      1  0.4241420000000  0.4431790000000  0.7766290000000 1.0
C      1  0.5758570000000  0.5568210000000  0.2233710000000 1.0
C      1  0.3269550000000  0.4936840000000  0.2883690000000 1.0
C      1  0.6730450000000  0.5063160000000  0.7116310000000 1.0
C      1  0.2953600000000  0.5261150000000  0.5273060000000 1.0
C      1  0.7046400000000  0.4738850000000  0.4726940000000 1.0
C      1  0.6046230000000  0.3421860000000  0.4004640000000 1.0
C      1  0.3953770000000  0.6578140000000  0.5995360000000 1.0
C      1  0.3949980000000  0.5661100000000  0.5430830000000 1.0
C      1  0.6050020000000  0.4338900000000  0.4569170000000 1.0
C      1  0.2625200000000  0.5649850000000  0.4344970000000 1.0
C      1  0.7374800000000  0.4350150000000  0.5655030000000 1.0
C      1  0.3780610000000  0.2858900000000  0.4468850000000 1.0
C      1  0.6219390000000  0.7141100000000  0.5531150000000 1.0
C      1  0.3414370000000  0.4680330000000  0.6156760000000 1.0
C      1  0.6585630000000  0.5319670000000  0.3843240000000 1.0
C      1  0.4399110000000  0.3918630000000  0.2860330000000 1.0
C      1  0.5600890000000  0.6081370000000  0.7139670000000 1.0
C      1  0.4288340000000  0.3627350000000  0.3853920000000 1.0
C      1  0.5711660000000  0.6372650000000  0.6146080000000 1.0
C      1  0.4624020000000  0.6845890000000  0.4055020000000 1.0
C      1  0.5375980000000  0.3154110000000  0.5944980000000 1.0
C      1  0.4010400000000  0.5040350000000  0.4480860000000 1.0
C      1  0.5989600000000  0.4959660000000  0.5519140000000 1.0
C      1  0.4753080000000  0.5571130000000  0.2756670000000 1.0
C      1  0.5246920000000  0.4428870000000  0.7243330000000 1.0
C      1  0.5446920000000  0.7499520000000  0.4061090000000 1.0
C      1  0.4553080000000  0.2500480000000  0.5938910000000 1.0
C      1  0.3115180000000  0.4833980000000  0.3885240000000 1.0
C      1  0.6884820000000  0.5166020000000  0.6114760000000 1.0
C      1  0.5967910000000  0.5658280000000  0.4732230000000 1.0
C      1  0.4032090000000  0.4341720000000  0.5267770000000 1.0
C      1  0.4012710000000  0.2427920000000  0.5210550000000 1.0
C      1  0.5987290000000  0.7572080000000  0.4789450000000 1.0
C      1  0.4132900000000  0.4770430000000  0.2624230000000 1.0
C      1  0.5867100000000  0.5229570000000  0.7375770000000 1.0
C      1  0.3341630000000  0.6365640000000  0.3093520000000 1.0
C      1  0.6658370000000  0.3634360000000  0.6906480000000 1.0
C      1  0.4022930000000  0.7364620000000  0.5537910000000 1.0
C      1  0.5977070000000  0.2635380000000  0.4462090000000 1.0
C      1  0.2984320000000  0.7244490000000  0.4329070000000 1.0
C      1  0.7015680000000  0.2755510000000  0.5670930000000 1.0
C      1  0.4985210000000  0.6049380000000  0.4578110000000 1.0
C      1  0.5014790000000  0.3950620000000  0.5421890000000 1.0
END
