TITL C-986976-6631-16 1.1299404813996e-06 3375 -347.760077225977 0 0 60 (Td) n - 1
REM
REM in /home/bkarasulu/work/CARBON/AIRSS/Generating-Clusters/REBO/Higher-Symm/Only-C60
REM
REM
REM
REM
REM
REM ./C.cell (a2850807a9bf4ad07a5b6933b78d9264)
REM AIRSS Version 0.9.1 bugfix July 2018 build 013d7b7c2542+ Fri, 06 Jul 2018 19:26:36 +0100
REM compiler GCC version 9.2.1 20190827 (Red Hat 9.2.1-1)
REM options -cpp -mtune=generic -march=x86-64 -g -O0 -fpre-include=/usr/include/finclude/math-vector-fortran.h
REM seed 1101063874 700547873 -1121174365 -1253300358 -1419681837 129050687 1979436585 2125407919 506932634 -434591721 -2059278712 1424018617 722568242 -153943395 -692846459 1247058577 -397767568 1706793491 -2089783349 1004633338 -1665721194 -698659482 -470892615 -2107514317 -422665961 162033169 -505820523 -1780323206 -110994646 -369890889 808198190 1206603645 1990440491
REM
CELL 1.54180   15.00000   15.00000   15.00000   90.00000   90.00000   90.00000
LATT -1
SFAC C  
C      1  0.3934040000000  0.4569990000000  0.2155290000000 1.0
C      1  0.4573590000000  0.2155360000000  0.3932620000000 1.0
C      1  0.2156810000000  0.3930350000000  0.4569960000000 1.0
C      1  0.6067560000000  0.5430270000000  0.2155930000000 1.0
C      1  0.3931680000000  0.5428120000000  0.7844090000000 1.0
C      1  0.6066730000000  0.4571630000000  0.7844670000000 1.0
C      1  0.5427010000000  0.7844720000000  0.3933120000000 1.0
C      1  0.4567950000000  0.7843880000000  0.6067150000000 1.0
C      1  0.5431450000000  0.2156010000000  0.6067130000000 1.0
C      1  0.7843420000000  0.6069700000000  0.4571660000000 1.0
C      1  0.2154660000000  0.6064600000000  0.5428430000000 1.0
C      1  0.7845090000000  0.3935370000000  0.5429940000000 1.0
C      1  0.4569040000000  0.6066630000000  0.7844300000000 1.0
C      1  0.6069550000000  0.2156610000000  0.5429350000000 1.0
C      1  0.2156420000000  0.4568310000000  0.3932040000000 1.0
C      1  0.5429360000000  0.3933120000000  0.7844450000000 1.0
C      1  0.4572540000000  0.3932610000000  0.2155440000000 1.0
C      1  0.5429060000000  0.6067650000000  0.2155780000000 1.0
C      1  0.3930210000000  0.7843330000000  0.5429010000000 1.0
C      1  0.6064750000000  0.7845280000000  0.4571260000000 1.0
C      1  0.3935490000000  0.2154750000000  0.4570400000000 1.0
C      1  0.7844160000000  0.5431800000000  0.3933680000000 1.0
C      1  0.2155060000000  0.5426640000000  0.6066350000000 1.0
C      1  0.7844350000000  0.4573270000000  0.6067920000000 1.0
C      1  0.4541430000000  0.2299140000000  0.6207810000000 1.0
C      1  0.2298700000000  0.6205660000000  0.4538620000000 1.0
C      1  0.6209210000000  0.4540530000000  0.2299860000000 1.0
C      1  0.5457890000000  0.7700750000000  0.6208320000000 1.0
C      1  0.4537330000000  0.7700010000000  0.3791940000000 1.0
C      1  0.5463350000000  0.2300080000000  0.3791950000000 1.0
C      1  0.7701540000000  0.3794390000000  0.4540040000000 1.0
C      1  0.2300600000000  0.3789540000000  0.5459850000000 1.0
C      1  0.7699140000000  0.6210420000000  0.5461490000000 1.0
C      1  0.3792310000000  0.5459710000000  0.2299220000000 1.0
C      1  0.6206870000000  0.5461620000000  0.7700820000000 1.0
C      1  0.3791610000000  0.4538140000000  0.7700090000000 1.0
C      1  0.3794240000000  0.2298500000000  0.5460230000000 1.0
C      1  0.2299730000000  0.4536910000000  0.6207260000000 1.0
C      1  0.4539680000000  0.3791420000000  0.7700260000000 1.0
C      1  0.6205510000000  0.7701450000000  0.5461160000000 1.0
C      1  0.3789710000000  0.7699320000000  0.4539100000000 1.0
C      1  0.6210550000000  0.2300700000000  0.4539540000000 1.0
C      1  0.7699600000000  0.5462990000000  0.6208840000000 1.0
C      1  0.2299580000000  0.5458300000000  0.3791200000000 1.0
C      1  0.7701080000000  0.4541820000000  0.3792690000000 1.0
C      1  0.5458810000000  0.6208340000000  0.7700640000000 1.0
C      1  0.4539040000000  0.6207760000000  0.2299460000000 1.0
C      1  0.5462480000000  0.3792480000000  0.2299610000000 1.0
C      1  0.3590190000000  0.2819300000000  0.6410920000000 1.0
C      1  0.6413220000000  0.3589970000000  0.2820910000000 1.0
C      1  0.6409020000000  0.7180580000000  0.6411920000000 1.0
C      1  0.3587120000000  0.7178170000000  0.3588290000000 1.0
C      1  0.6413670000000  0.2821950000000  0.3588890000000 1.0
C      1  0.7180990000000  0.3590640000000  0.3589150000000 1.0
C      1  0.2821520000000  0.3586630000000  0.6410720000000 1.0
C      1  0.3588000000000  0.6410220000000  0.2820240000000 1.0
C      1  0.3589290000000  0.3587270000000  0.7178960000000 1.0
C      1  0.6409500000000  0.6412540000000  0.7179890000000 1.0
C      1  0.2819790000000  0.6409490000000  0.3588040000000 1.0
C      1  0.7177700000000  0.6413250000000  0.6412090000000 1.0
END
