TITL C-986976-6631-338 0.0247688657116163 3375 -342.571032204858 0 0 60 (C1) n - 1
REM
REM in /home/bkarasulu/work/CARBON/AIRSS/Generating-Clusters/REBO/Higher-Symm/Only-C60
REM
REM
REM
REM
REM
REM ./C.cell (a2850807a9bf4ad07a5b6933b78d9264)
REM AIRSS Version 0.9.1 bugfix July 2018 build 013d7b7c2542+ Fri, 06 Jul 2018 19:26:36 +0100
REM compiler GCC version 9.2.1 20190827 (Red Hat 9.2.1-1)
REM options -cpp -mtune=generic -march=x86-64 -g -O0 -fpre-include=/usr/include/finclude/math-vector-fortran.h
REM seed -1764415271 395019151 1826739571 -486175164 1596715739 2079671872 726662952 1068277488 1163985646 -1102302302 -1058684720 2100979596 -1461099383 -1538308122 928451904 34674391 -95295436 1175410617 -1651651334 2069833605 -513837949 -1580545969 -958885064 -829717800 -187761872 -117674447 -1462935261 -1588334661 -69385677 -892373527 -1333229352 -1988030363 302041026
REM
CELL 1.54180   15.00000   15.00000   15.00000   90.00000   90.00000   90.00000
LATT -1
SFAC C  
C      1  0.6423010000000  0.3697430000000  0.5820100000000 1.0
C      1  0.4100100000000  0.3642360000000  0.4057640000000 1.0
C      1  0.3881110000000  0.4517110000000  0.5037200000000 1.0
C      1  0.6189520000000  0.4536770000000  0.4814230000000 1.0
C      1  0.6181150000000  0.2903570000000  0.7288680000000 1.0
C      1  0.3510140000000  0.2920210000000  0.2667360000000 1.0
C      1  0.6609930000000  0.6276330000000  0.5555780000000 1.0
C      1  0.3536890000000  0.6330110000000  0.4455230000000 1.0
C      1  0.6328020000000  0.5062610000000  0.3211640000000 1.0
C      1  0.3759770000000  0.5189850000000  0.6809510000000 1.0
C      1  0.4428950000000  0.7040110000000  0.4368790000000 1.0
C      1  0.5754530000000  0.7028710000000  0.5700270000000 1.0
C      1  0.5698750000000  0.5712510000000  0.5794570000000 1.0
C      1  0.4432430000000  0.5715560000000  0.4279600000000 1.0
C      1  0.4399170000000  0.4008790000000  0.5887980000000 1.0
C      1  0.5664350000000  0.3860780000000  0.4138600000000 1.0
C      1  0.6731550000000  0.3476900000000  0.4220850000000 1.0
C      1  0.3485820000000  0.3420710000000  0.5651280000000 1.0
C      1  0.5981250000000  0.5928810000000  0.2891420000000 1.0
C      1  0.4150430000000  0.6022750000000  0.7188610000000 1.0
C      1  0.5006720000000  0.5849010000000  0.2782290000000 1.0
C      1  0.5118640000000  0.5877530000000  0.7289900000000 1.0
C      1  0.6727910000000  0.7073500000000  0.4318750000000 1.0
C      1  0.3212890000000  0.7022150000000  0.5962980000000 1.0
C      1  0.5615990000000  0.6385540000000  0.6625720000000 1.0
C      1  0.4552540000000  0.6380300000000  0.3454130000000 1.0
C      1  0.4106950000000  0.3063780000000  0.4836840000000 1.0
C      1  0.6244310000000  0.3076090000000  0.5047110000000 1.0
C      1  0.2806030000000  0.4207240000000  0.5726970000000 1.0
C      1  0.7375540000000  0.4258790000000  0.4334620000000 1.0
C      1  0.4791620000000  0.4874850000000  0.2854380000000 1.0
C      1  0.5259240000000  0.4893550000000  0.7188830000000 1.0
C      1  0.3882330000000  0.4556100000000  0.2872290000000 1.0
C      1  0.6154110000000  0.4565270000000  0.7150440000000 1.0
C      1  0.3796270000000  0.3617730000000  0.3156340000000 1.0
C      1  0.6282920000000  0.3669920000000  0.6822350000000 1.0
C      1  0.4464410000000  0.4666500000000  0.4175760000000 1.0
C      1  0.5851910000000  0.4687310000000  0.5858030000000 1.0
C      1  0.7059570000000  0.5386600000000  0.6007120000000 1.0
C      1  0.2996460000000  0.5462270000000  0.4109670000000 1.0
C      1  0.4198010000000  0.6554650000000  0.5588440000000 1.0
C      1  0.5798990000000  0.6424310000000  0.4517100000000 1.0
C      1  0.4472800000000  0.4536240000000  0.6738500000000 1.0
C      1  0.5565540000000  0.4439180000000  0.3280420000000 1.0
C      1  0.3179360000000  0.6012070000000  0.5476840000000 1.0
C      1  0.6856660000000  0.5952620000000  0.4496220000000 1.0
C      1  0.7118730000000  0.4616070000000  0.5383650000000 1.0
C      1  0.2928090000000  0.4815580000000  0.4818170000000 1.0
C      1  0.3226320000000  0.5146220000000  0.3243850000000 1.0
C      1  0.6822220000000  0.5185840000000  0.6871200000000 1.0
C      1  0.6198840000000  0.6629830000000  0.3472750000000 1.0
C      1  0.3971990000000  0.6794510000000  0.6677180000000 1.0
C      1  0.6989610000000  0.5121590000000  0.3924220000000 1.0
C      1  0.3120060000000  0.5174370000000  0.6083480000000 1.0
C      1  0.4971570000000  0.6082860000000  0.5116450000000 1.0
C      1  0.5170820000000  0.2682090000000  0.5038230000000 1.0
C      1  0.5074710000000  0.7402410000000  0.5050930000000 1.0
C      1  0.5166610000000  0.4834710000000  0.4948490000000 1.0
C      1  0.5161250000000  0.1765440000000  0.5182500000000 1.0
C      1  0.5154600000000  0.3783050000000  0.5171270000000 1.0
END
