TITL C-986978-6805-888 1.0781213716064e-05 3375 -346.959049468056 0 0 60 (C1) n - 1
REM
REM in /home/bkarasulu/work/CARBON/AIRSS/Generating-Clusters/REBO/Higher-Symm/Only-C60
REM
REM
REM
REM
REM
REM ./C.cell (a2850807a9bf4ad07a5b6933b78d9264)
REM AIRSS Version 0.9.1 bugfix July 2018 build 013d7b7c2542+ Fri, 06 Jul 2018 19:26:36 +0100
REM compiler GCC version 9.2.1 20190827 (Red Hat 9.2.1-1)
REM options -cpp -mtune=generic -march=x86-64 -g -O0 -fpre-include=/usr/include/finclude/math-vector-fortran.h
REM seed 2141731871 69631849 1977586576 1214260718 -1742918451 -1501843640 -1253270048 -376685836 -1098488523 -1320197874 1159069195 -1814986341 650857094 -464015488 1646746724 940654720 998324751 576720485 -46195269 2073076617 1668263155 -1108411874 114923612 -775194808 -500009352 -1227571256 475497495 501488945 -884119207 -855758528 -747649735 45545116 -1360171139
REM
CELL 1.54180   15.00000   15.00000   15.00000   90.00000   90.00000   90.00000
LATT -1
SFAC C  
C      1  0.3530100000000  0.4548890000000  0.5100590000000 1.0
C      1  0.4512880000000  0.4709960000000  0.6456350000000 1.0
C      1  0.6300390000000  0.4271260000000  0.6023160000000 1.0
C      1  0.6261800000000  0.4649230000000  0.4101620000000 1.0
C      1  0.4505740000000  0.5040030000000  0.3664440000000 1.0
C      1  0.6456520000000  0.4460200000000  0.5084220000000 1.0
C      1  0.5421530000000  0.4475430000000  0.6460360000000 1.0
C      1  0.3697250000000  0.4355660000000  0.6019320000000 1.0
C      1  0.3698580000000  0.4793050000000  0.4142210000000 1.0
C      1  0.5468700000000  0.4780150000000  0.3540110000000 1.0
C      1  0.3729140000000  0.6466230000000  0.5742260000000 1.0
C      1  0.5434060000000  0.6425960000000  0.6424250000000 1.0
C      1  0.6539960000000  0.6497830000000  0.4839570000000 1.0
C      1  0.5470810000000  0.6586310000000  0.3252580000000 1.0
C      1  0.3716430000000  0.6685200000000  0.3917250000000 1.0
C      1  0.6180010000000  0.6467910000000  0.5699240000000 1.0
C      1  0.4488420000000  0.6423030000000  0.6447560000000 1.0
C      1  0.3363810000000  0.6517000000000  0.4884880000000 1.0
C      1  0.4445820000000  0.6714930000000  0.3340440000000 1.0
C      1  0.6179100000000  0.6587420000000  0.3863850000000 1.0
C      1  0.5891800000000  0.5847050000000  0.7167630000000 1.0
C      1  0.7370620000000  0.5872610000000  0.4708300000000 1.0
C      1  0.5576570000000  0.5902580000000  0.2465300000000 1.0
C      1  0.2932790000000  0.6007610000000  0.3737720000000 1.0
C      1  0.3293980000000  0.5845090000000  0.6477700000000 1.0
C      1  0.4066150000000  0.5853960000000  0.7223280000000 1.0
C      1  0.2550410000000  0.5879540000000  0.4730530000000 1.0
C      1  0.4496860000000  0.6032820000000  0.2541550000000 1.0
C      1  0.6998510000000  0.5950180000000  0.3721210000000 1.0
C      1  0.6630480000000  0.5849260000000  0.6421810000000 1.0
C      1  0.6116020000000  0.4220920000000  0.7340440000000 1.0
C      1  0.7518100000000  0.4211630000000  0.4750550000000 1.0
C      1  0.5627090000000  0.4236660000000  0.2555790000000 1.0
C      1  0.2781600000000  0.4343970000000  0.3635330000000 1.0
C      1  0.2903440000000  0.4206800000000  0.6799210000000 1.0
C      1  0.3911920000000  0.4274410000000  0.7328350000000 1.0
C      1  0.2509170000000  0.4212400000000  0.4735360000000 1.0
C      1  0.4516810000000  0.4440910000000  0.2674960000000 1.0
C      1  0.7253800000000  0.4300540000000  0.3646960000000 1.0
C      1  0.7116910000000  0.4241510000000  0.6797970000000 1.0
C      1  0.5498020000000  0.5106240000000  0.7627540000000 1.0
C      1  0.7576100000000  0.5147920000000  0.5287960000000 1.0
C      1  0.6200980000000  0.5166370000000  0.2503920000000 1.0
C      1  0.3050930000000  0.5287590000000  0.3096750000000 1.0
C      1  0.2660560000000  0.5157420000000  0.6230630000000 1.0
C      1  0.4527490000000  0.5131960000000  0.7706200000000 1.0
C      1  0.2359070000000  0.5139450000000  0.5306180000000 1.0
C      1  0.3851950000000  0.5291020000000  0.2542400000000 1.0
C      1  0.6950040000000  0.5209190000000  0.3113460000000 1.0
C      1  0.7265200000000  0.5169850000000  0.6194610000000 1.0
C      1  0.5622960000000  0.3630250000000  0.3531090000000 1.0
C      1  0.3542080000000  0.3642410000000  0.4128650000000 1.0
C      1  0.3454180000000  0.3326680000000  0.6298020000000 1.0
C      1  0.5625560000000  0.3378960000000  0.6745780000000 1.0
C      1  0.6880420000000  0.3383460000000  0.5216540000000 1.0
C      1  0.4515110000000  0.3860660000000  0.3654200000000 1.0
C      1  0.6557710000000  0.3532290000000  0.4136290000000 1.0
C      1  0.6683990000000  0.3282960000000  0.6328410000000 1.0
C      1  0.4504430000000  0.3539090000000  0.6692160000000 1.0
C      1  0.3209140000000  0.3430150000000  0.5194980000000 1.0
END
