TITL C-986978-6805-25 2.44502454513951e-06 3375 -339.110387777539 0 0 60 (D2) n - 1
REM
REM in /home/bkarasulu/work/CARBON/AIRSS/Generating-Clusters/REBO/Higher-Symm/Only-C60
REM
REM
REM
REM
REM
REM ./C.cell (a2850807a9bf4ad07a5b6933b78d9264)
REM AIRSS Version 0.9.1 bugfix July 2018 build 013d7b7c2542+ Fri, 06 Jul 2018 19:26:36 +0100
REM compiler GCC version 9.2.1 20190827 (Red Hat 9.2.1-1)
REM options -cpp -mtune=generic -march=x86-64 -g -O0 -fpre-include=/usr/include/finclude/math-vector-fortran.h
REM seed -356469095 1554407007 2101746908 -1385070727 -885106736 -372715613 1729554830 160798085 2060041103 -436020394 -1163497454 -1220979969 -153017237 272217979 369900173 -986246472 -320522241 -691624301 -1288312328 -1302547690 -1309364547 -1709032041 -1139539692 77437695 -2000742744 2075364955 -1475750163 -81894841 -497175915 -1620093357 -130035723 -1851797838 1903670752
REM
CELL 1.54180   15.00000   15.00000   15.00000   90.00000   90.00000   90.00000
LATT -1
SFAC C  
C      1  0.4383330000000  0.5250630000000  0.7825420000000 1.0
C      1  0.5616840000000  0.5250450000000  0.2174600000000 1.0
C      1  0.4383350000000  0.4749790000000  0.2174530000000 1.0
C      1  0.5616480000000  0.4749140000000  0.7825440000000 1.0
C      1  0.6593170000000  0.7207790000000  0.3456700000000 1.0
C      1  0.3408300000000  0.7208720000000  0.6543480000000 1.0
C      1  0.6591590000000  0.2791150000000  0.6543400000000 1.0
C      1  0.3406930000000  0.2792340000000  0.3456410000000 1.0
C      1  0.5332340000000  0.5472210000000  0.6463700000000 1.0
C      1  0.4667980000000  0.5472560000000  0.3536340000000 1.0
C      1  0.5332120000000  0.4527570000000  0.3536320000000 1.0
C      1  0.4667570000000  0.4527670000000  0.6463640000000 1.0
C      1  0.3607510000000  0.4346850000000  0.6283540000000 1.0
C      1  0.6392060000000  0.4346020000000  0.3716410000000 1.0
C      1  0.3608030000000  0.5654080000000  0.3716370000000 1.0
C      1  0.6392410000000  0.5653050000000  0.6283680000000 1.0
C      1  0.7263660000000  0.6921160000000  0.4066120000000 1.0
C      1  0.2737620000000  0.6922590000000  0.5934040000000 1.0
C      1  0.7262320000000  0.3077330000000  0.5934030000000 1.0
C      1  0.2736400000000  0.3078920000000  0.4065800000000 1.0
C      1  0.5776110000000  0.6045780000000  0.4808590000000 1.0
C      1  0.4224580000000  0.6046280000000  0.5191500000000 1.0
C      1  0.5775410000000  0.3953700000000  0.5191470000000 1.0
C      1  0.4223900000000  0.3954230000000  0.4808450000000 1.0
C      1  0.3550450000000  0.3800200000000  0.5447060000000 1.0
C      1  0.6448750000000  0.3799270000000  0.4552840000000 1.0
C      1  0.3551280000000  0.6200770000000  0.4552840000000 1.0
C      1  0.6449520000000  0.6199760000000  0.5447260000000 1.0
C      1  0.2835760000000  0.4816700000000  0.3821150000000 1.0
C      1  0.7164120000000  0.4815160000000  0.6178830000000 1.0
C      1  0.2835800000000  0.5184740000000  0.6178700000000 1.0
C      1  0.7164320000000  0.5183390000000  0.3821310000000 1.0
C      1  0.6369510000000  0.4408520000000  0.6725730000000 1.0
C      1  0.3630100000000  0.4409580000000  0.3274220000000 1.0
C      1  0.6370010000000  0.5590560000000  0.3274360000000 1.0
C      1  0.3630380000000  0.5591330000000  0.6725690000000 1.0
C      1  0.3720500000000  0.5303920000000  0.2630610000000 1.0
C      1  0.6279710000000  0.5302870000000  0.7369420000000 1.0
C      1  0.3720140000000  0.4696930000000  0.7369310000000 1.0
C      1  0.6279660000000  0.4696280000000  0.2630670000000 1.0
C      1  0.4413490000000  0.4243820000000  0.3983930000000 1.0
C      1  0.5586000000000  0.4243340000000  0.6016010000000 1.0
C      1  0.4413930000000  0.5756570000000  0.6016030000000 1.0
C      1  0.5586570000000  0.5756270000000  0.3984040000000 1.0
C      1  0.5996370000000  0.6597740000000  0.3044470000000 1.0
C      1  0.4004700000000  0.6598240000000  0.6955670000000 1.0
C      1  0.5995170000000  0.3401600000000  0.6955600000000 1.0
C      1  0.4003760000000  0.3402430000000  0.3044270000000 1.0
C      1  0.2366450000000  0.4115760000000  0.4237200000000 1.0
C      1  0.7632950000000  0.4113940000000  0.5762730000000 1.0
C      1  0.2366990000000  0.5886000000000  0.5762630000000 1.0
C      1  0.7633600000000  0.5884310000000  0.4237450000000 1.0
C      1  0.2736310000000  0.6481130000000  0.4935120000000 1.0
C      1  0.7264680000000  0.6479620000000  0.5065010000000 1.0
C      1  0.2735310000000  0.3520380000000  0.5064730000000 1.0
C      1  0.7263700000000  0.3518870000000  0.4935140000000 1.0
C      1  0.4772870000000  0.5962440000000  0.7284640000000 1.0
C      1  0.5227770000000  0.5962480000000  0.2715440000000 1.0
C      1  0.4772380000000  0.4037720000000  0.2715350000000 1.0
C      1  0.5226980000000  0.4037370000000  0.7284570000000 1.0
END
