TITL C-986979-5873-1002 4.76713826727038e-06 3375 -338.2967647159 0 0 60 (C1) n - 1
REM
REM in /home/bkarasulu/work/CARBON/AIRSS/Generating-Clusters/REBO/Higher-Symm/Only-C60
REM
REM
REM
REM
REM
REM ./C.cell (a2850807a9bf4ad07a5b6933b78d9264)
REM AIRSS Version 0.9.1 bugfix July 2018 build 013d7b7c2542+ Fri, 06 Jul 2018 19:26:36 +0100
REM compiler GCC version 9.2.1 20190827 (Red Hat 9.2.1-1)
REM options -cpp -mtune=generic -march=x86-64 -g -O0 -fpre-include=/usr/include/finclude/math-vector-fortran.h
REM seed 1620245839 -1271292528 1556720672 1331586001 1675708415 -1365480832 -1464335729 -480560997 -1141466425 227520532 487684938 -1371162424 -1007224088 -673589125 -403133899 -528424223 1884364641 -1346540452 -1985273909 -1225644535 793569547 1662964376 -525670425 103450751 427844440 1946688854 -2018793526 1432457065 1675302376 1452666356 1948786684 1330998367 -407428443
REM
CELL 1.54180   15.00000   15.00000   15.00000   90.00000   90.00000   90.00000
LATT -1
SFAC C  
C      1  0.6437320000000  0.6111820000000  0.3099950000000 1.0
C      1  0.5854400000000  0.6809510000000  0.4429360000000 1.0
C      1  0.3899060000000  0.7285660000000  0.6011060000000 1.0
C      1  0.5439490000000  0.2538290000000  0.4336790000000 1.0
C      1  0.4241330000000  0.7519520000000  0.4969140000000 1.0
C      1  0.6249600000000  0.3540280000000  0.4673920000000 1.0
C      1  0.7244170000000  0.5187840000000  0.4937520000000 1.0
C      1  0.4603500000000  0.5713000000000  0.2408490000000 1.0
C      1  0.5850570000000  0.2717040000000  0.5309680000000 1.0
C      1  0.6832720000000  0.4192760000000  0.5133620000000 1.0
C      1  0.3251760000000  0.7094170000000  0.5119500000000 1.0
C      1  0.2964190000000  0.4300640000000  0.4784890000000 1.0
C      1  0.2671360000000  0.5161340000000  0.5467880000000 1.0
C      1  0.6602850000000  0.6333690000000  0.4814580000000 1.0
C      1  0.5403640000000  0.2911750000000  0.6127500000000 1.0
C      1  0.6358100000000  0.4655200000000  0.7081100000000 1.0
C      1  0.4493190000000  0.5432690000000  0.6829790000000 1.0
C      1  0.5516670000000  0.4665130000000  0.6053600000000 1.0
C      1  0.6065960000000  0.6377160000000  0.7252500000000 1.0
C      1  0.4920300000000  0.6797090000000  0.5856360000000 1.0
C      1  0.5827980000000  0.3249300000000  0.3700780000000 1.0
C      1  0.3487710000000  0.3354400000000  0.4420850000000 1.0
C      1  0.4355070000000  0.2628270000000  0.4320660000000 1.0
C      1  0.5311990000000  0.5853950000000  0.5487390000000 1.0
C      1  0.3498020000000  0.5710940000000  0.5987470000000 1.0
C      1  0.5012090000000  0.6654650000000  0.6928810000000 1.0
C      1  0.5742260000000  0.5646460000000  0.6440960000000 1.0
C      1  0.6792310000000  0.5658830000000  0.6758690000000 1.0
C      1  0.3902290000000  0.4345070000000  0.1479030000000 1.0
C      1  0.4425230000000  0.2963960000000  0.5981320000000 1.0
C      1  0.4405440000000  0.4641880000000  0.2191540000000 1.0
C      1  0.6922060000000  0.5615270000000  0.4000950000000 1.0
C      1  0.6089950000000  0.4951520000000  0.3609280000000 1.0
C      1  0.6530170000000  0.4134860000000  0.6106470000000 1.0
C      1  0.6192670000000  0.5209260000000  0.2573770000000 1.0
C      1  0.5291250000000  0.4787280000000  0.7353940000000 1.0
C      1  0.4888970000000  0.5008390000000  0.4934490000000 1.0
C      1  0.4704880000000  0.5972920000000  0.3385940000000 1.0
C      1  0.5816210000000  0.3654870000000  0.6846020000000 1.0
C      1  0.5417050000000  0.5132150000000  0.2049570000000 1.0
C      1  0.4775400000000  0.4084190000000  0.6632170000000 1.0
C      1  0.3935600000000  0.6410350000000  0.6658710000000 1.0
C      1  0.2897250000000  0.6229670000000  0.5220270000000 1.0
C      1  0.3430720000000  0.3308200000000  0.5541430000000 1.0
C      1  0.3833480000000  0.4109240000000  0.6239880000000 1.0
C      1  0.3335990000000  0.5013430000000  0.4012090000000 1.0
C      1  0.3620550000000  0.4123730000000  0.3647600000000 1.0
C      1  0.4258480000000  0.5003360000000  0.5818800000000 1.0
C      1  0.5154090000000  0.3937070000000  0.3461560000000 1.0
C      1  0.7072000000000  0.5967080000000  0.5745850000000 1.0
C      1  0.5221920000000  0.5198690000000  0.3947390000000 1.0
C      1  0.6165740000000  0.5123560000000  0.5290440000000 1.0
C      1  0.5650980000000  0.6512030000000  0.3538950000000 1.0
C      1  0.4653490000000  0.3331890000000  0.5044390000000 1.0
C      1  0.4349250000000  0.4127840000000  0.3056950000000 1.0
C      1  0.3768120000000  0.5783350000000  0.3851730000000 1.0
C      1  0.2774530000000  0.4151440000000  0.5894390000000 1.0
C      1  0.5181130000000  0.5813040000000  0.7656000000000 1.0
C      1  0.5181760000000  0.7218860000000  0.4895950000000 1.0
C      1  0.5225740000000  0.4034130000000  0.4590260000000 1.0
END
