TITL C-986978-6805-579 -3.59735251503484e-06 3375 -342.363777148012 0 0 60 (C4) n - 1
REM
REM in /home/bkarasulu/work/CARBON/AIRSS/Generating-Clusters/REBO/Higher-Symm/Only-C60
REM
REM
REM
REM
REM
REM ./C.cell (a2850807a9bf4ad07a5b6933b78d9264)
REM AIRSS Version 0.9.1 bugfix July 2018 build 013d7b7c2542+ Fri, 06 Jul 2018 19:26:36 +0100
REM compiler GCC version 9.2.1 20190827 (Red Hat 9.2.1-1)
REM options -cpp -mtune=generic -march=x86-64 -g -O0 -fpre-include=/usr/include/finclude/math-vector-fortran.h
REM seed 1126718338 -901591987 -1025056766 1975818471 -474475566 -848365657 103394869 463690180 1761296993 -1225496074 1392472960 1555854525 -1914294726 665471642 -538558838 -829831425 101871137 1969942322 -308479842 -1640008742 170522654 1166662794 -1482225601 -650477068 926746101 1415902708 1973010623 689352689 -1410526289 2131296153 -248532046 1636379258 599658242
REM
CELL 1.54180   15.00000   15.00000   15.00000   90.00000   90.00000   90.00000
LATT -1
SFAC C  
C      1  0.5997450000000  0.4474770000000  0.2645520000000 1.0
C      1  0.2645520000000  0.4474770000000  0.4002550000000 1.0
C      1  0.4002550000000  0.4474770000000  0.7354480000000 1.0
C      1  0.7354480000000  0.4474770000000  0.5997450000000 1.0
C      1  0.5819280000000  0.5465160000000  0.2652720000000 1.0
C      1  0.2652720000000  0.5465160000000  0.4180720000000 1.0
C      1  0.4180720000000  0.5465160000000  0.7347280000000 1.0
C      1  0.7347280000000  0.5465160000000  0.5819280000000 1.0
C      1  0.4422490000000  0.3407350000000  0.4443950000000 1.0
C      1  0.4443950000000  0.3407350000000  0.5577510000000 1.0
C      1  0.5577510000000  0.3407350000000  0.5556050000000 1.0
C      1  0.5556050000000  0.3407350000000  0.4422490000000 1.0
C      1  0.4382370000000  0.6668110000000  0.4488050000000 1.0
C      1  0.4488050000000  0.6668110000000  0.5617630000000 1.0
C      1  0.5617630000000  0.6668110000000  0.5511950000000 1.0
C      1  0.5511950000000  0.6668110000000  0.4382370000000 1.0
C      1  0.3481030000000  0.6787640000000  0.6077400000000 1.0
C      1  0.6077400000000  0.6787640000000  0.6518970000000 1.0
C      1  0.6518970000000  0.6787640000000  0.3922600000000 1.0
C      1  0.3922600000000  0.6787640000000  0.3481030000000 1.0
C      1  0.3399160000000  0.3282220000000  0.5947210000000 1.0
C      1  0.5947210000000  0.3282220000000  0.6600840000000 1.0
C      1  0.6600840000000  0.3282220000000  0.4052790000000 1.0
C      1  0.4052790000000  0.3282220000000  0.3399160000000 1.0
C      1  0.3900770000000  0.6177580000000  0.6705080000000 1.0
C      1  0.6705080000000  0.6177580000000  0.6099230000000 1.0
C      1  0.6099230000000  0.6177580000000  0.3294920000000 1.0
C      1  0.3294920000000  0.6177580000000  0.3900770000000 1.0
C      1  0.3779880000000  0.3832380000000  0.6646100000000 1.0
C      1  0.6646100000000  0.3832380000000  0.6220120000000 1.0
C      1  0.6220120000000  0.3832380000000  0.3353900000000 1.0
C      1  0.3353900000000  0.3832380000000  0.3779880000000 1.0
C      1  0.7350680000000  0.5602730000000  0.4729590000000 1.0
C      1  0.4729590000000  0.5602730000000  0.2649320000000 1.0
C      1  0.2649320000000  0.5602730000000  0.5270410000000 1.0
C      1  0.5270410000000  0.5602730000000  0.7350680000000 1.0
C      1  0.7375860000000  0.4520770000000  0.4885440000000 1.0
C      1  0.4885440000000  0.4520770000000  0.2624130000000 1.0
C      1  0.2624140000000  0.4520770000000  0.5114560000000 1.0
C      1  0.5114560000000  0.4520770000000  0.7375870000000 1.0
C      1  0.5100200000000  0.5852280000000  0.3701570000000 1.0
C      1  0.3701570000000  0.5852280000000  0.4899800000000 1.0
C      1  0.4899800000000  0.5852280000000  0.6298430000000 1.0
C      1  0.6298430000000  0.5852280000000  0.5100200000000 1.0
C      1  0.5196750000000  0.4190120000000  0.3670870000000 1.0
C      1  0.3670870000000  0.4190120000000  0.4803250000000 1.0
C      1  0.4803250000000  0.4190120000000  0.6329130000000 1.0
C      1  0.6329130000000  0.4190120000000  0.5196750000000 1.0
C      1  0.2678760000000  0.6534610000000  0.5743700000000 1.0
C      1  0.5743700000000  0.6534610000000  0.7321240000000 1.0
C      1  0.7321240000000  0.6534610000000  0.4256300000000 1.0
C      1  0.4256300000000  0.6534610000000  0.2678760000000 1.0
C      1  0.2626010000000  0.3569230000000  0.5578380000000 1.0
C      1  0.5578380000000  0.3569230000000  0.7373990000000 1.0
C      1  0.7373990000000  0.3569230000000  0.4421620000000 1.0
C      1  0.4421620000000  0.3569230000000  0.2626010000000 1.0
C      1  0.5749450000000  0.5011330000000  0.5065040000000 1.0
C      1  0.4250550000000  0.5011330000000  0.4934960000000 1.0
C      1  0.5065040000000  0.5011330000000  0.4250550000000 1.0
C      1  0.4934960000000  0.5011330000000  0.5749450000000 1.0
END
