TITL C-986975-4297-791 -0.000725566765508378 3375 -338.999259831604 0 0 60 (Ci) n - 1
REM
REM in /home/bkarasulu/work/CARBON/AIRSS/Generating-Clusters/REBO/Higher-Symm/Only-C60
REM
REM
REM
REM
REM
REM ./C.cell (a2850807a9bf4ad07a5b6933b78d9264)
REM AIRSS Version 0.9.1 bugfix July 2018 build 013d7b7c2542+ Fri, 06 Jul 2018 19:26:36 +0100
REM compiler GCC version 9.2.1 20190827 (Red Hat 9.2.1-1)
REM options -cpp -mtune=generic -march=x86-64 -g -O0 -fpre-include=/usr/include/finclude/math-vector-fortran.h
REM seed 538022593 -302257514 643188482 -114673261 -550667261 -956199255 1574593 686434604 -1547399153 1244598452 1099101202 -696678739 -1519851784 1385363761 -289040254 1937934237 503275240 60744053 1783389854 1189655443 -349350729 -1769426764 349445298 1752983989 -1351017061 -1802860751 -436238360 2048484738 -1491872361 350174880 -1741723015 1851081224 1154365051
REM
CELL 1.54180   15.00000   15.00000   15.00000   90.00000   90.00000   90.00000
LATT -1
SFAC C  
C      1  0.5342340000000  0.3188650000000  0.6529690000000 1.0
C      1  0.6444660000000  0.6712720000000  0.5406490000000 1.0
C      1  0.6103240000000  0.3196940000000  0.3929110000000 1.0
C      1  0.4657660000000  0.6811350000000  0.3470310000000 1.0
C      1  0.3555340000000  0.3287280000000  0.4593510000000 1.0
C      1  0.3896760000000  0.6803060000000  0.6070890000000 1.0
C      1  0.4741090000000  0.4966090000000  0.6962250000000 1.0
C      1  0.6468680000000  0.4976280000000  0.6261190000000 1.0
C      1  0.6855550000000  0.4945310000000  0.4389210000000 1.0
C      1  0.5258910000000  0.5033910000000  0.3037750000000 1.0
C      1  0.3531320000000  0.5023720000000  0.3738810000000 1.0
C      1  0.3144450000000  0.5054690000000  0.5610790000000 1.0
C      1  0.4423010000000  0.6193830000000  0.5271680000000 1.0
C      1  0.4770360000000  0.3798200000000  0.5782800000000 1.0
C      1  0.5458560000000  0.6181870000000  0.5527360000000 1.0
C      1  0.5576980000000  0.3806170000000  0.4728320000000 1.0
C      1  0.5229640000000  0.6201800000000  0.4217200000000 1.0
C      1  0.4541440000000  0.3818130000000  0.4472640000000 1.0
C      1  0.6920400000000  0.3748400000000  0.5628730000000 1.0
C      1  0.6431300000000  0.6323560000000  0.3550540000000 1.0
C      1  0.4468080000000  0.3744260000000  0.3058860000000 1.0
C      1  0.3079600000000  0.6251600000000  0.4371270000000 1.0
C      1  0.3568700000000  0.3676440000000  0.6449460000000 1.0
C      1  0.5531910000000  0.6255740000000  0.6941140000000 1.0
C      1  0.4439790000000  0.6042100000000  0.6723300000000 1.0
C      1  0.6239550000000  0.3885350000000  0.6498780000000 1.0
C      1  0.6839180000000  0.6071430000000  0.4552220000000 1.0
C      1  0.5560220000000  0.3957900000000  0.3276700000000 1.0
C      1  0.3760450000000  0.6114650000000  0.3501220000000 1.0
C      1  0.3160820000000  0.3928570000000  0.5447780000000 1.0
C      1  0.4129160000000  0.3016520000000  0.5449370000000 1.0
C      1  0.4971370000000  0.7075620000000  0.6073720000000 1.0
C      1  0.5788440000000  0.3064940000000  0.5550610000000 1.0
C      1  0.5870840000000  0.6983480000000  0.4550630000000 1.0
C      1  0.5028630000000  0.2924370000000  0.3926280000000 1.0
C      1  0.4211560000000  0.6935060000000  0.4449390000000 1.0
C      1  0.5856980000000  0.4768970000000  0.4692050000000 1.0
C      1  0.5193760000000  0.5239540000000  0.4080990000000 1.0
C      1  0.4318800000000  0.4812630000000  0.4404970000000 1.0
C      1  0.4143020000000  0.5231030000000  0.5307950000000 1.0
C      1  0.4806240000000  0.4760460000000  0.5919010000000 1.0
C      1  0.5681200000000  0.5187370000000  0.5595030000000 1.0
C      1  0.4246160000000  0.2878210000000  0.6541570000000 1.0
C      1  0.5992330000000  0.7010500000000  0.6402430000000 1.0
C      1  0.6647360000000  0.3051370000000  0.4913410000000 1.0
C      1  0.5753840000000  0.7121790000000  0.3458430000000 1.0
C      1  0.4007670000000  0.2989500000000  0.3597570000000 1.0
C      1  0.3352640000000  0.6948630000000  0.5086590000000 1.0
C      1  0.3765750000000  0.4436360000000  0.6976770000000 1.0
C      1  0.6077300000000  0.5518850000000  0.7127390000000 1.0
C      1  0.7296060000000  0.4526490000000  0.5287800000000 1.0
C      1  0.6234250000000  0.5563640000000  0.3023230000000 1.0
C      1  0.3922700000000  0.4481150000000  0.2872610000000 1.0
C      1  0.2703940000000  0.5473510000000  0.4712200000000 1.0
C      1  0.3554020000000  0.5353810000000  0.6543570000000 1.0
C      1  0.5690820000000  0.4547950000000  0.7239110000000 1.0
C      1  0.7098710000000  0.5554330000000  0.5531630000000 1.0
C      1  0.6445970000000  0.4646190000000  0.3456430000000 1.0
C      1  0.4309180000000  0.5452050000000  0.2760890000000 1.0
C      1  0.2901290000000  0.4445670000000  0.4468370000000 1.0
END
