TITL C-986978-6805-1059 0.175105383446952 3375 -334.26750586511 0 0 60 (C1) n - 1
REM
REM in /home/bkarasulu/work/CARBON/AIRSS/Generating-Clusters/REBO/Higher-Symm/Only-C60
REM
REM
REM
REM
REM
REM ./C.cell (a2850807a9bf4ad07a5b6933b78d9264)
REM AIRSS Version 0.9.1 bugfix July 2018 build 013d7b7c2542+ Fri, 06 Jul 2018 19:26:36 +0100
REM compiler GCC version 9.2.1 20190827 (Red Hat 9.2.1-1)
REM options -cpp -mtune=generic -march=x86-64 -g -O0 -fpre-include=/usr/include/finclude/math-vector-fortran.h
REM seed 282220420 -1368091112 1791843651 573534322 -970219496 -714201156 894716985 -1403868099 -381412987 -650013166 -1674830183 201217699 -1834536167 -93180028 -2112121622 1760110219 187562903 395243574 1267815800 -923746104 -141288282 -370501969 -525168537 -457433059 -535148895 1042745008 483152986 -1138052335 -1839600437 1717565484 -1652642506 -736821446 752246014
REM
CELL 1.54180   15.00000   15.00000   15.00000   90.00000   90.00000   90.00000
LATT -1
SFAC C  
C      1  0.6840630000000  0.4084000000000  0.6090780000000 1.0
C      1  0.6729360000000  0.4369480000000  0.3815940000000 1.0
C      1  0.6882520000000  0.6197340000000  0.5174930000000 1.0
C      1  0.5105780000000  0.3335440000000  0.5966780000000 1.0
C      1  0.5110580000000  0.4980990000000  0.3222520000000 1.0
C      1  0.5226090000000  0.6561300000000  0.5988610000000 1.0
C      1  0.7200260000000  0.5931580000000  0.4296640000000 1.0
C      1  0.7241280000000  0.4946890000000  0.6302870000000 1.0
C      1  0.7104260000000  0.3720500000000  0.4435380000000 1.0
C      1  0.4358340000000  0.7086290000000  0.6417480000000 1.0
C      1  0.4199950000000  0.2752910000000  0.6201580000000 1.0
C      1  0.4227630000000  0.5128680000000  0.2582100000000 1.0
C      1  0.3343260000000  0.3273120000000  0.6298580000000 1.0
C      1  0.3337720000000  0.4882660000000  0.2985120000000 1.0
C      1  0.3474950000000  0.6933100000000  0.5961910000000 1.0
C      1  0.4119020000000  0.5587250000000  0.6934980000000 1.0
C      1  0.3962630000000  0.3083150000000  0.4653630000000 1.0
C      1  0.4117730000000  0.6360320000000  0.3594130000000 1.0
C      1  0.4981230000000  0.6061740000000  0.3129200000000 1.0
C      1  0.5019940000000  0.6078420000000  0.6949910000000 1.0
C      1  0.4855620000000  0.2773400000000  0.5058530000000 1.0
C      1  0.4100350000000  0.2027120000000  0.5434610000000 1.0
C      1  0.4231110000000  0.6149600000000  0.2295250000000 1.0
C      1  0.4298630000000  0.6796280000000  0.7434790000000 1.0
C      1  0.5759890000000  0.4568880000000  0.4036480000000 1.0
C      1  0.5888950000000  0.6030130000000  0.5256540000000 1.0
C      1  0.5848740000000  0.4176690000000  0.5920120000000 1.0
C      1  0.4116480000000  0.4677510000000  0.6766190000000 1.0
C      1  0.3989470000000  0.3704930000000  0.3969460000000 1.0
C      1  0.4171220000000  0.6647850000000  0.4471870000000 1.0
C      1  0.2519940000000  0.6260460000000  0.7274640000000 1.0
C      1  0.2342450000000  0.2511480000000  0.5069240000000 1.0
C      1  0.2492100000000  0.6425290000000  0.2888860000000 1.0
C      1  0.3305130000000  0.6007020000000  0.2962460000000 1.0
C      1  0.3361090000000  0.6367170000000  0.6923990000000 1.0
C      1  0.3194240000000  0.2727820000000  0.5331880000000 1.0
C      1  0.7386670000000  0.5845140000000  0.5954490000000 1.0
C      1  0.7291710000000  0.3562540000000  0.5377700000000 1.0
C      1  0.7247140000000  0.5199170000000  0.3659860000000 1.0
C      1  0.3270780000000  0.4109360000000  0.3501040000000 1.0
C      1  0.3449210000000  0.6896850000000  0.5032910000000 1.0
C      1  0.3362210000000  0.4106240000000  0.6712580000000 1.0
C      1  0.7795280000000  0.5257080000000  0.2935050000000 1.0
C      1  0.8021190000000  0.6374260000000  0.6338710000000 1.0
C      1  0.7931230000000  0.2958530000000  0.5613220000000 1.0
C      1  0.4890160000000  0.4297940000000  0.6456320000000 1.0
C      1  0.4796010000000  0.4105740000000  0.3809880000000 1.0
C      1  0.4965090000000  0.6528220000000  0.4918130000000 1.0
C      1  0.1539260000000  0.6127600000000  0.4746450000000 1.0
C      1  0.6849050000000  0.4880630000000  0.5033640000000 1.0
C      1  0.3856900000000  0.5290900000000  0.5420770000000 1.0
C      1  0.5730230000000  0.4930750000000  0.5088890000000 1.0
C      1  0.2280800000000  0.6010830000000  0.5215940000000 1.0
C      1  0.0809782000000  0.5968370000000  0.4270710000000 1.0
C      1  0.9263590000000  0.5190730000000  0.4120930000000 1.0
C      1  0.0044193100000  0.5598030000000  0.4021150000000 1.0
C      1  0.4659740000000  0.4999750000000  0.5224770000000 1.0
C      1  0.3062910000000  0.5677460000000  0.5463230000000 1.0
C      1  0.8500040000000  0.4918490000000  0.4474260000000 1.0
C      1  0.7707170000000  0.4832620000000  0.4855390000000 1.0
END
