TITL C-986979-5873-160 -4.72076342658916e-07 3375 -341.16090393813 0 0 60 (C1) n - 1
REM
REM in /home/bkarasulu/work/CARBON/AIRSS/Generating-Clusters/REBO/Higher-Symm/Only-C60
REM
REM
REM
REM
REM
REM ./C.cell (a2850807a9bf4ad07a5b6933b78d9264)
REM AIRSS Version 0.9.1 bugfix July 2018 build 013d7b7c2542+ Fri, 06 Jul 2018 19:26:36 +0100
REM compiler GCC version 9.2.1 20190827 (Red Hat 9.2.1-1)
REM options -cpp -mtune=generic -march=x86-64 -g -O0 -fpre-include=/usr/include/finclude/math-vector-fortran.h
REM seed 1284063477 1474951170 -2048087153 1019971361 650476453 1575381803 2090632159 1735020183 1401950192 2027790237 1459864690 289073013 -342708757 1064808475 683883300 1649844160 -1879902849 456792196 1902813145 1843387877 1289161156 225030121 -1975432143 -249963250 -1154833342 192830878 -1825432363 -1999101526 138296416 1429782297 929558800 1985826261 1240134111
REM
CELL 1.54180   15.00000   15.00000   15.00000   90.00000   90.00000   90.00000
LATT -1
SFAC C  
C      1  0.3713220000000  0.5535940000000  0.3229990000000 1.0
C      1  0.5905110000000  0.6086990000000  0.7211060000000 1.0
C      1  0.2603830000000  0.5084330000000  0.4449740000000 1.0
C      1  0.6169700000000  0.4622090000000  0.2752020000000 1.0
C      1  0.3109580000000  0.4735760000000  0.3574400000000 1.0
C      1  0.6606770000000  0.3040340000000  0.4885190000000 1.0
C      1  0.7159120000000  0.5321150000000  0.6001660000000 1.0
C      1  0.6302430000000  0.6716360000000  0.3816920000000 1.0
C      1  0.5490440000000  0.5214130000000  0.5228070000000 1.0
C      1  0.4957400000000  0.5299770000000  0.7718150000000 1.0
C      1  0.3904910000000  0.6117920000000  0.6610280000000 1.0
C      1  0.4951590000000  0.4401130000000  0.7657390000000 1.0
C      1  0.4101110000000  0.6658670000000  0.5759600000000 1.0
C      1  0.5494670000000  0.3377730000000  0.6535320000000 1.0
C      1  0.7110140000000  0.6312450000000  0.5802660000000 1.0
C      1  0.5135810000000  0.4639440000000  0.2526030000000 1.0
C      1  0.4402590000000  0.6949820000000  0.4078350000000 1.0
C      1  0.5038930000000  0.5281550000000  0.3975440000000 1.0
C      1  0.3314780000000  0.5868770000000  0.4675100000000 1.0
C      1  0.4367950000000  0.5526600000000  0.4601000000000 1.0
C      1  0.4624800000000  0.5263200000000  0.3103910000000 1.0
C      1  0.4289020000000  0.7363900000000  0.4943610000000 1.0
C      1  0.3290200000000  0.3652140000000  0.5593350000000 1.0
C      1  0.3017180000000  0.3831240000000  0.4302360000000 1.0
C      1  0.5305740000000  0.6620950000000  0.3974370000000 1.0
C      1  0.6344070000000  0.5537950000000  0.7731600000000 1.0
C      1  0.7047430000000  0.4990000000000  0.2504840000000 1.0
C      1  0.5145060000000  0.4206770000000  0.5051340000000 1.0
C      1  0.7400360000000  0.5516810000000  0.3072240000000 1.0
C      1  0.4010180000000  0.2392940000000  0.4764550000000 1.0
C      1  0.4772900000000  0.3708600000000  0.7036220000000 1.0
C      1  0.3593420000000  0.3782270000000  0.3325240000000 1.0
C      1  0.3909260000000  0.3880930000000  0.6516490000000 1.0
C      1  0.5883050000000  0.4070820000000  0.5788650000000 1.0
C      1  0.6644240000000  0.4692560000000  0.5964690000000 1.0
C      1  0.3356090000000  0.4659530000000  0.6933840000000 1.0
C      1  0.5776090000000  0.3818980000000  0.3347040000000 1.0
C      1  0.5140320000000  0.3591730000000  0.4235750000000 1.0
C      1  0.5653280000000  0.6121600000000  0.4807600000000 1.0
C      1  0.3265040000000  0.5439740000000  0.6466970000000 1.0
C      1  0.2842540000000  0.5363360000000  0.5552050000000 1.0
C      1  0.4271460000000  0.4106350000000  0.5500650000000 1.0
C      1  0.7006940000000  0.6489700000000  0.4682900000000 1.0
C      1  0.4647670000000  0.3943340000000  0.3272110000000 1.0
C      1  0.5288800000000  0.7112200000000  0.6689130000000 1.0
C      1  0.4778800000000  0.6220010000000  0.7172980000000 1.0
C      1  0.4558270000000  0.2679520000000  0.4052860000000 1.0
C      1  0.3685900000000  0.6344780000000  0.3807720000000 1.0
C      1  0.6310080000000  0.6767380000000  0.6472550000000 1.0
C      1  0.6165520000000  0.3038330000000  0.5707610000000 1.0
C      1  0.3262950000000  0.2891480000000  0.4896580000000 1.0
C      1  0.6191860000000  0.6777670000000  0.5389210000000 1.0
C      1  0.2581200000000  0.4319280000000  0.5242930000000 1.0
C      1  0.7381240000000  0.3335210000000  0.4239210000000 1.0
C      1  0.6804910000000  0.5735240000000  0.3878960000000 1.0
C      1  0.4031110000000  0.2773960000000  0.3276950000000 1.0
C      1  0.4617490000000  0.5762720000000  0.5545970000000 1.0
C      1  0.6061550000000  0.4978400000000  0.3918130000000 1.0
C      1  0.4779530000000  0.7484070000000  0.5937820000000 1.0
C      1  0.6424430000000  0.3943400000000  0.4210660000000 1.0
END
