TITL C-986978-6805-302 -6.03500485162579e-06 3375 -345.161390968193 0 0 60 (C3i) n - 1
REM
REM in /home/bkarasulu/work/CARBON/AIRSS/Generating-Clusters/REBO/Higher-Symm/Only-C60
REM
REM
REM
REM
REM
REM ./C.cell (a2850807a9bf4ad07a5b6933b78d9264)
REM AIRSS Version 0.9.1 bugfix July 2018 build 013d7b7c2542+ Fri, 06 Jul 2018 19:26:36 +0100
REM compiler GCC version 9.2.1 20190827 (Red Hat 9.2.1-1)
REM options -cpp -mtune=generic -march=x86-64 -g -O0 -fpre-include=/usr/include/finclude/math-vector-fortran.h
REM seed 554045636 1787722551 921069332 1476309968 -78833787 183486729 2118613743 -1001129888 -790168041 998775120 503408595 2056724531 -3977994 -1526339758 213331747 -638613363 978943623 -1037337753 331482331 -2060038040 -110190359 -69286336 -799713417 -2131854662 -376446479 -278361614 1746094921 -1977268175 -1280977878 -1437317510 668600746 1609438616 2100056300
REM
CELL 1.54180   15.00000   15.00000   15.00000   90.00000   90.00000   90.00000
LATT -1
SFAC C  
C      1  0.3797270000000  0.4404270000000  0.4612360000000 1.0
C      1  0.4062870000000  0.5595720000000  0.5847730000000 1.0
C      1  0.5265650000000  0.4404400000000  0.6235490000000 1.0
C      1  0.6202730000000  0.5595730000000  0.5387640000000 1.0
C      1  0.5937130000000  0.4404280000000  0.4152270000000 1.0
C      1  0.4734350000000  0.5595600000000  0.3764510000000 1.0
C      1  0.5371720000000  0.3305990000000  0.3514250000000 1.0
C      1  0.3899010000000  0.6693830000000  0.3935070000000 1.0
C      1  0.3527400000000  0.3306070000000  0.5421150000000 1.0
C      1  0.4628280000000  0.6694010000000  0.6485750000000 1.0
C      1  0.6100990000000  0.3306170000000  0.6064930000000 1.0
C      1  0.6472600000000  0.6693930000000  0.4578850000000 1.0
C      1  0.6062570000000  0.4537050000000  0.5566620000000 1.0
C      1  0.6021950000000  0.5462990000000  0.4363060000000 1.0
C      1  0.4959410000000  0.4536910000000  0.3796530000000 1.0
C      1  0.3937430000000  0.5462950000000  0.4433380000000 1.0
C      1  0.3978050000000  0.4537010000000  0.5636940000000 1.0
C      1  0.5040590000000  0.5463090000000  0.6203470000000 1.0
C      1  0.7199050000000  0.6072570000000  0.4407210000000 1.0
C      1  0.5586250000000  0.3927320000000  0.2799260000000 1.0
C      1  0.3387130000000  0.6072420000000  0.3391840000000 1.0
C      1  0.2800950000000  0.3927430000000  0.5592790000000 1.0
C      1  0.4413750000000  0.6072680000000  0.7200740000000 1.0
C      1  0.6612870000000  0.3927580000000  0.6608160000000 1.0
C      1  0.3054570000000  0.4823580000000  0.6240700000000 1.0
C      1  0.5101750000000  0.5176610000000  0.7305130000000 1.0
C      1  0.7047190000000  0.4823660000000  0.6064460000000 1.0
C      1  0.6945430000000  0.5176420000000  0.3759300000000 1.0
C      1  0.4898250000000  0.4823390000000  0.2694870000000 1.0
C      1  0.2952810000000  0.5176340000000  0.3935540000000 1.0
C      1  0.6830870000000  0.6513110000000  0.6307060000000 1.0
C      1  0.7047510000000  0.3487000000000  0.4068070000000 1.0
C      1  0.5216550000000  0.6512840000000  0.2760720000000 1.0
C      1  0.3169130000000  0.3486890000000  0.3692940000000 1.0
C      1  0.2952490000000  0.6513000000000  0.5931930000000 1.0
C      1  0.4783450000000  0.3487160000000  0.7239280000000 1.0
C      1  0.3842080000000  0.5137220000000  0.6902270000000 1.0
C      1  0.6068470000000  0.4863020000000  0.6953930000000 1.0
C      1  0.7226380000000  0.5137180000000  0.5051640000000 1.0
C      1  0.6157920000000  0.4862780000000  0.3097730000000 1.0
C      1  0.3931530000000  0.5136980000000  0.3046070000000 1.0
C      1  0.2773620000000  0.4862820000000  0.4948360000000 1.0
C      1  0.5560180000000  0.6345010000000  0.5949810000000 1.0
C      1  0.6102770000000  0.3655090000000  0.4989880000000 1.0
C      1  0.5542500000000  0.6344890000000  0.4039810000000 1.0
C      1  0.4439820000000  0.3654990000000  0.4050190000000 1.0
C      1  0.3897230000000  0.6344910000000  0.5010120000000 1.0
C      1  0.4457500000000  0.3655110000000  0.5960190000000 1.0
C      1  0.6109800000000  0.3089960000000  0.4066820000000 1.0
C      1  0.4746570000000  0.6909900000000  0.3572150000000 1.0
C      1  0.3636900000000  0.3089940000000  0.4505700000000 1.0
C      1  0.3890200000000  0.6910040000000  0.5933180000000 1.0
C      1  0.5253430000000  0.3090100000000  0.6427850000000 1.0
C      1  0.6363100000000  0.6910060000000  0.5494300000000 1.0
C      1  0.6774750000000  0.5684800000000  0.6662030000000 1.0
C      1  0.7326800000000  0.4315350000000  0.4294090000000 1.0
C      1  0.5552000000000  0.5684520000000  0.2631920000000 1.0
C      1  0.3225250000000  0.4315200000000  0.3337970000000 1.0
C      1  0.2673200000000  0.5684650000000  0.5705910000000 1.0
C      1  0.4448000000000  0.4315480000000  0.7368080000000 1.0
END
