TITL C-986973-6940-1052 1.53895215710176e-05 3375 -330.925567879289 0 0 60 (S12) n - 1
REM
REM in /home/bkarasulu/work/CARBON/AIRSS/Generating-Clusters/REBO/Higher-Symm/Only-C60
REM
REM
REM
REM
REM
REM ./C.cell (a2850807a9bf4ad07a5b6933b78d9264)
REM AIRSS Version 0.9.1 bugfix July 2018 build 013d7b7c2542+ Fri, 06 Jul 2018 19:26:36 +0100
REM compiler GCC version 9.2.1 20190827 (Red Hat 9.2.1-1)
REM options -cpp -mtune=generic -march=x86-64 -g -O0 -fpre-include=/usr/include/finclude/math-vector-fortran.h
REM seed 1904479146 1726465761 1681235747 -1191616717 -1798041675 -941156997 -823338359 1173591872 1918311795 -918653216 -1095559285 813456394 -1781780188 -389175667 -834076474 -1422815940 -1025719175 -1341501876 -501781868 -1651416214 1993761953 1767884427 -503848873 -1312527542 1360395697 1006098064 -1710723387 243844852 -898579078 1741078042 -1933881160 595971252 179548157
REM
CELL 1.54180   15.00000   15.00000   15.00000   90.00000   90.00000   90.00000
LATT -1
SFAC C  
C      1  0.3993620000000  0.4129370000000  0.5526380000000 1.0
C      1  0.6006440000000  0.4509280000000  0.5891140000000 1.0
C      1  0.3993590000000  0.5020520000000  0.6017140000000 1.0
C      1  0.6006400000000  0.5526420000000  0.5870570000000 1.0
C      1  0.3993550000000  0.5891100000000  0.5490770000000 1.0
C      1  0.6006380000000  0.6017180000000  0.4979430000000 1.0
C      1  0.3993540000000  0.5870540000000  0.4473640000000 1.0
C      1  0.6006390000000  0.5490800000000  0.4108840000000 1.0
C      1  0.3993580000000  0.4979400000000  0.3982880000000 1.0
C      1  0.6006430000000  0.4473670000000  0.4129410000000 1.0
C      1  0.3993610000000  0.4108810000000  0.4509250000000 1.0
C      1  0.6006460000000  0.3982910000000  0.5020550000000 1.0
C      1  0.3727040000000  0.3848440000000  0.3237050000000 1.0
C      1  0.6273050000000  0.3121330000000  0.4048980000000 1.0
C      1  0.3727100000000  0.2897420000000  0.5115770000000 1.0
C      1  0.6273070000000  0.3237090000000  0.6151500000000 1.0
C      1  0.3727070000000  0.4048930000000  0.6878730000000 1.0
C      1  0.6273000000000  0.5115810000000  0.7102510000000 1.0
C      1  0.3726980000000  0.6151460000000  0.6762970000000 1.0
C      1  0.6272920000000  0.6878770000000  0.5951000000000 1.0
C      1  0.3726930000000  0.7102470000000  0.4884260000000 1.0
C      1  0.6272910000000  0.6763010000000  0.3848480000000 1.0
C      1  0.3726960000000  0.5950970000000  0.3121300000000 1.0
C      1  0.6272970000000  0.4884290000000  0.2897460000000 1.0
C      1  0.5262160000000  0.6361970000000  0.3931400000000 1.0
C      1  0.4737730000000  0.5645180000000  0.3393590000000 1.0
C      1  0.5262220000000  0.4755560000000  0.3286210000000 1.0
C      1  0.4737800000000  0.3931390000000  0.3638050000000 1.0
C      1  0.5262280000000  0.3393600000000  0.4354810000000 1.0
C      1  0.4737850000000  0.3286200000000  0.5244460000000 1.0
C      1  0.5262290000000  0.3638050000000  0.6068600000000 1.0
C      1  0.4737820000000  0.4354800000000  0.6606410000000 1.0
C      1  0.5262230000000  0.5244470000000  0.6713780000000 1.0
C      1  0.4737740000000  0.6068590000000  0.6361960000000 1.0
C      1  0.5262170000000  0.6606420000000  0.5645190000000 1.0
C      1  0.4737710000000  0.6713780000000  0.4755550000000 1.0
C      1  0.6864750000000  0.7067450000000  0.6832240000000 1.0
C      1  0.3135100000000  0.7706460000000  0.5553120000000 1.0
C      1  0.6864700000000  0.7620550000000  0.4125710000000 1.0
C      1  0.3135100000000  0.6832190000000  0.2932640000000 1.0
C      1  0.6864750000000  0.5553170000000  0.2293440000000 1.0
C      1  0.3135190000000  0.4125660000000  0.2379550000000 1.0
C      1  0.6864860000000  0.2932690000000  0.3167710000000 1.0
C      1  0.3135310000000  0.2293380000000  0.4446910000000 1.0
C      1  0.6864940000000  0.2379610000000  0.5874260000000 1.0
C      1  0.3135290000000  0.3167660000000  0.7067390000000 1.0
C      1  0.6864830000000  0.4446970000000  0.7706530000000 1.0
C      1  0.3135170000000  0.5874190000000  0.7620490000000 1.0
C      1  0.6604710000000  0.3958830000000  0.3338260000000 1.0
C      1  0.3395380000000  0.3267340000000  0.4081530000000 1.0
C      1  0.6604770000000  0.3040360000000  0.5070860000000 1.0
C      1  0.3395400000000  0.3338210000000  0.6041240000000 1.0
C      1  0.6604730000000  0.4081590000000  0.6732580000000 1.0
C      1  0.3395330000000  0.5070800000000  0.6959720000000 1.0
C      1  0.6604660000000  0.6041290000000  0.6661710000000 1.0
C      1  0.3395260000000  0.6732530000000  0.5918490000000 1.0
C      1  0.6604600000000  0.6959770000000  0.4929110000000 1.0
C      1  0.3395250000000  0.6661660000000  0.3958790000000 1.0
C      1  0.6604630000000  0.5918540000000  0.3267390000000 1.0
C      1  0.3395300000000  0.4929070000000  0.3040310000000 1.0
END
