TITL C-986974-580-723 9.33330829158445e-05 3375 -351.758394375375 0 0 60 (C1) n - 1
REM
REM in /home/bkarasulu/work/CARBON/AIRSS/Generating-Clusters/REBO/Higher-Symm/Only-C60
REM
REM
REM
REM
REM
REM ./C.cell (a2850807a9bf4ad07a5b6933b78d9264)
REM AIRSS Version 0.9.1 bugfix July 2018 build 013d7b7c2542+ Fri, 06 Jul 2018 19:26:36 +0100
REM compiler GCC version 9.2.1 20190827 (Red Hat 9.2.1-1)
REM options -cpp -mtune=generic -march=x86-64 -g -O0 -fpre-include=/usr/include/finclude/math-vector-fortran.h
REM seed -1050118768 -1189977129 159554759 674459450 -340703945 1080393494 -464788605 2077096248 1826302318 -11386479 506793967 -983353378 1110125227 -1364276494 -615959133 2037697380 -461997740 1773055257 1189878827 -1269400447 -854748439 429545088 1508811768 789732250 -1470273307 761308972 -306479064 -1010809611 -681066911 -551706299 -966618830 336399778 1793416613
REM
CELL 1.54180   15.00000   15.00000   15.00000   90.00000   90.00000   90.00000
LATT -1
SFAC C  
C      1  0.6128950000000  0.3828090000000  0.6071690000000 1.0
C      1  0.3481430000000  0.6261560000000  0.4561000000000 1.0
C      1  0.4096630000000  0.5470960000000  0.3165120000000 1.0
C      1  0.4788100000000  0.6280990000000  0.3120980000000 1.0
C      1  0.6397760000000  0.5332380000000  0.6922100000000 1.0
C      1  0.5769490000000  0.2519190000000  0.4715990000000 1.0
C      1  0.5399410000000  0.3181460000000  0.6104280000000 1.0
C      1  0.5070410000000  0.5366510000000  0.6948500000000 1.0
C      1  0.4308400000000  0.4555140000000  0.4103090000000 1.0
C      1  0.6002460000000  0.7331910000000  0.4338290000000 1.0
C      1  0.3188020000000  0.2753800000000  0.5056340000000 1.0
C      1  0.6539260000000  0.5764160000000  0.5946740000000 1.0
C      1  0.6976120000000  0.5048490000000  0.3516400000000 1.0
C      1  0.5010760000000  0.4281170000000  0.7221320000000 1.0
C      1  0.2926140000000  0.3910530000000  0.3731110000000 1.0
C      1  0.6610630000000  0.7164570000000  0.5054130000000 1.0
C      1  0.4149830000000  0.4134500000000  0.5038730000000 1.0
C      1  0.3155170000000  0.3708100000000  0.6414310000000 1.0
C      1  0.5952370000000  0.6487260000000  0.3699220000000 1.0
C      1  0.4972380000000  0.6978600000000  0.3997210000000 1.0
C      1  0.5810880000000  0.4784940000000  0.4800600000000 1.0
C      1  0.6129300000000  0.6755170000000  0.5851000000000 1.0
C      1  0.7129350000000  0.4865100000000  0.4631720000000 1.0
C      1  0.6493190000000  0.4046800000000  0.5095530000000 1.0
C      1  0.4491410000000  0.4547680000000  0.2798080000000 1.0
C      1  0.6171480000000  0.3571750000000  0.3310460000000 1.0
C      1  0.4924340000000  0.5739060000000  0.5077850000000 1.0
C      1  0.5460780000000  0.5438870000000  0.5989700000000 1.0
C      1  0.5085650000000  0.6654570000000  0.5591710000000 1.0
C      1  0.2883190000000  0.5509060000000  0.6006130000000 1.0
C      1  0.6122150000000  0.5522380000000  0.4030160000000 1.0
C      1  0.4325510000000  0.6905620000000  0.4774430000000 1.0
C      1  0.3937600000000  0.3817800000000  0.3323070000000 1.0
C      1  0.3130760000000  0.4415160000000  0.5286080000000 1.0
C      1  0.4700560000000  0.7283790000000  0.6463420000000 1.0
C      1  0.4403820000000  0.5684190000000  0.4247160000000 1.0
C      1  0.4918610000000  0.4673220000000  0.5414070000000 1.0
C      1  0.4087950000000  0.4910010000000  0.7016000000000 1.0
C      1  0.5115680000000  0.2757640000000  0.5302960000000 1.0
C      1  0.6031110000000  0.4452330000000  0.6816710000000 1.0
C      1  0.4776140000000  0.3376900000000  0.6799940000000 1.0
C      1  0.5562920000000  0.4308720000000  0.2895410000000 1.0
C      1  0.2864260000000  0.4681390000000  0.4281550000000 1.0
C      1  0.3317290000000  0.4710760000000  0.6460490000000 1.0
C      1  0.7337930000000  0.6547790000000  0.4851440000000 1.0
C      1  0.7045200000000  0.4009370000000  0.3885250000000 1.0
C      1  0.7192520000000  0.5687500000000  0.5180240000000 1.0
C      1  0.5298680000000  0.4793270000000  0.3828640000000 1.0
C      1  0.6192480000000  0.5143340000000  0.2756050000000 1.0
C      1  0.3177780000000  0.5482510000000  0.3840100000000 1.0
C      1  0.5734400000000  0.6109710000000  0.7301480000000 1.0
C      1  0.2944760000000  0.6071540000000  0.5410440000000 1.0
C      1  0.3854770000000  0.3179980000000  0.6776800000000 1.0
C      1  0.4120690000000  0.7548680000000  0.5686280000000 1.0
C      1  0.5738360000000  0.5976270000000  0.2781100000000 1.0
C      1  0.6392020000000  0.3229070000000  0.4368620000000 1.0
C      1  0.2740070000000  0.3423020000000  0.5558930000000 1.0
C      1  0.5617620000000  0.6913940000000  0.6780130000000 1.0
C      1  0.4248090000000  0.3073190000000  0.4955740000000 1.0
C      1  0.3567000000000  0.3038500000000  0.4048010000000 1.0
END
