TITL C-986979-5873-667 0.00597339044817546 3375 -377.998690956699 0 0 60 (C1) n - 1
REM
REM in /home/bkarasulu/work/CARBON/AIRSS/Generating-Clusters/REBO/Higher-Symm/Only-C60
REM
REM
REM
REM
REM
REM ./C.cell (a2850807a9bf4ad07a5b6933b78d9264)
REM AIRSS Version 0.9.1 bugfix July 2018 build 013d7b7c2542+ Fri, 06 Jul 2018 19:26:36 +0100
REM compiler GCC version 9.2.1 20190827 (Red Hat 9.2.1-1)
REM options -cpp -mtune=generic -march=x86-64 -g -O0 -fpre-include=/usr/include/finclude/math-vector-fortran.h
REM seed -1423339112 438907532 1896861938 89384630 1517792328 2087151063 1458436735 1236734328 1013261464 -172986776 1797977741 455072626 -1215935130 -949042187 1231036050 -381605991 -1649706924 825203259 -540431045 1515642045 -1222021048 -1701841164 1750456634 391488409 1378912829 -1115028598 -1854848876 1633765974 193629485 -1550073853 -1690015835 1129036778 -905421081
REM
CELL 1.54180   15.00000   15.00000   15.00000   90.00000   90.00000   90.00000
LATT -1
SFAC C  
C      1  0.4098880000000  0.5940630000000  0.4817830000000 1.0
C      1  0.4796840000000  0.3749040000000  0.4527860000000 1.0
C      1  0.6182650000000  0.5404580000000  0.4482860000000 1.0
C      1  0.5892570000000  0.5947240000000  0.5179180000000 1.0
C      1  0.5344170000000  0.3734450000000  0.5273160000000 1.0
C      1  0.3819070000000  0.5411480000000  0.5527870000000 1.0
C      1  0.6265690000000  0.6979910000000  0.5585850000000 1.0
C      1  0.2716900000000  0.5114290000000  0.5587500000000 1.0
C      1  0.6060950000000  0.2889760000000  0.5630810000000 1.0
C      1  0.3728750000000  0.6975940000000  0.4415540000000 1.0
C      1  0.7285130000000  0.5108000000000  0.4439410000000 1.0
C      1  0.3976500000000  0.2958780000000  0.4420840000000 1.0
C      1  0.7127530000000  0.4182980000000  0.3948640000000 1.0
C      1  0.4613010000000  0.7243260000000  0.3914190000000 1.0
C      1  0.3288060000000  0.3590250000000  0.3909310000000 1.0
C      1  0.2886230000000  0.4189180000000  0.6079540000000 1.0
C      1  0.5383290000000  0.7254160000000  0.6084470000000 1.0
C      1  0.6714210000000  0.3568780000000  0.6126080000000 1.0
C      1  0.5051770000000  0.6445530000000  0.6500800000000 1.0
C      1  0.3684750000000  0.4259820000000  0.6615080000000 1.0
C      1  0.6164740000000  0.4252170000000  0.6557540000000 1.0
C      1  0.4942840000000  0.6432630000000  0.3495720000000 1.0
C      1  0.6337570000000  0.4248290000000  0.3409090000000 1.0
C      1  0.3777190000000  0.4263050000000  0.3416670000000 1.0
C      1  0.4718950000000  0.4060190000000  0.3533080000000 1.0
C      1  0.6036840000000  0.5181440000000  0.3435790000000 1.0
C      1  0.4318790000000  0.5746590000000  0.3836110000000 1.0
C      1  0.5255890000000  0.4009110000000  0.6250750000000 1.0
C      1  0.3973190000000  0.5194660000000  0.6575640000000 1.0
C      1  0.5658050000000  0.5751820000000  0.6154460000000 1.0
C      1  0.5711670000000  0.2811960000000  0.4051700000000 1.0
C      1  0.6517400000000  0.6675100000000  0.4019850000000 1.0
C      1  0.2777840000000  0.5483450000000  0.4022630000000 1.0
C      1  0.4272580000000  0.2801290000000  0.5989620000000 1.0
C      1  0.3480180000000  0.6685310000000  0.5986400000000 1.0
C      1  0.7194890000000  0.5476000000000  0.5999160000000 1.0
C      1  0.6096960000000  0.7322220000000  0.4596170000000 1.0
C      1  0.2449300000000  0.4804600000000  0.4619500000000 1.0
C      1  0.6465900000000  0.2855720000000  0.4648720000000 1.0
C      1  0.3899260000000  0.7327570000000  0.5402580000000 1.0
C      1  0.7538200000000  0.4797910000000  0.5410380000000 1.0
C      1  0.3538160000000  0.2867460000000  0.5369310000000 1.0
C      1  0.2809670000000  0.3481370000000  0.5430030000000 1.0
C      1  0.7381250000000  0.3859760000000  0.5489020000000 1.0
C      1  0.4790500000000  0.7674270000000  0.5448430000000 1.0
C      1  0.7190790000000  0.3475470000000  0.4597640000000 1.0
C      1  0.2613010000000  0.3867470000000  0.4540440000000 1.0
C      1  0.5206210000000  0.7668660000000  0.4545960000000 1.0
C      1  0.3569000000000  0.5204210000000  0.3514040000000 1.0
C      1  0.5622260000000  0.3602420000000  0.3489840000000 1.0
C      1  0.5878710000000  0.6190170000000  0.3454350000000 1.0
C      1  0.6386290000000  0.5193910000000  0.6486910000000 1.0
C      1  0.4403080000000  0.3614540000000  0.6528270000000 1.0
C      1  0.4118340000000  0.6203460000000  0.6550980000000 1.0
C      1  0.7236760000000  0.6205970000000  0.4517620000000 1.0
C      1  0.2864130000000  0.6333750000000  0.4508030000000 1.0
C      1  0.4933710000000  0.2431250000000  0.4523800000000 1.0
C      1  0.2761530000000  0.6211370000000  0.5497420000000 1.0
C      1  0.7123270000000  0.6328580000000  0.5509660000000 1.0
C      1  0.5068150000000  0.2456790000000  0.5519860000000 1.0
END
