TITL C-986979-5873-720 0.0148880591980503 3375 -338.918392907801 0 0 60 (C5) n - 1
REM
REM in /home/bkarasulu/work/CARBON/AIRSS/Generating-Clusters/REBO/Higher-Symm/Only-C60
REM
REM
REM
REM
REM
REM ./C.cell (a2850807a9bf4ad07a5b6933b78d9264)
REM AIRSS Version 0.9.1 bugfix July 2018 build 013d7b7c2542+ Fri, 06 Jul 2018 19:26:36 +0100
REM compiler GCC version 9.2.1 20190827 (Red Hat 9.2.1-1)
REM options -cpp -mtune=generic -march=x86-64 -g -O0 -fpre-include=/usr/include/finclude/math-vector-fortran.h
REM seed 1102813826 -1997908551 -379300027 -1641576261 -84530027 1002744379 357773791 -1590988311 -443409573 2043339687 1722553605 605834214 747124482 -662984777 1025536892 880810395 -2065063673 -370252031 -1213390747 -1842250654 1622851345 -1563068106 23087956 1682929357 193341818 -1189034394 1693905987 -1270193226 -1963592338 -1879956107 -2084522089 -977352076 692199839
REM
CELL 1.54180   15.00000   15.00000   15.00000   90.00000   90.00000   90.00000
LATT -1
SFAC C  
C      1  0.6649740000000  0.5646460000000  0.3787270000000 1.0
C      1  0.6124780000000  0.3630900000000  0.3787090000000 1.0
C      1  0.4045300000000  0.3506870000000  0.3787070000000 1.0
C      1  0.3284880000000  0.5446780000000  0.3787140000000 1.0
C      1  0.4894420000000  0.6768810000000  0.3787150000000 1.0
C      1  0.5442190000000  0.5688920000000  0.2639260000000 1.0
C      1  0.5791650000000  0.4792090000000  0.2639190000000 1.0
C      1  0.5046870000000  0.4182650000000  0.2639000000000 1.0
C      1  0.4237000000000  0.4702590000000  0.2638920000000 1.0
C      1  0.4481350000000  0.5633530000000  0.2638950000000 1.0
C      1  0.6361360000000  0.3713980000000  0.6859700000000 1.0
C      1  0.4197580000000  0.3307880000000  0.6859620000000 1.0
C      1  0.3142710000000  0.5240240000000  0.6859600000000 1.0
C      1  0.4654490000000  0.6840650000000  0.6859630000000 1.0
C      1  0.6643760000000  0.5897400000000  0.6859720000000 1.0
C      1  0.4165290000000  0.5232390000000  0.7233210000000 1.0
C      1  0.4963020000000  0.5865710000000  0.7233260000000 1.0
C      1  0.5811830000000  0.5302720000000  0.7233290000000 1.0
C      1  0.5538700000000  0.4321490000000  0.7233190000000 1.0
C      1  0.4521110000000  0.4278010000000  0.7233160000000 1.0
C      1  0.5876310000000  0.6770530000000  0.5611380000000 1.0
C      1  0.6955020000000  0.4713750000000  0.5611790000000 1.0
C      1  0.5331840000000  0.3052460000000  0.5611720000000 1.0
C      1  0.3250730000000  0.4082780000000  0.5611360000000 1.0
C      1  0.3587190000000  0.6380140000000  0.5611490000000 1.0
C      1  0.3509100000000  0.3342230000000  0.4789490000000 1.0
C      1  0.2962670000000  0.5905630000000  0.4789480000000 1.0
C      1  0.5231790000000  0.7217420000000  0.4789630000000 1.0
C      1  0.7180330000000  0.5464720000000  0.4789530000000 1.0
C      1  0.6115760000000  0.3069780000000  0.4789660000000 1.0
C      1  0.4106100000000  0.5099640000000  0.4371400000000 1.0
C      1  0.4818690000000  0.5880860000000  0.4371330000000 1.0
C      1  0.5781560000000  0.5444700000000  0.4371860000000 1.0
C      1  0.5664340000000  0.4393920000000  0.4371620000000 1.0
C      1  0.4628740000000  0.4180730000000  0.4371250000000 1.0
C      1  0.2806220000000  0.4909440000000  0.4984480000000 1.0
C      1  0.4236020000000  0.7058250000000  0.4984520000000 1.0
C      1  0.6721280000000  0.6362550000000  0.4984550000000 1.0
C      1  0.6827710000000  0.3784080000000  0.4984500000000 1.0
C      1  0.4408190000000  0.2885790000000  0.4984410000000 1.0
C      1  0.4467160000000  0.5764170000000  0.5454980000000 1.0
C      1  0.5562440000000  0.5743030000000  0.5454930000000 1.0
C      1  0.5880770000000  0.4694700000000  0.5455240000000 1.0
C      1  0.4982160000000  0.4068060000000  0.5455220000000 1.0
C      1  0.4108490000000  0.4729440000000  0.5454800000000 1.0
C      1  0.3798180000000  0.6138220000000  0.6615450000000 1.0
C      1  0.5711130000000  0.6494830000000  0.6615640000000 1.0
C      1  0.6641500000000  0.4785590000000  0.6615750000000 1.0
C      1  0.5303270000000  0.3372700000000  0.6615550000000 1.0
C      1  0.3546130000000  0.4208780000000  0.6615390000000 1.0
C      1  0.5127380000000  0.2936350000000  0.4309060000000 1.0
C      1  0.3076760000000  0.4241350000000  0.4309020000000 1.0
C      1  0.3684350000000  0.6594640000000  0.4308830000000 1.0
C      1  0.6110070000000  0.6744310000000  0.4309260000000 1.0
C      1  0.7001990000000  0.4483610000000  0.4309020000000 1.0
C      1  0.5089890000000  0.3433520000000  0.3344140000000 1.0
C      1  0.3538240000000  0.4430720000000  0.3344360000000 1.0
C      1  0.4006550000000  0.6214270000000  0.3344420000000 1.0
C      1  0.5847910000000  0.6320450000000  0.3344030000000 1.0
C      1  0.6518010000000  0.4601820000000  0.3344060000000 1.0
END
