TITL C-986975-4297-34 4.17420962051489e-09 3375 -357.45903466456 0 0 60 (C5) n - 1
REM
REM in /home/bkarasulu/work/CARBON/AIRSS/Generating-Clusters/REBO/Higher-Symm/Only-C60
REM
REM
REM
REM
REM
REM ./C.cell (a2850807a9bf4ad07a5b6933b78d9264)
REM AIRSS Version 0.9.1 bugfix July 2018 build 013d7b7c2542+ Fri, 06 Jul 2018 19:26:36 +0100
REM compiler GCC version 9.2.1 20190827 (Red Hat 9.2.1-1)
REM options -cpp -mtune=generic -march=x86-64 -g -O0 -fpre-include=/usr/include/finclude/math-vector-fortran.h
REM seed 104916509 -76311053 246471148 600632794 -985142698 -1968832029 -314991622 36965741 -1232221821 533469013 -287283715 -1663537471 -1846166490 -228158188 1248055657 -1966668776 1966889414 -63905497 1590979862 -682479857 -131141300 -876767673 -1596657762 -330431082 1373528530 1143545765 940116825 1781977297 1443534835 -425295695 -82006137 1127079020 -1746411739
REM
CELL 1.54180   15.00000   15.00000   15.00000   90.00000   90.00000   90.00000
LATT -1
SFAC C  
C      1  0.7600530000000  0.5384550000000  0.5815480000000 1.0
C      1  0.7600530000000  0.4343270000000  0.5617730000000 1.0
C      1  0.7600530000000  0.4209560000000  0.4566300000000 1.0
C      1  0.7600530000000  0.5168220000000  0.4114230000000 1.0
C      1  0.7600530000000  0.5894400000000  0.4886260000000 1.0
C      1  0.2399470000000  0.5384550000000  0.5815480000000 1.0
C      1  0.2399470000000  0.4343270000000  0.5617730000000 1.0
C      1  0.2399470000000  0.4209560000000  0.4566300000000 1.0
C      1  0.2399470000000  0.5168220000000  0.4114230000000 1.0
C      1  0.2399470000000  0.5894400000000  0.4886260000000 1.0
C      1  0.6067430000000  0.3981350000000  0.3559250000000 1.0
C      1  0.6067430000000  0.6055450000000  0.3585990000000 1.0
C      1  0.6067430000000  0.6670950000000  0.5566840000000 1.0
C      1  0.6067430000000  0.4977250000000  0.6764330000000 1.0
C      1  0.6067430000000  0.3314990000000  0.5523580000000 1.0
C      1  0.3932570000000  0.3981350000000  0.3559250000000 1.0
C      1  0.3932570000000  0.6055450000000  0.3585990000000 1.0
C      1  0.3932570000000  0.6670950000000  0.5566840000000 1.0
C      1  0.3932570000000  0.4977250000000  0.6764330000000 1.0
C      1  0.3932570000000  0.3314990000000  0.5523580000000 1.0
C      1  0.4443200000000  0.5535130000000  0.4260970000000 1.0
C      1  0.4443200000000  0.5868220000000  0.5280560000000 1.0
C      1  0.4443200000000  0.5001460000000  0.5912430000000 1.0
C      1  0.4443200000000  0.4132680000000  0.5283350000000 1.0
C      1  0.4443200000000  0.4462510000000  0.4262690000000 1.0
C      1  0.5556800000000  0.5535130000000  0.4260970000000 1.0
C      1  0.5556800000000  0.5868220000000  0.5280560000000 1.0
C      1  0.5556800000000  0.5001460000000  0.5912430000000 1.0
C      1  0.5556800000000  0.4132680000000  0.5283350000000 1.0
C      1  0.5556800000000  0.4462510000000  0.4262690000000 1.0
C      1  0.7042060000000  0.3309670000000  0.4991250000000 1.0
C      1  0.7042060000000  0.4485980000000  0.3389700000000 1.0
C      1  0.7042060000000  0.6372650000000  0.4013530000000 1.0
C      1  0.7042060000000  0.6362360000000  0.6000630000000 1.0
C      1  0.7042060000000  0.4469340000000  0.6604890000000 1.0
C      1  0.2957940000000  0.3309670000000  0.4991250000000 1.0
C      1  0.2957940000000  0.4485980000000  0.3389700000000 1.0
C      1  0.2957940000000  0.6372650000000  0.4013530000000 1.0
C      1  0.2957940000000  0.6362360000000  0.6000630000000 1.0
C      1  0.2957940000000  0.4469340000000  0.6604890000000 1.0
C      1  0.3007880000000  0.3511860000000  0.6095080000000 1.0
C      1  0.3007880000000  0.3498660000000  0.3923090000000 1.0
C      1  0.3007880000000  0.5560260000000  0.3239350000000 1.0
C      1  0.3007880000000  0.6847600000000  0.4988770000000 1.0
C      1  0.3007880000000  0.5581620000000  0.6753710000000 1.0
C      1  0.6992120000000  0.3511860000000  0.6095080000000 1.0
C      1  0.6992120000000  0.3498660000000  0.3923090000000 1.0
C      1  0.6992120000000  0.5560260000000  0.3239350000000 1.0
C      1  0.6992120000000  0.6847600000000  0.4988770000000 1.0
C      1  0.6992120000000  0.5581620000000  0.6753710000000 1.0
C      1  0.4583120000000  0.7396840000000  0.5858620000000 1.0
C      1  0.4583120000000  0.4924070000000  0.7544860000000 1.0
C      1  0.4583120000000  0.2556230000000  0.5714190000000 1.0
C      1  0.4583120000000  0.3565600000000  0.2896540000000 1.0
C      1  0.4583120000000  0.6557260000000  0.2985800000000 1.0
C      1  0.5416880000000  0.7396840000000  0.5858620000000 1.0
C      1  0.5416880000000  0.4924070000000  0.7544860000000 1.0
C      1  0.5416880000000  0.2556230000000  0.5714190000000 1.0
C      1  0.5416880000000  0.3565600000000  0.2896540000000 1.0
C      1  0.5416880000000  0.6557260000000  0.2985800000000 1.0
END
