TITL C-986979-5873-717 -0.00345876228398801 3375 -349.585919584663 0 0 60 (D6d) n - 1
REM
REM in /home/bkarasulu/work/CARBON/AIRSS/Generating-Clusters/REBO/Higher-Symm/Only-C60
REM
REM
REM
REM
REM
REM ./C.cell (a2850807a9bf4ad07a5b6933b78d9264)
REM AIRSS Version 0.9.1 bugfix July 2018 build 013d7b7c2542+ Fri, 06 Jul 2018 19:26:36 +0100
REM compiler GCC version 9.2.1 20190827 (Red Hat 9.2.1-1)
REM options -cpp -mtune=generic -march=x86-64 -g -O0 -fpre-include=/usr/include/finclude/math-vector-fortran.h
REM seed -504704728 1057585396 1024055103 -384076893 -1978487520 262458723 400315841 -758002322 -1596522134 -1531207027 -1038624718 -222092150 -325991066 -150811957 1791331786 -241272996 1717048552 -988288881 1508246451 1126284775 -187050387 972815667 1425922215 40030862 -794823204 51287884 -116236306 1723098069 -169757176 132953537 -1837172179 454585725 -312145103
REM
CELL 1.54180   15.00000   15.00000   15.00000   90.00000   90.00000   90.00000
LATT -1
SFAC C  
C      1  0.6450240000000  0.6264300000000  0.3753080000000 1.0
C      1  0.5624450000000  0.6822310000000  0.6246260000000 1.0
C      1  0.4631200000000  0.6889420000000  0.3753350000000 1.0
C      1  0.3735180000000  0.6451020000000  0.6246500000000 1.0
C      1  0.3178200000000  0.5624340000000  0.3753510000000 1.0
C      1  0.3110160000000  0.4630990000000  0.6246290000000 1.0
C      1  0.3549320000000  0.3735450000000  0.3753400000000 1.0
C      1  0.4375760000000  0.3178080000000  0.6246280000000 1.0
C      1  0.5369120000000  0.3110430000000  0.3753430000000 1.0
C      1  0.6264680000000  0.3549260000000  0.6246430000000 1.0
C      1  0.6821770000000  0.4375860000000  0.3753300000000 1.0
C      1  0.6890010000000  0.5369240000000  0.6246310000000 1.0
C      1  0.4079530000000  0.5316100000000  0.3643070000000 1.0
C      1  0.4045120000000  0.4813500000000  0.6356940000000 1.0
C      1  0.4266750000000  0.4361570000000  0.3643010000000 1.0
C      1  0.4683830000000  0.4079650000000  0.6356890000000 1.0
C      1  0.5186580000000  0.4045210000000  0.3642970000000 1.0
C      1  0.5638520000000  0.4266860000000  0.6357020000000 1.0
C      1  0.5920330000000  0.4683760000000  0.3642830000000 1.0
C      1  0.5954960000000  0.5186830000000  0.6356990000000 1.0
C      1  0.5732990000000  0.5638180000000  0.3642690000000 1.0
C      1  0.5316220000000  0.5920730000000  0.6356970000000 1.0
C      1  0.4813290000000  0.5954600000000  0.3642880000000 1.0
C      1  0.4361490000000  0.5733500000000  0.6357100000000 1.0
C      1  0.7615680000000  0.6295240000000  0.5008450000000 1.0
C      1  0.6628350000000  0.7422630000000  0.5003550000000 1.0
C      1  0.5187320000000  0.7913260000000  0.5007720000000 1.0
C      1  0.3710010000000  0.7618440000000  0.4996920000000 1.0
C      1  0.2574030000000  0.6623610000000  0.5001890000000 1.0
C      1  0.2086900000000  0.5191890000000  0.4996880000000 1.0
C      1  0.2383430000000  0.3706180000000  0.5007010000000 1.0
C      1  0.3373480000000  0.2576030000000  0.5001640000000 1.0
C      1  0.4811220000000  0.2086810000000  0.5006050000000 1.0
C      1  0.6290880000000  0.2381950000000  0.4996180000000 1.0
C      1  0.7425830000000  0.3376210000000  0.5001640000000 1.0
C      1  0.7912950000000  0.4806960000000  0.4998010000000 1.0
C      1  0.6006760000000  0.6504880000000  0.4997710000000 1.0
C      1  0.5120230000000  0.6806720000000  0.4999640000000 1.0
C      1  0.4200420000000  0.6624490000000  0.4998210000000 1.0
C      1  0.3495240000000  0.6007140000000  0.5000120000000 1.0
C      1  0.3193130000000  0.5119850000000  0.4998420000000 1.0
C      1  0.3375410000000  0.4200690000000  0.4999950000000 1.0
C      1  0.3993090000000  0.3495140000000  0.4998210000000 1.0
C      1  0.4879990000000  0.3193210000000  0.4999920000000 1.0
C      1  0.5799510000000  0.3375460000000  0.4998490000000 1.0
C      1  0.6504780000000  0.3992820000000  0.5000080000000 1.0
C      1  0.6806860000000  0.4880170000000  0.4998190000000 1.0
C      1  0.6624610000000  0.5799020000000  0.4999380000000 1.0
C      1  0.2304070000000  0.4467320000000  0.5742680000000 1.0
C      1  0.2932220000000  0.3191570000000  0.4254770000000 1.0
C      1  0.4113030000000  0.2398560000000  0.5742040000000 1.0
C      1  0.5532670000000  0.2304190000000  0.4255910000000 1.0
C      1  0.6808460000000  0.2932210000000  0.5743980000000 1.0
C      1  0.7601340000000  0.4112870000000  0.4256290000000 1.0
C      1  0.7695940000000  0.5532870000000  0.5742060000000 1.0
C      1  0.7067540000000  0.6808110000000  0.4253710000000 1.0
C      1  0.5887290000000  0.7601560000000  0.5741170000000 1.0
C      1  0.4467500000000  0.7695700000000  0.4255400000000 1.0
C      1  0.3191580000000  0.7068000000000  0.5743610000000 1.0
C      1  0.2398550000000  0.5887040000000  0.4256610000000 1.0
END
