TITL C-986974-580-754 5.48309807562019e-06 3375 -314.87733038996 0 0 60 (T23) n - 1
REM
REM in /home/bkarasulu/work/CARBON/AIRSS/Generating-Clusters/REBO/Higher-Symm/Only-C60
REM
REM
REM
REM
REM
REM ./C.cell (a2850807a9bf4ad07a5b6933b78d9264)
REM AIRSS Version 0.9.1 bugfix July 2018 build 013d7b7c2542+ Fri, 06 Jul 2018 19:26:36 +0100
REM compiler GCC version 9.2.1 20190827 (Red Hat 9.2.1-1)
REM options -cpp -mtune=generic -march=x86-64 -g -O0 -fpre-include=/usr/include/finclude/math-vector-fortran.h
REM seed -588052133 -97813424 -2068983494 460239004 -1857670664 700517263 1852440897 2003089539 52172379 -1433550562 1399353219 -126576847 681605808 985259125 -838710372 596393476 538903153 939424857 -1735081667 -591272612 1099257375 1335404958 -1568302581 1936303719 -161299169 -1623300819 224086564 -1902030246 1295703447 -1232725543 -1527530008 -67731035 -1746437911
REM
CELL 1.54180   15.00000   15.00000   15.00000   90.00000   90.00000   90.00000
LATT -1
SFAC C  
C      1  0.4928990000000  0.4059670000000  0.4224570000000 1.0
C      1  0.4059680000000  0.4224570000000  0.4929000000000 1.0
C      1  0.4224560000000  0.4928970000000  0.4059680000000 1.0
C      1  0.5071010000000  0.4059700000000  0.5775460000000 1.0
C      1  0.5071020000000  0.5940310000000  0.4224540000000 1.0
C      1  0.4928990000000  0.5940330000000  0.5775420000000 1.0
C      1  0.5940310000000  0.4224550000000  0.5071030000000 1.0
C      1  0.5940330000000  0.5775430000000  0.4928980000000 1.0
C      1  0.4059690000000  0.5775440000000  0.5071000000000 1.0
C      1  0.5775440000000  0.4929000000000  0.5940320000000 1.0
C      1  0.5775440000000  0.5070990000000  0.4059680000000 1.0
C      1  0.4224560000000  0.5071030000000  0.5940320000000 1.0
C      1  0.4648420000000  0.5459590000000  0.7382570000000 1.0
C      1  0.5459550000000  0.7382570000000  0.4648380000000 1.0
C      1  0.7382570000000  0.4648410000000  0.5459550000000 1.0
C      1  0.5351590000000  0.5459490000000  0.2617410000000 1.0
C      1  0.5351570000000  0.4540510000000  0.7382590000000 1.0
C      1  0.4648430000000  0.4540420000000  0.2617430000000 1.0
C      1  0.4540470000000  0.7382580000000  0.5351530000000 1.0
C      1  0.4540440000000  0.2617420000000  0.4648470000000 1.0
C      1  0.5459520000000  0.2617430000000  0.5351630000000 1.0
C      1  0.2617420000000  0.4648430000000  0.4540460000000 1.0
C      1  0.2617420000000  0.5351600000000  0.5459520000000 1.0
C      1  0.7382580000000  0.5351550000000  0.4540460000000 1.0
C      1  0.4333740000000  0.6692300000000  0.4570790000000 1.0
C      1  0.6692300000000  0.4570800000000  0.4333740000000 1.0
C      1  0.4570820000000  0.4333770000000  0.6692320000000 1.0
C      1  0.5666280000000  0.6692310000000  0.5429140000000 1.0
C      1  0.5666260000000  0.3307680000000  0.4570860000000 1.0
C      1  0.4333710000000  0.3307710000000  0.5429210000000 1.0
C      1  0.3307690000000  0.4570850000000  0.5666270000000 1.0
C      1  0.3307700000000  0.5429170000000  0.4333720000000 1.0
C      1  0.6692310000000  0.5429170000000  0.5666260000000 1.0
C      1  0.5429170000000  0.4333700000000  0.3307710000000 1.0
C      1  0.5429180000000  0.5666300000000  0.6692290000000 1.0
C      1  0.4570840000000  0.5666240000000  0.3307680000000 1.0
C      1  0.3142220000000  0.6228510000000  0.5966150000000 1.0
C      1  0.6228490000000  0.5966140000000  0.3142200000000 1.0
C      1  0.5966160000000  0.3142240000000  0.6228520000000 1.0
C      1  0.6857790000000  0.6228450000000  0.4033800000000 1.0
C      1  0.6857770000000  0.3771520000000  0.5966200000000 1.0
C      1  0.3142210000000  0.3771510000000  0.4033830000000 1.0
C      1  0.3771520000000  0.5966220000000  0.6857760000000 1.0
C      1  0.3771520000000  0.4033790000000  0.3142230000000 1.0
C      1  0.6228470000000  0.4033850000000  0.6857800000000 1.0
C      1  0.4033810000000  0.3142200000000  0.3771550000000 1.0
C      1  0.4033830000000  0.6857810000000  0.6228450000000 1.0
C      1  0.5966190000000  0.6857750000000  0.3771490000000 1.0
C      1  0.5109800000000  0.7141290000000  0.6308540000000 1.0
C      1  0.7141280000000  0.6308560000000  0.5109770000000 1.0
C      1  0.6308580000000  0.5109830000000  0.7141260000000 1.0
C      1  0.4890220000000  0.7141240000000  0.3691380000000 1.0
C      1  0.4890180000000  0.2858760000000  0.6308620000000 1.0
C      1  0.5109780000000  0.2858700000000  0.3691470000000 1.0
C      1  0.2858750000000  0.6308590000000  0.4890170000000 1.0
C      1  0.2858730000000  0.3691440000000  0.5109810000000 1.0
C      1  0.7141250000000  0.3691400000000  0.4890230000000 1.0
C      1  0.3691430000000  0.5109770000000  0.2858730000000 1.0
C      1  0.3691420000000  0.4890250000000  0.7141270000000 1.0
C      1  0.6308580000000  0.4890160000000  0.2858740000000 1.0
END
