TITL C-986978-6805-488 -0.00776309058297257 3375 -340.164125076973 0 0 60 (Ci) n - 1
REM
REM in /home/bkarasulu/work/CARBON/AIRSS/Generating-Clusters/REBO/Higher-Symm/Only-C60
REM
REM
REM
REM
REM
REM ./C.cell (a2850807a9bf4ad07a5b6933b78d9264)
REM AIRSS Version 0.9.1 bugfix July 2018 build 013d7b7c2542+ Fri, 06 Jul 2018 19:26:36 +0100
REM compiler GCC version 9.2.1 20190827 (Red Hat 9.2.1-1)
REM options -cpp -mtune=generic -march=x86-64 -g -O0 -fpre-include=/usr/include/finclude/math-vector-fortran.h
REM seed 2012141671 -1096852367 492956366 -1290372765 954347344 -1065099529 -1826901737 1021948434 342700236 1675293252 -811926181 2039620965 -677192239 -837183833 -522224938 491630366 -1264807988 -605789120 -2055344111 -1180240011 -1223351260 1134650005 573282500 -268473912 577283001 718304088 -1037096914 1160251389 258275835 230769650 1123989912 -1575387079 1339200514
REM
CELL 1.54180   15.00000   15.00000   15.00000   90.00000   90.00000   90.00000
LATT -1
SFAC C  
C      1  0.3430200000000  0.3537690000000  0.4559530000000 1.0
C      1  0.6612920000000  0.6588550000000  0.4406310000000 1.0
C      1  0.3385610000000  0.3411390000000  0.5592090000000 1.0
C      1  0.6570530000000  0.6462240000000  0.5439190000000 1.0
C      1  0.4635160000000  0.6260370000000  0.2847210000000 1.0
C      1  0.5363760000000  0.3793890000000  0.2885950000000 1.0
C      1  0.4635990000000  0.6205120000000  0.7113620000000 1.0
C      1  0.5365080000000  0.3739620000000  0.7151900000000 1.0
C      1  0.5196740000000  0.5474220000000  0.2583210000000 1.0
C      1  0.4785240000000  0.4569840000000  0.2617530000000 1.0
C      1  0.5214670000000  0.5431080000000  0.7386180000000 1.0
C      1  0.4803950000000  0.4524820000000  0.7420770000000 1.0
C      1  0.4014110000000  0.6753010000000  0.5528330000000 1.0
C      1  0.5961400000000  0.3141750000000  0.5609690000000 1.0
C      1  0.4038490000000  0.6860180000000  0.4387900000000 1.0
C      1  0.5987140000000  0.3244430000000  0.4468010000000 1.0
C      1  0.4849440000000  0.3001940000000  0.3106620000000 1.0
C      1  0.5138180000000  0.7069980000000  0.3022810000000 1.0
C      1  0.4861410000000  0.2930990000000  0.6975370000000 1.0
C      1  0.5150990000000  0.6997570000000  0.6891390000000 1.0
C      1  0.3890450000000  0.4685660000000  0.3135760000000 1.0
C      1  0.6095830000000  0.5342840000000  0.3097090000000 1.0
C      1  0.3904230000000  0.4659260000000  0.6907150000000 1.0
C      1  0.6110270000000  0.5312940000000  0.6868210000000 1.0
C      1  0.4174220000000  0.3057020000000  0.3991050000000 1.0
C      1  0.5855230000000  0.7119200000000  0.3881050000000 1.0
C      1  0.4142690000000  0.2883080000000  0.6118050000000 1.0
C      1  0.5825620000000  0.6941600000000  0.6008140000000 1.0
C      1  0.4749250000000  0.3700180000000  0.4625270000000 1.0
C      1  0.5297250000000  0.6424530000000  0.4452980000000 1.0
C      1  0.4699010000000  0.3579000000000  0.5546260000000 1.0
C      1  0.5253090000000  0.6297390000000  0.5375170000000 1.0
C      1  0.4773820000000  0.7389940000000  0.5961020000000 1.0
C      1  0.5218740000000  0.2474980000000  0.6058510000000 1.0
C      1  0.4780110000000  0.7526640000000  0.3938620000000 1.0
C      1  0.5228120000000  0.2607450000000  0.4036990000000 1.0
C      1  0.5464780000000  0.4842450000000  0.6220930000000 1.0
C      1  0.4561110000000  0.5077670000000  0.6237960000000 1.0
C      1  0.5439280000000  0.4923460000000  0.3766900000000 1.0
C      1  0.4535380000000  0.5157760000000  0.3783280000000 1.0
C      1  0.5596620000000  0.4204930000000  0.5510500000000 1.0
C      1  0.4393030000000  0.5664020000000  0.5522200000000 1.0
C      1  0.5608350000000  0.4334170000000  0.4477610000000 1.0
C      1  0.4399880000000  0.5797100000000  0.4490870000000 1.0
C      1  0.6205660000000  0.3757810000000  0.3459680000000 1.0
C      1  0.3811150000000  0.6288080000000  0.3422170000000 1.0
C      1  0.6188870000000  0.3712430000000  0.6576000000000 1.0
C      1  0.3795500000000  0.6240830000000  0.6537440000000 1.0
C      1  0.7356770000000  0.4369740000000  0.4610370000000 1.0
C      1  0.2623790000000  0.5689220000000  0.4569810000000 1.0
C      1  0.7377770000000  0.4310800000000  0.5431350000000 1.0
C      1  0.2642480000000  0.5630440000000  0.5390870000000 1.0
C      1  0.6714770000000  0.5453750000000  0.5570230000000 1.0
C      1  0.3264680000000  0.4459890000000  0.5492120000000 1.0
C      1  0.6734300000000  0.5539400000000  0.4506030000000 1.0
C      1  0.3286380000000  0.4546180000000  0.4428600000000 1.0
C      1  0.3235540000000  0.5418160000000  0.3704960000000 1.0
C      1  0.6746700000000  0.4686760000000  0.3756650000000 1.0
C      1  0.3253210000000  0.5311570000000  0.6243610000000 1.0
C      1  0.6765090000000  0.4583010000000  0.6294950000000 1.0
END
