TITL C-986974-580-282 3.46493978040951e-07 3375 -335.846019626357 0 0 60 (C5) n - 1
REM
REM in /home/bkarasulu/work/CARBON/AIRSS/Generating-Clusters/REBO/Higher-Symm/Only-C60
REM
REM
REM
REM
REM
REM ./C.cell (a2850807a9bf4ad07a5b6933b78d9264)
REM AIRSS Version 0.9.1 bugfix July 2018 build 013d7b7c2542+ Fri, 06 Jul 2018 19:26:36 +0100
REM compiler GCC version 9.2.1 20190827 (Red Hat 9.2.1-1)
REM options -cpp -mtune=generic -march=x86-64 -g -O0 -fpre-include=/usr/include/finclude/math-vector-fortran.h
REM seed -447500171 34954801 2041929711 1390415733 -1874837269 1891971800 -1026667459 372851454 -79186132 1190857927 -320254892 -1614257321 873156918 1264213735 770332657 282005591 703092267 2079125589 -1658487798 -1172384882 -487231113 64755155 454533059 -2009977769 -317032651 -1539380190 2125235992 -1347138112 -654363267 1379046449 -812297340 1380600214 -95125123
REM
CELL 1.54180   15.00000   15.00000   15.00000   90.00000   90.00000   90.00000
LATT -1
SFAC C  
C      1  0.4764820000000  0.5896240000000  0.7269980000000 1.0
C      1  0.5779680000000  0.5500630000000  0.7269990000000 1.0
C      1  0.5717040000000  0.4413190000000  0.7270000000000 1.0
C      1  0.4663470000000  0.4136730000000  0.7270000000000 1.0
C      1  0.4074970000000  0.5053300000000  0.7269990000000 1.0
C      1  0.4119780000000  0.4611300000000  0.5146630000000 1.0
C      1  0.4358320000000  0.5717020000000  0.5146620000000 1.0
C      1  0.5483640000000  0.5831840000000  0.5146620000000 1.0
C      1  0.5940580000000  0.4797090000000  0.5146630000000 1.0
C      1  0.5097670000000  0.4042750000000  0.5146630000000 1.0
C      1  0.5128770000000  0.4038830000000  0.2788840000000 1.0
C      1  0.4125680000000  0.4580510000000  0.2788830000000 1.0
C      1  0.4330880000000  0.5701890000000  0.2788830000000 1.0
C      1  0.5460790000000  0.5853260000000  0.2788830000000 1.0
C      1  0.5953910000000  0.4825430000000  0.2788840000000 1.0
C      1  0.4362390000000  0.2602760000000  0.6214650000000 1.0
C      1  0.2523050000000  0.4865610000000  0.6214630000000 1.0
C      1  0.4106740000000  0.7314190000000  0.6214620000000 1.0
C      1  0.6924900000000  0.6564650000000  0.6214620000000 1.0
C      1  0.7082900000000  0.3652840000000  0.6214660000000 1.0
C      1  0.6577650000000  0.3884390000000  0.6916030000000 1.0
C      1  0.4426480000000  0.3154850000000  0.6916020000000 1.0
C      1  0.3067910000000  0.4975270000000  0.6916000000000 1.0
C      1  0.4379400000000  0.6829890000000  0.6916000000000 1.0
C      1  0.6548550000000  0.6155680000000  0.6916000000000 1.0
C      1  0.5726990000000  0.6637390000000  0.3584500000000 1.0
C      1  0.6781910000000  0.4814570000000  0.3584510000000 1.0
C      1  0.5374300000000  0.3247990000000  0.3584520000000 1.0
C      1  0.3449420000000  0.4102610000000  0.3584510000000 1.0
C      1  0.3667390000000  0.6197380000000  0.3584500000000 1.0
C      1  0.6780140000000  0.4452780000000  0.4663960000000 1.0
C      1  0.5029660000000  0.3137880000000  0.4663960000000 1.0
C      1  0.3238190000000  0.4396360000000  0.4663950000000 1.0
C      1  0.3881480000000  0.6489040000000  0.4663930000000 1.0
C      1  0.6070530000000  0.6523910000000  0.4663940000000 1.0
C      1  0.5446200000000  0.4149070000000  0.6196100000000 1.0
C      1  0.4328590000000  0.4312690000000  0.6196100000000 1.0
C      1  0.4138850000000  0.5426160000000  0.6196090000000 1.0
C      1  0.5139180000000  0.5950700000000  0.6196090000000 1.0
C      1  0.5947170000000  0.5161420000000  0.6196090000000 1.0
C      1  0.5731640000000  0.4495820000000  0.3872210000000 1.0
C      1  0.4746590000000  0.4148370000000  0.3872210000000 1.0
C      1  0.4111750000000  0.4977830000000  0.3872200000000 1.0
C      1  0.4704440000000  0.5837920000000  0.3872200000000 1.0
C      1  0.5705590000000  0.5540020000000  0.3872200000000 1.0
C      1  0.5040710000000  0.7409070000000  0.3702920000000 1.0
C      1  0.7303750000000  0.5705730000000  0.3702920000000 1.0
C      1  0.6383090000000  0.3027080000000  0.3702960000000 1.0
C      1  0.3551050000000  0.3074930000000  0.3702940000000 1.0
C      1  0.2721410000000  0.5783140000000  0.3702910000000 1.0
C      1  0.4411330000000  0.7428120000000  0.4336890000000 1.0
C      1  0.7127370000000  0.6310190000000  0.4336880000000 1.0
C      1  0.6903460000000  0.3381610000000  0.4336930000000 1.0
C      1  0.4049030000000  0.2689590000000  0.4336910000000 1.0
C      1  0.2508810000000  0.5190460000000  0.4336890000000 1.0
C      1  0.7235070000000  0.3669200000000  0.5307340000000 1.0
C      1  0.4424990000000  0.2463080000000  0.5307330000000 1.0
C      1  0.2409560000000  0.4762910000000  0.5307310000000 1.0
C      1  0.3974010000000  0.7390390000000  0.5307300000000 1.0
C      1  0.6956350000000  0.6714430000000  0.5307310000000 1.0
END
