TITL C-986975-4297-660 -6.03014738515945e-06 3375 -359.041188219755 0 0 60 (C5) n - 1
REM
REM in /home/bkarasulu/work/CARBON/AIRSS/Generating-Clusters/REBO/Higher-Symm/Only-C60
REM
REM
REM
REM
REM
REM ./C.cell (a2850807a9bf4ad07a5b6933b78d9264)
REM AIRSS Version 0.9.1 bugfix July 2018 build 013d7b7c2542+ Fri, 06 Jul 2018 19:26:36 +0100
REM compiler GCC version 9.2.1 20190827 (Red Hat 9.2.1-1)
REM options -cpp -mtune=generic -march=x86-64 -g -O0 -fpre-include=/usr/include/finclude/math-vector-fortran.h
REM seed 1467649747 -1031412871 -2008498188 -1728642741 -482575476 190589319 -1329422900 -604320774 1977855924 -847743898 -423187018 -283427091 457391910 901263876 -1003421942 -1204535573 1534185939 363262360 1923802921 -642369821 -962003756 1625256009 -1881478391 -1551580010 722057294 -464323499 2086164842 -84379026 -1833493466 1869606480 2075120912 -942806890 -456916798
REM
CELL 1.54180   15.00000   15.00000   15.00000   90.00000   90.00000   90.00000
LATT -1
SFAC C  
C      1  0.5898050000000  0.3787920000000  0.3952120000000 1.0
C      1  0.5898040000000  0.3628860000000  0.5828950000000 1.0
C      1  0.5898020000000  0.5364680000000  0.6560200000000 1.0
C      1  0.5898020000000  0.6596540000000  0.5135310000000 1.0
C      1  0.5898030000000  0.5622050000000  0.3523430000000 1.0
C      1  0.3579390000000  0.3789960000000  0.3890160000000 1.0
C      1  0.3579380000000  0.3570550000000  0.5807840000000 1.0
C      1  0.3579360000000  0.5326570000000  0.6609100000000 1.0
C      1  0.3579350000000  0.6631260000000  0.5186630000000 1.0
C      1  0.3579370000000  0.5681580000000  0.3506240000000 1.0
C      1  0.4874810000000  0.7587100000000  0.4379010000000 1.0
C      1  0.4874840000000  0.5208860000000  0.2347620000000 1.0
C      1  0.4874860000000  0.2541980000000  0.3981730000000 1.0
C      1  0.4874840000000  0.3272000000000  0.7023050000000 1.0
C      1  0.4874810000000  0.6390050000000  0.7268590000000 1.0
C      1  0.3065180000000  0.4282000000000  0.5432210000000 1.0
C      1  0.3065160000000  0.5189180000000  0.5816400000000 1.0
C      1  0.3065160000000  0.5834890000000  0.5072340000000 1.0
C      1  0.3065170000000  0.5326790000000  0.4228300000000 1.0
C      1  0.3065180000000  0.4367040000000  0.4450710000000 1.0
C      1  0.5486140000000  0.2797310000000  0.3166250000000 1.0
C      1  0.5486130000000  0.2575330000000  0.6528230000000 1.0
C      1  0.5486090000000  0.5704170000000  0.7778250000000 1.0
C      1  0.5486080000000  0.7859870000000  0.5188830000000 1.0
C      1  0.5486110000000  0.6063340000000  0.2338450000000 1.0
C      1  0.4314390000000  0.6752870000000  0.4494320000000 1.0
C      1  0.4314410000000  0.5060730000000  0.3176650000000 1.0
C      1  0.4314420000000  0.3284660000000  0.4378790000000 1.0
C      1  0.4314410000000  0.3879120000000  0.6439420000000 1.0
C      1  0.4314390000000  0.6022590000000  0.6510810000000 1.0
C      1  0.6180540000000  0.3334990000000  0.6886920000000 1.0
C      1  0.6180510000000  0.6280060000000  0.7166620000000 1.0
C      1  0.6180510000000  0.7456140000000  0.4452130000000 1.0
C      1  0.6180540000000  0.5237940000000  0.2494780000000 1.0
C      1  0.6180560000000  0.2690930000000  0.3999560000000 1.0
C      1  0.5015150000000  0.5455640000000  0.5851580000000 1.0
C      1  0.5015150000000  0.5950700000000  0.4829810000000 1.0
C      1  0.5015160000000  0.5131920000000  0.4043240000000 1.0
C      1  0.5015170000000  0.4130830000000  0.4578880000000 1.0
C      1  0.5015160000000  0.4330900000000  0.5696500000000 1.0
C      1  0.3850110000000  0.4576270000000  0.7036920000000 1.0
C      1  0.3850090000000  0.6806280000000  0.6032420000000 1.0
C      1  0.3850100000000  0.6540050000000  0.3601150000000 1.0
C      1  0.3850130000000  0.4145510000000  0.3103040000000 1.0
C      1  0.3850130000000  0.2931830000000  0.5226460000000 1.0
C      1  0.6552440000000  0.5330240000000  0.4256590000000 1.0
C      1  0.6552450000000  0.4395030000000  0.4456220000000 1.0
C      1  0.6552450000000  0.4295890000000  0.5407340000000 1.0
C      1  0.6552440000000  0.5169830000000  0.5795540000000 1.0
C      1  0.6552430000000  0.5809090000000  0.5084340000000 1.0
C      1  0.5585110000000  0.4427240000000  0.2258220000000 1.0
C      1  0.5585120000000  0.2215430000000  0.4697480000000 1.0
C      1  0.5585090000000  0.3851810000000  0.7554810000000 1.0
C      1  0.5585060000000  0.7074960000000  0.6881480000000 1.0
C      1  0.5585070000000  0.7430600000000  0.3608010000000 1.0
C      1  0.5598730000000  0.6646280000000  0.3134380000000 1.0
C      1  0.5598760000000  0.3734430000000  0.2857790000000 1.0
C      1  0.5598760000000  0.2571560000000  0.5541660000000 1.0
C      1  0.5598730000000  0.4764720000000  0.7476980000000 1.0
C      1  0.5598710000000  0.7283040000000  0.5989200000000 1.0
END
