TITL C-986976-6631-800 -3.43433443796125e-06 3375 -331.420611764217 0 0 60 (D2h) n - 1
REM
REM in /home/bkarasulu/work/CARBON/AIRSS/Generating-Clusters/REBO/Higher-Symm/Only-C60
REM
REM
REM
REM
REM
REM ./C.cell (a2850807a9bf4ad07a5b6933b78d9264)
REM AIRSS Version 0.9.1 bugfix July 2018 build 013d7b7c2542+ Fri, 06 Jul 2018 19:26:36 +0100
REM compiler GCC version 9.2.1 20190827 (Red Hat 9.2.1-1)
REM options -cpp -mtune=generic -march=x86-64 -g -O0 -fpre-include=/usr/include/finclude/math-vector-fortran.h
REM seed -1266330095 -809971978 11008219 -1893825827 377307172 1780228926 -10060751 -468515285 -109530778 63446533 -136321105 -935455246 310052874 483932830 245771446 491906967 1183206651 474076582 1217947200 -1321143588 -361995716 -233520142 -187601745 483763542 -631865904 1997220946 598045898 1061780556 1580497574 -891372737 -82423242 -913788419 1083796931
REM
CELL 1.54180   15.00000   15.00000   15.00000   90.00000   90.00000   90.00000
LATT -1
SFAC C  
C      1  0.3128250000000  0.4160420000000  0.5607380000000 1.0
C      1  0.3128250000000  0.5839580000000  0.4392620000000 1.0
C      1  0.6871750000000  0.4160420000000  0.5607380000000 1.0
C      1  0.6871750000000  0.5839580000000  0.4392620000000 1.0
C      1  0.3128250000000  0.4160420000000  0.4392620000000 1.0
C      1  0.3128250000000  0.5839580000000  0.5607380000000 1.0
C      1  0.6871750000000  0.4160420000000  0.4392620000000 1.0
C      1  0.6871750000000  0.5839580000000  0.5607380000000 1.0
C      1  0.5801430000000  0.5932010000000  0.4503600000000 1.0
C      1  0.5801430000000  0.4067990000000  0.5496400000000 1.0
C      1  0.4198570000000  0.5932010000000  0.4503600000000 1.0
C      1  0.4198570000000  0.4067990000000  0.5496400000000 1.0
C      1  0.5801430000000  0.5932010000000  0.5496400000000 1.0
C      1  0.5801430000000  0.4067990000000  0.4503600000000 1.0
C      1  0.4198570000000  0.5932010000000  0.5496400000000 1.0
C      1  0.4198570000000  0.4067990000000  0.4503600000000 1.0
C      1  0.2203780000000  0.5425270000000  0.5666260000000 1.0
C      1  0.2203780000000  0.4574730000000  0.4333740000000 1.0
C      1  0.7796220000000  0.5425270000000  0.5666260000000 1.0
C      1  0.7796220000000  0.4574730000000  0.4333740000000 1.0
C      1  0.2203780000000  0.5425270000000  0.4333740000000 1.0
C      1  0.2203780000000  0.4574730000000  0.5666260000000 1.0
C      1  0.7796220000000  0.5425270000000  0.4333740000000 1.0
C      1  0.7796220000000  0.4574730000000  0.5666260000000 1.0
C      1  0.4432750000000  0.7007810000000  0.5576980000000 1.0
C      1  0.4432750000000  0.2992190000000  0.4423020000000 1.0
C      1  0.5567250000000  0.7007810000000  0.5576980000000 1.0
C      1  0.5567250000000  0.2992190000000  0.4423020000000 1.0
C      1  0.4432750000000  0.7007810000000  0.4423020000000 1.0
C      1  0.4432750000000  0.2992190000000  0.5576980000000 1.0
C      1  0.5567250000000  0.7007810000000  0.4423020000000 1.0
C      1  0.5567250000000  0.2992190000000  0.5576980000000 1.0
C      1  0.4548390000000  0.4035640000000  0.2932670000000 1.0
C      1  0.4548390000000  0.5964360000000  0.7067330000000 1.0
C      1  0.5451610000000  0.4035640000000  0.2932670000000 1.0
C      1  0.5451610000000  0.5964360000000  0.7067330000000 1.0
C      1  0.4548390000000  0.4035640000000  0.7067330000000 1.0
C      1  0.4548390000000  0.5964360000000  0.2932670000000 1.0
C      1  0.5451610000000  0.4035640000000  0.7067330000000 1.0
C      1  0.5451610000000  0.5964360000000  0.2932670000000 1.0
C      1  0.3931130000000  0.6661470000000  0.3460020000000 1.0
C      1  0.3931130000000  0.3338530000000  0.6539980000000 1.0
C      1  0.6068870000000  0.6661470000000  0.3460020000000 1.0
C      1  0.6068870000000  0.3338530000000  0.6539980000000 1.0
C      1  0.3931130000000  0.6661470000000  0.6539980000000 1.0
C      1  0.3931130000000  0.3338530000000  0.3460020000000 1.0
C      1  0.6068870000000  0.6661470000000  0.6539980000000 1.0
C      1  0.6068870000000  0.3338530000000  0.3460020000000 1.0
C      1  0.3600290000000  0.5546930000000  0.3390920000000 1.0
C      1  0.3600290000000  0.4453070000000  0.6609080000000 1.0
C      1  0.6399710000000  0.5546930000000  0.3390920000000 1.0
C      1  0.6399710000000  0.4453070000000  0.6609080000000 1.0
C      1  0.3600290000000  0.5546930000000  0.6609080000000 1.0
C      1  0.3600290000000  0.4453070000000  0.3390920000000 1.0
C      1  0.6399710000000  0.5546930000000  0.6609080000000 1.0
C      1  0.6399710000000  0.4453070000000  0.3390920000000 1.0
C      1  0.5000000000000  0.5446330000000  0.4209950000000 1.0
C      1  0.5000000000000  0.4553670000000  0.5790050000000 1.0
C      1  0.5000000000000  0.4553670000000  0.4209950000000 1.0
C      1  0.5000000000000  0.5446330000000  0.5790050000000 1.0
END
