TITL C-986978-6805-845 3.70856939505577e-06 3375 -365.540957128802 0 0 60 (Oh) n - 1
REM
REM in /home/bkarasulu/work/CARBON/AIRSS/Generating-Clusters/REBO/Higher-Symm/Only-C60
REM
REM
REM
REM
REM
REM ./C.cell (a2850807a9bf4ad07a5b6933b78d9264)
REM AIRSS Version 0.9.1 bugfix July 2018 build 013d7b7c2542+ Fri, 06 Jul 2018 19:26:36 +0100
REM compiler GCC version 9.2.1 20190827 (Red Hat 9.2.1-1)
REM options -cpp -mtune=generic -march=x86-64 -g -O0 -fpre-include=/usr/include/finclude/math-vector-fortran.h
REM seed 1722821944 470405840 -1827971962 -881598562 132528544 843748643 2111955515 -416617809 505679319 2065440517 -635640420 390308824 1986836957 2145028664 -1415537672 -1632573945 -1030531137 -2016551779 -389174801 2018785397 -2052357559 268530632 1334414261 -714093697 477829206 14615108 1300201386 1622768831 100156090 1914256779 -692715294 470705876 -359184892
REM
CELL 1.54180   15.00000   15.00000   15.00000   90.00000   90.00000   90.00000
LATT -1
SFAC C  
C      1  0.4474350000000  0.3851020000000  0.2540010000000 1.0
C      1  0.3851020000000  0.2540010000000  0.4474350000000 1.0
C      1  0.2540010000000  0.4474350000000  0.3851020000000 1.0
C      1  0.5525650000000  0.3851020000000  0.7459990000000 1.0
C      1  0.5525650000000  0.6148980000000  0.2540010000000 1.0
C      1  0.4474350000000  0.6148980000000  0.7459990000000 1.0
C      1  0.6148980000000  0.2540010000000  0.5525650000000 1.0
C      1  0.6148980000000  0.7459990000000  0.4474350000000 1.0
C      1  0.3851020000000  0.7459990000000  0.5525650000000 1.0
C      1  0.7459990000000  0.4474350000000  0.6148980000000 1.0
C      1  0.7459990000000  0.5525650000000  0.3851020000000 1.0
C      1  0.2540010000000  0.5525650000000  0.6148980000000 1.0
C      1  0.4474350000000  0.6148980000000  0.2540010000000 1.0
C      1  0.3851020000000  0.7459990000000  0.4474350000000 1.0
C      1  0.2540010000000  0.5525650000000  0.3851020000000 1.0
C      1  0.5525650000000  0.6148980000000  0.7459990000000 1.0
C      1  0.5525650000000  0.3851020000000  0.2540010000000 1.0
C      1  0.4474350000000  0.3851020000000  0.7459990000000 1.0
C      1  0.6148980000000  0.7459990000000  0.5525650000000 1.0
C      1  0.6148980000000  0.2540010000000  0.4474350000000 1.0
C      1  0.3851020000000  0.2540010000000  0.5525650000000 1.0
C      1  0.7459990000000  0.5525650000000  0.6148980000000 1.0
C      1  0.7459990000000  0.4474350000000  0.3851020000000 1.0
C      1  0.2540010000000  0.4474350000000  0.6148980000000 1.0
C      1  0.6148980000000  0.4474350000000  0.7459990000000 1.0
C      1  0.4474350000000  0.7459990000000  0.6148980000000 1.0
C      1  0.7459990000000  0.6148980000000  0.4474350000000 1.0
C      1  0.3851020000000  0.4474350000000  0.2540010000000 1.0
C      1  0.3851020000000  0.5525650000000  0.7459990000000 1.0
C      1  0.6148980000000  0.5525650000000  0.2540010000000 1.0
C      1  0.5525650000000  0.7459990000000  0.3851020000000 1.0
C      1  0.5525650000000  0.2540010000000  0.6148980000000 1.0
C      1  0.4474350000000  0.2540010000000  0.3851020000000 1.0
C      1  0.2540010000000  0.6148980000000  0.5525650000000 1.0
C      1  0.2540010000000  0.3851020000000  0.4474350000000 1.0
C      1  0.7459990000000  0.3851020000000  0.5525650000000 1.0
C      1  0.6148980000000  0.5525650000000  0.7459990000000 1.0
C      1  0.4474350000000  0.2540010000000  0.6148980000000 1.0
C      1  0.7459990000000  0.3851020000000  0.4474350000000 1.0
C      1  0.3851020000000  0.5525650000000  0.2540010000000 1.0
C      1  0.3851020000000  0.4474350000000  0.7459990000000 1.0
C      1  0.6148980000000  0.4474350000000  0.2540010000000 1.0
C      1  0.5525650000000  0.2540010000000  0.3851020000000 1.0
C      1  0.5525650000000  0.7459990000000  0.6148980000000 1.0
C      1  0.4474350000000  0.7459990000000  0.3851020000000 1.0
C      1  0.2540010000000  0.3851020000000  0.5525650000000 1.0
C      1  0.2540010000000  0.6148980000000  0.4474350000000 1.0
C      1  0.7459990000000  0.6148980000000  0.5525650000000 1.0
C      1  0.5000000000000  0.7018940000000  0.7018950000000 1.0
C      1  0.7018940000000  0.7018950000000  0.5000000000000 1.0
C      1  0.7018950000000  0.5000000000000  0.7018940000000 1.0
C      1  0.5000000000000  0.7018940000000  0.2981050000000 1.0
C      1  0.5000000000000  0.2981060000000  0.7018950000000 1.0
C      1  0.5000000000000  0.2981060000000  0.2981050000000 1.0
C      1  0.2981060000000  0.7018950000000  0.5000000000000 1.0
C      1  0.2981060000000  0.2981050000000  0.5000000000000 1.0
C      1  0.7018940000000  0.2981050000000  0.5000000000000 1.0
C      1  0.2981050000000  0.5000000000000  0.2981060000000 1.0
C      1  0.2981050000000  0.5000000000000  0.7018940000000 1.0
C      1  0.7018950000000  0.5000000000000  0.2981060000000 1.0
END
