TITL C-986974-580-49 0.00245666858531541 3375 -346.90352199795 0 0 60 (C1) n - 1
REM
REM in /home/bkarasulu/work/CARBON/AIRSS/Generating-Clusters/REBO/Higher-Symm/Only-C60
REM
REM
REM
REM
REM
REM ./C.cell (a2850807a9bf4ad07a5b6933b78d9264)
REM AIRSS Version 0.9.1 bugfix July 2018 build 013d7b7c2542+ Fri, 06 Jul 2018 19:26:36 +0100
REM compiler GCC version 9.2.1 20190827 (Red Hat 9.2.1-1)
REM options -cpp -mtune=generic -march=x86-64 -g -O0 -fpre-include=/usr/include/finclude/math-vector-fortran.h
REM seed 716624484 -2112752386 812661126 151409769 473906563 343558970 -1872464464 216559202 -1971306181 -1855450616 -105082408 -1962439441 -2082002228 -1603721346 -1163963106 -1011872993 1223964101 -865907105 573465751 1981453097 -963805014 -1513312772 -184010964 209718877 827179632 -468852114 2109327928 -472641534 226781922 -595012725 -30888996 2106393110 -655638543
REM
CELL 1.54180   15.00000   15.00000   15.00000   90.00000   90.00000   90.00000
LATT -1
SFAC C  
C      1  0.6246970000000  0.6098130000000  0.4978870000000 1.0
C      1  0.6324160000000  0.5531600000000  0.5749690000000 1.0
C      1  0.6546290000000  0.4647720000000  0.5437580000000 1.0
C      1  0.6501030000000  0.4668270000000  0.4477080000000 1.0
C      1  0.6271870000000  0.5560580000000  0.4168360000000 1.0
C      1  0.5279860000000  0.4418380000000  0.5783660000000 1.0
C      1  0.5083110000000  0.3944650000000  0.4890300000000 1.0
C      1  0.5051530000000  0.4711640000000  0.4136070000000 1.0
C      1  0.5031280000000  0.5675740000000  0.4641730000000 1.0
C      1  0.4998550000000  0.5416550000000  0.5677310000000 1.0
C      1  0.3885380000000  0.5213440000000  0.5854720000000 1.0
C      1  0.3566450000000  0.4310710000000  0.5558460000000 1.0
C      1  0.3987280000000  0.4106970000000  0.4650730000000 1.0
C      1  0.3960840000000  0.5040360000000  0.4192470000000 1.0
C      1  0.3932190000000  0.5732430000000  0.4957590000000 1.0
C      1  0.5121620000000  0.6565490000000  0.4175580000000 1.0
C      1  0.5186900000000  0.6272610000000  0.6229970000000 1.0
C      1  0.4932410000000  0.4054960000000  0.6592330000000 1.0
C      1  0.4952210000000  0.2890970000000  0.4994950000000 1.0
C      1  0.5183250000000  0.4611810000000  0.3105890000000 1.0
C      1  0.5035410000000  0.7399530000000  0.4924770000000 1.0
C      1  0.5109000000000  0.5667110000000  0.7165330000000 1.0
C      1  0.4197400000000  0.3400340000000  0.6458490000000 1.0
C      1  0.4957900000000  0.3056940000000  0.3868580000000 1.0
C      1  0.5036570000000  0.5652900000000  0.2734500000000 1.0
C      1  0.6470210000000  0.2869560000000  0.4569310000000 1.0
C      1  0.6497270000000  0.4624220000000  0.2909950000000 1.0
C      1  0.6468790000000  0.7111180000000  0.3920290000000 1.0
C      1  0.6526870000000  0.6587530000000  0.6533860000000 1.0
C      1  0.6839030000000  0.4028570000000  0.6857260000000 1.0
C      1  0.3613880000000  0.6324330000000  0.3740960000000 1.0
C      1  0.3676950000000  0.6633710000000  0.5940440000000 1.0
C      1  0.3659380000000  0.4803780000000  0.7102970000000 1.0
C      1  0.3205920000000  0.2856590000000  0.5060380000000 1.0
C      1  0.3523480000000  0.4177710000000  0.3276650000000 1.0
C      1  0.4543510000000  0.3784740000000  0.3306410000000 1.0
C      1  0.4622960000000  0.6440170000000  0.3237520000000 1.0
C      1  0.4679190000000  0.7121260000000  0.5834140000000 1.0
C      1  0.4632320000000  0.4763020000000  0.7195030000000 1.0
C      1  0.4136810000000  0.2861420000000  0.5682770000000 1.0
C      1  0.6081230000000  0.5591320000000  0.3079720000000 1.0
C      1  0.6068890000000  0.7166630000000  0.4891330000000 1.0
C      1  0.6162130000000  0.5619380000000  0.6848840000000 1.0
C      1  0.6743280000000  0.3867880000000  0.5930750000000 1.0
C      1  0.5992760000000  0.3134330000000  0.3804690000000 1.0
C      1  0.4076120000000  0.2558810000000  0.4386790000000 1.0
C      1  0.4185660000000  0.4898520000000  0.2671730000000 1.0
C      1  0.4174930000000  0.7201390000000  0.4227820000000 1.0
C      1  0.4296660000000  0.6423300000000  0.6897000000000 1.0
C      1  0.3351670000000  0.3917810000000  0.6810710000000 1.0
C      1  0.6343500000000  0.3793390000000  0.3229400000000 1.0
C      1  0.6483150000000  0.6557500000000  0.3310390000000 1.0
C      1  0.6501000000000  0.7062450000000  0.5863280000000 1.0
C      1  0.6649920000000  0.4815040000000  0.7282350000000 1.0
C      1  0.6740300000000  0.3084240000000  0.5408940000000 1.0
C      1  0.3393740000000  0.3407100000000  0.4078670000000 1.0
C      1  0.3391100000000  0.5311160000000  0.3347950000000 1.0
C      1  0.3438670000000  0.6640650000000  0.4831580000000 1.0
C      1  0.3440640000000  0.5768310000000  0.6650060000000 1.0
C      1  0.3008640000000  0.3543170000000  0.5875050000000 1.0
END
