TITL C-986975-4297-344 0.0299516280614512 3375 -344.902491201798 0 0 60 (C3) n - 1
REM
REM in /home/bkarasulu/work/CARBON/AIRSS/Generating-Clusters/REBO/Higher-Symm/Only-C60
REM
REM
REM
REM
REM
REM ./C.cell (a2850807a9bf4ad07a5b6933b78d9264)
REM AIRSS Version 0.9.1 bugfix July 2018 build 013d7b7c2542+ Fri, 06 Jul 2018 19:26:36 +0100
REM compiler GCC version 9.2.1 20190827 (Red Hat 9.2.1-1)
REM options -cpp -mtune=generic -march=x86-64 -g -O0 -fpre-include=/usr/include/finclude/math-vector-fortran.h
REM seed 1806730461 220557299 2102178677 -440144263 1982347142 -852060494 -364539062 2043625985 1415158955 -1468841984 -1923714070 -837254019 507591962 -208559563 604028564 -570933681 556993750 1545600549 1399999585 281493968 -31833744 1807682363 1580773165 -1476044678 469960860 1472877208 2113128977 -792588365 -332566630 1241116390 -1833118012 476533784 -985538615
REM
CELL 1.54180   15.00000   15.00000   15.00000   90.00000   90.00000   90.00000
LATT -1
SFAC C  
C      1  0.6732990000000  0.6182280000000  0.4144830000000 1.0
C      1  0.5159200000000  0.2907960000000  0.4145360000000 1.0
C      1  0.3108980000000  0.5909070000000  0.4146080000000 1.0
C      1  0.5533990000000  0.7401950000000  0.4496300000000 1.0
C      1  0.6815290000000  0.3336380000000  0.4495700000000 1.0
C      1  0.2651870000000  0.4260740000000  0.4495250000000 1.0
C      1  0.5322440000000  0.5552350000000  0.4291480000000 1.0
C      1  0.5316720000000  0.4443600000000  0.4290060000000 1.0
C      1  0.4360210000000  0.5002840000000  0.4290040000000 1.0
C      1  0.5123910000000  0.6496930000000  0.6610700000000 1.0
C      1  0.6235670000000  0.4143670000000  0.6608690000000 1.0
C      1  0.3638820000000  0.4359840000000  0.6609740000000 1.0
C      1  0.5878960000000  0.5169140000000  0.3328520000000 1.0
C      1  0.4706000000000  0.4155150000000  0.3326010000000 1.0
C      1  0.4414580000000  0.5675940000000  0.3327780000000 1.0
C      1  0.7032410000000  0.4811950000000  0.6691180000000 1.0
C      1  0.3820570000000  0.3335850000000  0.6693390000000 1.0
C      1  0.4146610000000  0.6852540000000  0.6692960000000 1.0
C      1  0.4006520000000  0.7376420000000  0.5856080000000 1.0
C      1  0.7557770000000  0.4670980000000  0.5855940000000 1.0
C      1  0.3438030000000  0.2951710000000  0.5855270000000 1.0
C      1  0.4396270000000  0.3260380000000  0.3688910000000 1.0
C      1  0.3795930000000  0.6392620000000  0.3689510000000 1.0
C      1  0.6808840000000  0.5346080000000  0.3688240000000 1.0
C      1  0.3494640000000  0.6012200000000  0.6721920000000 1.0
C      1  0.6630440000000  0.5798410000000  0.6720440000000 1.0
C      1  0.4875160000000  0.3192040000000  0.6722900000000 1.0
C      1  0.3361040000000  0.5138540000000  0.7033820000000 1.0
C      1  0.5937870000000  0.6347790000000  0.7033480000000 1.0
C      1  0.5698660000000  0.3515230000000  0.7032470000000 1.0
C      1  0.4313100000000  0.6990700000000  0.4192130000000 1.0
C      1  0.7068540000000  0.4599330000000  0.4191160000000 1.0
C      1  0.3618660000000  0.3409840000000  0.4191980000000 1.0
C      1  0.3196730000000  0.7163500000000  0.5384770000000 1.0
C      1  0.7775440000000  0.5479250000000  0.5384240000000 1.0
C      1  0.4028820000000  0.2356290000000  0.5384600000000 1.0
C      1  0.6197220000000  0.4630510000000  0.5674500000000 1.0
C      1  0.4078600000000  0.4148360000000  0.5675010000000 1.0
C      1  0.4722200000000  0.6221500000000  0.5675860000000 1.0
C      1  0.5968400000000  0.6680390000000  0.3822990000000 1.0
C      1  0.5973960000000  0.3322590000000  0.3820650000000 1.0
C      1  0.3058920000000  0.4996680000000  0.3820270000000 1.0
C      1  0.5068150000000  0.6400990000000  0.4763330000000 1.0
C      1  0.6180920000000  0.4239490000000  0.4763620000000 1.0
C      1  0.3750000000000  0.4358130000000  0.4762540000000 1.0
C      1  0.7336410000000  0.3898680000000  0.5334100000000 1.0
C      1  0.2874970000000  0.3527750000000  0.5336200000000 1.0
C      1  0.4787430000000  0.7571440000000  0.5335640000000 1.0
C      1  0.4616620000000  0.7926680000000  0.4068080000000 1.0
C      1  0.7727430000000  0.3868620000000  0.4065490000000 1.0
C      1  0.2656790000000  0.3203770000000  0.4066350000000 1.0
C      1  0.4728500000000  0.3436540000000  0.5729180000000 1.0
C      1  0.3780220000000  0.6015920000000  0.5728590000000 1.0
C      1  0.6490170000000  0.5548860000000  0.5728180000000 1.0
C      1  0.5381980000000  0.6135540000000  0.3127290000000 1.0
C      1  0.5792140000000  0.4102880000000  0.3124920000000 1.0
C      1  0.3825030000000  0.4762980000000  0.3125080000000 1.0
C      1  0.3040040000000  0.6219970000000  0.5047380000000 1.0
C      1  0.7037310000000  0.6088640000000  0.5045240000000 1.0
C      1  0.4924900000000  0.2693600000000  0.5047560000000 1.0
END
