TITL C-986977-940-116 7.86095090536255e-06 3375 -332.784571266243 0 0 60 (C1) n - 1
REM
REM in /home/bkarasulu/work/CARBON/AIRSS/Generating-Clusters/REBO/Higher-Symm/Only-C60
REM
REM
REM
REM
REM
REM ./C.cell (a2850807a9bf4ad07a5b6933b78d9264)
REM AIRSS Version 0.9.1 bugfix July 2018 build 013d7b7c2542+ Fri, 06 Jul 2018 19:26:36 +0100
REM compiler GCC version 9.2.1 20190827 (Red Hat 9.2.1-1)
REM options -cpp -mtune=generic -march=x86-64 -g -O0 -fpre-include=/usr/include/finclude/math-vector-fortran.h
REM seed 1375140551 -1998643524 -1459895253 -894783109 -1640336919 -756823893 1797050003 1978806357 -979029151 -1038656168 949556013 -1892756198 682732773 1772885725 265610435 658501496 -512259105 -2083028282 -1226838653 -1597441496 398888474 1892387170 1335615819 1659476818 1054296081 78848372 705802871 -42961537 -742158120 299072705 631415225 -1792148915 2142183291
REM
CELL 1.54180   15.00000   15.00000   15.00000   90.00000   90.00000   90.00000
LATT -1
SFAC C  
C      1  0.2425320000000  0.4176880000000  0.4360160000000 1.0
C      1  0.3930250000000  0.4191070000000  0.2633460000000 1.0
C      1  0.6188750000000  0.4209380000000  0.2719550000000 1.0
C      1  0.7599230000000  0.4271870000000  0.4414760000000 1.0
C      1  0.7100000000000  0.4280790000000  0.6645530000000 1.0
C      1  0.5084710000000  0.4218360000000  0.7567930000000 1.0
C      1  0.2878500000000  0.4149640000000  0.6589650000000 1.0
C      1  0.6144140000000  0.5593490000000  0.5101220000000 1.0
C      1  0.5677210000000  0.5667430000000  0.5974720000000 1.0
C      1  0.4588380000000  0.5539990000000  0.6186030000000 1.0
C      1  0.3730570000000  0.5557070000000  0.5503870000000 1.0
C      1  0.3769340000000  0.5570500000000  0.4361560000000 1.0
C      1  0.4705770000000  0.5576060000000  0.3703030000000 1.0
C      1  0.5781210000000  0.5557700000000  0.4066270000000 1.0
C      1  0.3625960000000  0.4373280000000  0.4902960000000 1.0
C      1  0.4201040000000  0.4388580000000  0.3922960000000 1.0
C      1  0.5323870000000  0.4350600000000  0.3760600000000 1.0
C      1  0.6147260000000  0.4386040000000  0.4544060000000 1.0
C      1  0.6045010000000  0.4400850000000  0.5673490000000 1.0
C      1  0.5089930000000  0.4525350000000  0.6271090000000 1.0
C      1  0.4036380000000  0.4353780000000  0.5964010000000 1.0
C      1  0.4840460000000  0.3453280000000  0.7130470000000 1.0
C      1  0.3129930000000  0.3422970000000  0.6255710000000 1.0
C      1  0.2855480000000  0.3462670000000  0.4310220000000 1.0
C      1  0.4248470000000  0.3487110000000  0.2942140000000 1.0
C      1  0.6167860000000  0.3483170000000  0.3126340000000 1.0
C      1  0.7260480000000  0.3485620000000  0.4752440000000 1.0
C      1  0.6629180000000  0.3495810000000  0.6603000000000 1.0
C      1  0.2888100000000  0.6191010000000  0.5086940000000 1.0
C      1  0.3604360000000  0.6201450000000  0.3432240000000 1.0
C      1  0.5354040000000  0.6177250000000  0.2986950000000 1.0
C      1  0.6831430000000  0.6004630000000  0.4052290000000 1.0
C      1  0.6929790000000  0.6015060000000  0.5743290000000 1.0
C      1  0.5526450000000  0.6062670000000  0.6974200000000 1.0
C      1  0.3774450000000  0.6128670000000  0.6698950000000 1.0
C      1  0.5633360000000  0.3275440000000  0.4024880000000 1.0
C      1  0.6205110000000  0.3316760000000  0.4914810000000 1.0
C      1  0.5836240000000  0.3302580000000  0.5895000000000 1.0
C      1  0.4911790000000  0.3166540000000  0.6263260000000 1.0
C      1  0.4031200000000  0.3274350000000  0.5661540000000 1.0
C      1  0.3877620000000  0.3290970000000  0.4612970000000 1.0
C      1  0.4595540000000  0.3241620000000  0.3880620000000 1.0
C      1  0.4256090000000  0.6794260000000  0.4140450000000 1.0
C      1  0.5272140000000  0.6770360000000  0.3862460000000 1.0
C      1  0.6189270000000  0.6783770000000  0.4366510000000 1.0
C      1  0.6204630000000  0.6857620000000  0.5505070000000 1.0
C      1  0.5319480000000  0.6913000000000  0.6251700000000 1.0
C      1  0.4193500000000  0.6840900000000  0.6070000000000 1.0
C      1  0.3835000000000  0.6810770000000  0.5091480000000 1.0
C      1  0.5734980000000  0.5107650000000  0.3019680000000 1.0
C      1  0.6982110000000  0.5015370000000  0.4245070000000 1.0
C      1  0.6850730000000  0.5048930000000  0.6082580000000 1.0
C      1  0.5305700000000  0.5125170000000  0.7217000000000 1.0
C      1  0.3371390000000  0.5091930000000  0.6478270000000 1.0
C      1  0.2784450000000  0.5119770000000  0.4699750000000 1.0
C      1  0.3839720000000  0.5123930000000  0.3126540000000 1.0
C      1  0.4860680000000  0.5027660000000  0.4949590000000 1.0
C      1  0.4927980000000  0.4138440000000  0.5007760000000 1.0
C      1  0.5162860000000  0.6737900000000  0.5186980000000 1.0
C      1  0.4873740000000  0.5946720000000  0.4955580000000 1.0
END
