TITL C-986974-580-13 -0.0136921992159396 3375 -337.855443963042 0 0 60 (C1) n - 1
REM
REM in /home/bkarasulu/work/CARBON/AIRSS/Generating-Clusters/REBO/Higher-Symm/Only-C60
REM
REM
REM
REM
REM
REM ./C.cell (a2850807a9bf4ad07a5b6933b78d9264)
REM AIRSS Version 0.9.1 bugfix July 2018 build 013d7b7c2542+ Fri, 06 Jul 2018 19:26:36 +0100
REM compiler GCC version 9.2.1 20190827 (Red Hat 9.2.1-1)
REM options -cpp -mtune=generic -march=x86-64 -g -O0 -fpre-include=/usr/include/finclude/math-vector-fortran.h
REM seed 1290190382 1713188083 1039739961 1990178769 -1943654039 -450272659 50980325 1251509743 -237546252 -984422880 -1326052977 -1170502981 1002551567 -1865774167 -518979964 1121601454 -363772375 1369070517 200734384 820248470 -60831848 -1011116318 -907650089 -1471354719 99171335 1361488410 -382323554 485040206 -1132061225 1241859440 -609874104 -1875802840 -595385892
REM
CELL 1.54180   15.00000   15.00000   15.00000   90.00000   90.00000   90.00000
LATT -1
SFAC C  
C      1  0.5682090000000  0.5699820000000  0.6168720000000 1.0
C      1  0.4360650000000  0.5741400000000  0.6028210000000 1.0
C      1  0.3818260000000  0.7491500000000  0.5650080000000 1.0
C      1  0.5346620000000  0.6783090000000  0.6122860000000 1.0
C      1  0.5412870000000  0.6492890000000  0.5071560000000 1.0
C      1  0.6434390000000  0.6756730000000  0.5876930000000 1.0
C      1  0.5169300000000  0.4786860000000  0.6575360000000 1.0
C      1  0.4178530000000  0.2844860000000  0.3736820000000 1.0
C      1  0.6378100000000  0.5845940000000  0.3803690000000 1.0
C      1  0.3306100000000  0.4955330000000  0.6243140000000 1.0
C      1  0.3669000000000  0.3593170000000  0.3736580000000 1.0
C      1  0.2813940000000  0.4971550000000  0.3714100000000 1.0
C      1  0.4655540000000  0.2710820000000  0.4627100000000 1.0
C      1  0.7609540000000  0.4790640000000  0.4520990000000 1.0
C      1  0.6585870000000  0.7119410000000  0.4985570000000 1.0
C      1  0.7127280000000  0.6459070000000  0.4398910000000 1.0
C      1  0.4551880000000  0.7415590000000  0.6191600000000 1.0
C      1  0.6175950000000  0.5857740000000  0.4881900000000 1.0
C      1  0.4799480000000  0.6214710000000  0.7674920000000 1.0
C      1  0.4491920000000  0.5022640000000  0.3836350000000 1.0
C      1  0.3289100000000  0.3897600000000  0.6354250000000 1.0
C      1  0.4574580000000  0.5992540000000  0.4740130000000 1.0
C      1  0.3663860000000  0.4111160000000  0.4741790000000 1.0
C      1  0.5343010000000  0.4351320000000  0.4968280000000 1.0
C      1  0.6642900000000  0.5184910000000  0.3007250000000 1.0
C      1  0.6361780000000  0.4031760000000  0.5229770000000 1.0
C      1  0.3340990000000  0.6234310000000  0.4371410000000 1.0
C      1  0.7355830000000  0.4606080000000  0.3461330000000 1.0
C      1  0.6868440000000  0.3990540000000  0.4275890000000 1.0
C      1  0.5535870000000  0.7234870000000  0.3521790000000 1.0
C      1  0.4243820000000  0.6352990000000  0.3722270000000 1.0
C      1  0.4579770000000  0.5981920000000  0.6862010000000 1.0
C      1  0.5757770000000  0.4521430000000  0.2928020000000 1.0
C      1  0.3387910000000  0.5930630000000  0.5700520000000 1.0
C      1  0.4561620000000  0.3388220000000  0.6286600000000 1.0
C      1  0.2632780000000  0.5217830000000  0.5376290000000 1.0
C      1  0.3642600000000  0.4555860000000  0.3485930000000 1.0
C      1  0.6776060000000  0.5702220000000  0.6044580000000 1.0
C      1  0.6792910000000  0.4624250000000  0.5848260000000 1.0
C      1  0.3373900000000  0.3411920000000  0.5546290000000 1.0
C      1  0.3336090000000  0.6822460000000  0.5201460000000 1.0
C      1  0.4619280000000  0.3692410000000  0.5193240000000 1.0
C      1  0.5489370000000  0.3919580000000  0.6225730000000 1.0
C      1  0.5739050000000  0.7324500000000  0.4444150000000 1.0
C      1  0.5516020000000  0.2149620000000  0.5936970000000 1.0
C      1  0.6061080000000  0.3112420000000  0.5671510000000 1.0
C      1  0.3911580000000  0.2595200000000  0.5448080000000 1.0
C      1  0.4604440000000  0.2324040000000  0.6213190000000 1.0
C      1  0.5828500000000  0.4141620000000  0.4014420000000 1.0
C      1  0.5326320000000  0.5399210000000  0.3816450000000 1.0
C      1  0.5334100000000  0.3590120000000  0.3219870000000 1.0
C      1  0.5089420000000  0.5228820000000  0.5327080000000 1.0
C      1  0.3743050000000  0.5204920000000  0.4641610000000 1.0
C      1  0.3961120000000  0.3704160000000  0.7114210000000 1.0
C      1  0.5013950000000  0.6509480000000  0.3164190000000 1.0
C      1  0.4237290000000  0.4694200000000  0.6837120000000 1.0
C      1  0.5597690000000  0.2409970000000  0.4911130000000 1.0
C      1  0.2417680000000  0.5099850000000  0.4524410000000 1.0
C      1  0.7268210000000  0.5561060000000  0.5032400000000 1.0
C      1  0.5612980000000  0.5640270000000  0.2744770000000 1.0
END
