TITL C-986978-6805-1075 -4.48318332176027e-06 3375 -350.227134689835 0 0 60 (Td) n - 1
REM
REM in /home/bkarasulu/work/CARBON/AIRSS/Generating-Clusters/REBO/Higher-Symm/Only-C60
REM
REM
REM
REM
REM
REM ./C.cell (a2850807a9bf4ad07a5b6933b78d9264)
REM AIRSS Version 0.9.1 bugfix July 2018 build 013d7b7c2542+ Fri, 06 Jul 2018 19:26:36 +0100
REM compiler GCC version 9.2.1 20190827 (Red Hat 9.2.1-1)
REM options -cpp -mtune=generic -march=x86-64 -g -O0 -fpre-include=/usr/include/finclude/math-vector-fortran.h
REM seed 1048541096 57880821 -900592012 -844612357 1479017127 1771926444 546391410 -1416074202 1173087739 -695984850 -1524684338 -220644928 1060962920 -138324425 260413423 2019245061 -152303282 1096239186 -970045798 -837002783 287602750 -670311572 102490004 1686958967 -1689123179 1974761760 848387377 -819968996 -1859933513 -1580833230 210924148 -1866513074 589347160
REM
CELL 1.54180   15.00000   15.00000   15.00000   90.00000   90.00000   90.00000
LATT -1
SFAC C  
C      1  0.7101570000000  0.5801570000000  0.4995600000000 1.0
C      1  0.4995600000000  0.7101570000000  0.5801570000000 1.0
C      1  0.5801570000000  0.4995600000000  0.7101570000000 1.0
C      1  0.2898430000000  0.4198430000000  0.4995600000000 1.0
C      1  0.2898430000000  0.5801570000000  0.5004400000000 1.0
C      1  0.7101570000000  0.4198430000000  0.5004400000000 1.0
C      1  0.5004400000000  0.2898430000000  0.5801570000000 1.0
C      1  0.5004400000000  0.7101570000000  0.4198430000000 1.0
C      1  0.4995600000000  0.2898430000000  0.4198430000000 1.0
C      1  0.4198430000000  0.5004400000000  0.7101570000000 1.0
C      1  0.4198430000000  0.4995600000000  0.2898430000000 1.0
C      1  0.5801570000000  0.5004400000000  0.2898430000000 1.0
C      1  0.5801570000000  0.7101570000000  0.4995600000000 1.0
C      1  0.7101570000000  0.4995600000000  0.5801570000000 1.0
C      1  0.4995600000000  0.5801570000000  0.7101570000000 1.0
C      1  0.4198430000000  0.2898430000000  0.4995600000000 1.0
C      1  0.5801570000000  0.2898430000000  0.5004400000000 1.0
C      1  0.4198430000000  0.7101570000000  0.5004400000000 1.0
C      1  0.2898430000000  0.5004400000000  0.5801570000000 1.0
C      1  0.7101570000000  0.5004400000000  0.4198430000000 1.0
C      1  0.2898430000000  0.4995600000000  0.4198430000000 1.0
C      1  0.5004400000000  0.4198430000000  0.7101570000000 1.0
C      1  0.4995600000000  0.4198430000000  0.2898430000000 1.0
C      1  0.5004400000000  0.5801570000000  0.2898430000000 1.0
C      1  0.7175130000000  0.5811090000000  0.6512140000000 1.0
C      1  0.6512140000000  0.7175130000000  0.5811090000000 1.0
C      1  0.5811090000000  0.6512140000000  0.7175130000000 1.0
C      1  0.2824870000000  0.4188910000000  0.6512140000000 1.0
C      1  0.2824870000000  0.5811090000000  0.3487860000000 1.0
C      1  0.7175130000000  0.4188910000000  0.3487860000000 1.0
C      1  0.3487860000000  0.2824870000000  0.5811090000000 1.0
C      1  0.3487860000000  0.7175130000000  0.4188910000000 1.0
C      1  0.6512140000000  0.2824870000000  0.4188910000000 1.0
C      1  0.4188910000000  0.3487860000000  0.7175130000000 1.0
C      1  0.4188910000000  0.6512140000000  0.2824870000000 1.0
C      1  0.5811090000000  0.3487860000000  0.2824870000000 1.0
C      1  0.5811090000000  0.7175130000000  0.6512140000000 1.0
C      1  0.7175130000000  0.6512140000000  0.5811090000000 1.0
C      1  0.6512140000000  0.5811090000000  0.7175130000000 1.0
C      1  0.4188910000000  0.2824870000000  0.6512140000000 1.0
C      1  0.5811090000000  0.2824870000000  0.3487860000000 1.0
C      1  0.4188910000000  0.7175130000000  0.3487860000000 1.0
C      1  0.2824870000000  0.3487860000000  0.5811090000000 1.0
C      1  0.7175130000000  0.3487860000000  0.4188910000000 1.0
C      1  0.2824870000000  0.6512140000000  0.4188910000000 1.0
C      1  0.3487860000000  0.4188910000000  0.7175130000000 1.0
C      1  0.6512140000000  0.4188910000000  0.2824870000000 1.0
C      1  0.3487860000000  0.5811090000000  0.2824870000000 1.0
C      1  0.6322620000000  0.6322620000000  0.4466060000000 1.0
C      1  0.4466060000000  0.6322620000000  0.6322620000000 1.0
C      1  0.3677380000000  0.3677380000000  0.4466060000000 1.0
C      1  0.3677380000000  0.6322620000000  0.5533940000000 1.0
C      1  0.6322620000000  0.3677380000000  0.5533940000000 1.0
C      1  0.5533940000000  0.3677380000000  0.6322620000000 1.0
C      1  0.5533940000000  0.6322620000000  0.3677380000000 1.0
C      1  0.4466060000000  0.3677380000000  0.3677380000000 1.0
C      1  0.3677380000000  0.5533940000000  0.6322620000000 1.0
C      1  0.6322620000000  0.5533940000000  0.3677380000000 1.0
C      1  0.6322620000000  0.4466060000000  0.6322620000000 1.0
C      1  0.3677380000000  0.4466060000000  0.3677380000000 1.0
END
