TITL C-986976-6631-1037 0.000186184322748769 3375 -340.888601751817 0 0 60 (Ci) n - 1
REM
REM in /home/bkarasulu/work/CARBON/AIRSS/Generating-Clusters/REBO/Higher-Symm/Only-C60
REM
REM
REM
REM
REM
REM ./C.cell (a2850807a9bf4ad07a5b6933b78d9264)
REM AIRSS Version 0.9.1 bugfix July 2018 build 013d7b7c2542+ Fri, 06 Jul 2018 19:26:36 +0100
REM compiler GCC version 9.2.1 20190827 (Red Hat 9.2.1-1)
REM options -cpp -mtune=generic -march=x86-64 -g -O0 -fpre-include=/usr/include/finclude/math-vector-fortran.h
REM seed -219778131 -1553830691 1486275580 432822031 1434404176 -727093138 173384367 -1758601382 313869005 -836705832 2068432484 -1787469082 991124240 958594763 1254011364 -894224680 -1220025099 -1553858292 1278116716 1919435391 1332069771 2021232208 -377545912 -1189206391 632880370 1585731397 553085239 364135856 -589465710 1636101331 -1648304170 -1738025459 785737575
REM
CELL 1.54180   15.00000   15.00000   15.00000   90.00000   90.00000   90.00000
LATT -1
SFAC C  
C      1  0.5324980000000  0.4951880000000  0.6240210000000 1.0
C      1  0.4675360000000  0.5048670000000  0.3759350000000 1.0
C      1  0.4308590000000  0.3618800000000  0.2943000000000 1.0
C      1  0.5692300000000  0.6381020000000  0.7057140000000 1.0
C      1  0.3530930000000  0.3656630000000  0.5541130000000 1.0
C      1  0.6469150000000  0.6343930000000  0.4458790000000 1.0
C      1  0.3055960000000  0.6758830000000  0.6553070000000 1.0
C      1  0.6943900000000  0.3240540000000  0.3447090000000 1.0
C      1  0.6337100000000  0.4943430000000  0.5713680000000 1.0
C      1  0.3663400000000  0.5056700000000  0.4286150000000 1.0
C      1  0.4494140000000  0.7290490000000  0.4540940000000 1.0
C      1  0.5504790000000  0.2706510000000  0.5461370000000 1.0
C      1  0.4399750000000  0.6618250000000  0.6187150000000 1.0
C      1  0.5598920000000  0.3383700000000  0.3812210000000 1.0
C      1  0.7672030000000  0.5940790000000  0.5755880000000 1.0
C      1  0.2328480000000  0.4059290000000  0.4244120000000 1.0
C      1  0.6083100000000  0.5320580000000  0.6963570000000 1.0
C      1  0.3917320000000  0.4679110000000  0.3036420000000 1.0
C      1  0.4320250000000  0.5816420000000  0.2501190000000 1.0
C      1  0.5679900000000  0.4183380000000  0.7498800000000 1.0
C      1  0.3459670000000  0.7027600000000  0.4865110000000 1.0
C      1  0.6537060000000  0.2972370000000  0.5134050000000 1.0
C      1  0.7277740000000  0.5896480000000  0.3922210000000 1.0
C      1  0.2722570000000  0.4104640000000  0.6077530000000 1.0
C      1  0.5214620000000  0.4929410000000  0.4625500000000 1.0
C      1  0.4786140000000  0.5071350000000  0.5373940000000 1.0
C      1  0.4212360000000  0.3046080000000  0.3623670000000 1.0
C      1  0.5788380000000  0.6954030000000  0.6376690000000 1.0
C      1  0.3859690000000  0.6325350000000  0.5554630000000 1.0
C      1  0.6140100000000  0.3675440000000  0.4444390000000 1.0
C      1  0.3642960000000  0.4666980000000  0.5986600000000 1.0
C      1  0.6357650000000  0.5333670000000  0.4013040000000 1.0
C      1  0.4221300000000  0.5607600000000  0.7295010000000 1.0
C      1  0.5779450000000  0.4392490000000  0.2704920000000 1.0
C      1  0.5653050000000  0.5052630000000  0.8010810000000 1.0
C      1  0.4347550000000  0.4947200000000  0.1989210000000 1.0
C      1  0.3607550000000  0.5736790000000  0.3379720000000 1.0
C      1  0.6392140000000  0.4262750000000  0.6619790000000 1.0
C      1  0.5675960000000  0.5221100000000  0.3300530000000 1.0
C      1  0.4324700000000  0.4779200000000  0.6699130000000 1.0
C      1  0.4925100000000  0.6739710000000  0.3661400000000 1.0
C      1  0.5074090000000  0.3259800000000  0.6339390000000 1.0
C      1  0.6803770000000  0.5836670000000  0.5664990000000 1.0
C      1  0.3196710000000  0.4163520000000  0.4335320000000 1.0
C      1  0.6482230000000  0.3801820000000  0.2906350000000 1.0
C      1  0.3518740000000  0.6198370000000  0.7093520000000 1.0
C      1  0.6189580000000  0.3336590000000  0.6142480000000 1.0
C      1  0.3809450000000  0.6662840000000  0.3857500000000 1.0
C      1  0.2875420000000  0.7190480000000  0.5770120000000 1.0
C      1  0.7122770000000  0.2808240000000  0.4230100000000 1.0
C      1  0.4861870000000  0.3931570000000  0.7030500000000 1.0
C      1  0.5137930000000  0.6068530000000  0.2969830000000 1.0
C      1  0.3813620000000  0.5381650000000  0.5257180000000 1.0
C      1  0.6187200000000  0.4618950000000  0.4742430000000 1.0
C      1  0.6149570000000  0.6657270000000  0.5480030000000 1.0
C      1  0.3850930000000  0.3342850000000  0.4520210000000 1.0
C      1  0.4449520000000  0.3079350000000  0.5436510000000 1.0
C      1  0.5549810000000  0.6919720000000  0.4564310000000 1.0
C      1  0.5082460000000  0.5838330000000  0.7669880000000 1.0
C      1  0.4918260000000  0.4161610000000  0.2330210000000 1.0
END
