TITL C-986976-6631-176 -2.51168009135713e-06 3375 -341.760275368507 0 0 60 (C3) n - 1
REM
REM in /home/bkarasulu/work/CARBON/AIRSS/Generating-Clusters/REBO/Higher-Symm/Only-C60
REM
REM
REM
REM
REM
REM ./C.cell (a2850807a9bf4ad07a5b6933b78d9264)
REM AIRSS Version 0.9.1 bugfix July 2018 build 013d7b7c2542+ Fri, 06 Jul 2018 19:26:36 +0100
REM compiler GCC version 9.2.1 20190827 (Red Hat 9.2.1-1)
REM options -cpp -mtune=generic -march=x86-64 -g -O0 -fpre-include=/usr/include/finclude/math-vector-fortran.h
REM seed 1433774543 1141658572 -2125644188 241786762 801858075 1615582984 118217863 1438390346 -1711254150 -1303933545 -1671970731 1383440240 342503882 -1284781120 899248619 2071229808 54446883 -352562050 1763591200 332341268 1721974854 -275646229 636638122 -121985935 -1844822232 -112096599 1397787515 428828548 643857046 -1077693354 354792505 783638314 1432528748
REM
CELL 1.54180   15.00000   15.00000   15.00000   90.00000   90.00000   90.00000
LATT -1
SFAC C  
C      1  0.3867760000000  0.5341820000000  0.6681370000000 1.0
C      1  0.5862150000000  0.5809650000000  0.6681360000000 1.0
C      1  0.5270110000000  0.3848550000000  0.6681370000000 1.0
C      1  0.4941640000000  0.5659500000000  0.5996990000000 1.0
C      1  0.5600320000000  0.4720810000000  0.5996990000000 1.0
C      1  0.4458050000000  0.4619710000000  0.5997000000000 1.0
C      1  0.7451350000000  0.4694900000000  0.5360210000000 1.0
C      1  0.3510100000000  0.3029620000000  0.5360240000000 1.0
C      1  0.4038550000000  0.7275480000000  0.5360210000000 1.0
C      1  0.6273960000000  0.6977620000000  0.3764460000000 1.0
C      1  0.6075690000000  0.2907890000000  0.3764490000000 1.0
C      1  0.2650330000000  0.5114460000000  0.3764490000000 1.0
C      1  0.4061040000000  0.4517570000000  0.3428120000000 1.0
C      1  0.5051680000000  0.6054360000000  0.3428110000000 1.0
C      1  0.5887260000000  0.4428040000000  0.3428120000000 1.0
C      1  0.6027260000000  0.3465080000000  0.6181120000000 1.0
C      1  0.3157090000000  0.4877840000000  0.6181120000000 1.0
C      1  0.5815670000000  0.6657100000000  0.6181100000000 1.0
C      1  0.4518500000000  0.3482150000000  0.3553250000000 1.0
C      1  0.3926250000000  0.6175900000000  0.3553240000000 1.0
C      1  0.6555230000000  0.5341930000000  0.3553230000000 1.0
C      1  0.3533490000000  0.3310370000000  0.6261210000000 1.0
C      1  0.4269990000000  0.7114860000000  0.6261190000000 1.0
C      1  0.7196530000000  0.4574790000000  0.6261190000000 1.0
C      1  0.2754030000000  0.4686250000000  0.4564370000000 1.0
C      1  0.5851270000000  0.7101940000000  0.4564340000000 1.0
C      1  0.6394700000000  0.3211800000000  0.4564360000000 1.0
C      1  0.4904450000000  0.4122080000000  0.5056630000000 1.0
C      1  0.4287470000000  0.5521710000000  0.5056630000000 1.0
C      1  0.5808080000000  0.5356210000000  0.5056620000000 1.0
C      1  0.7388950000000  0.5865840000000  0.6008670000000 1.0
C      1  0.4555360000000  0.2498200000000  0.6008700000000 1.0
C      1  0.3055700000000  0.6635980000000  0.6008680000000 1.0
C      1  0.5498540000000  0.3489990000000  0.3360140000000 1.0
C      1  0.3443020000000  0.5323240000000  0.3360140000000 1.0
C      1  0.6058420000000  0.6186740000000  0.3360120000000 1.0
C      1  0.3239380000000  0.3766240000000  0.4605240000000 1.0
C      1  0.4811840000000  0.7141620000000  0.4605210000000 1.0
C      1  0.6948780000000  0.4092140000000  0.4605220000000 1.0
C      1  0.7032570000000  0.5958380000000  0.5167910000000 1.0
C      1  0.4813700000000  0.2760550000000  0.5167940000000 1.0
C      1  0.3153730000000  0.6281070000000  0.5167930000000 1.0
C      1  0.4448560000000  0.6644540000000  0.2668440000000 1.0
C      1  0.6699930000000  0.4655270000000  0.2668440000000 1.0
C      1  0.3851480000000  0.3700150000000  0.2668460000000 1.0
C      1  0.3765210000000  0.6308480000000  0.6675700000000 1.0
C      1  0.6750570000000  0.5415140000000  0.6675690000000 1.0
C      1  0.4484240000000  0.3276410000000  0.6675720000000 1.0
C      1  0.2952150000000  0.4018580000000  0.6472390000000 1.0
C      1  0.5173990000000  0.7264210000000  0.6472370000000 1.0
C      1  0.6873870000000  0.3717230000000  0.6472380000000 1.0
C      1  0.3201820000000  0.5244850000000  0.5244830000000 1.0
C      1  0.6111140000000  0.6434850000000  0.5244810000000 1.0
C      1  0.5687050000000  0.3320310000000  0.5244830000000 1.0
C      1  0.4076880000000  0.4528860000000  0.4538600000000 1.0
C      1  0.5053540000000  0.6035010000000  0.4538590000000 1.0
C      1  0.5869570000000  0.4436130000000  0.4538600000000 1.0
C      1  0.4141130000000  0.3098800000000  0.4410380000000 1.0
C      1  0.3782950000000  0.6694400000000  0.4410370000000 1.0
C      1  0.7075910000000  0.5206790000000  0.4410360000000 1.0
END
