TITL C-986979-5873-1044 -8.42837239715467e-05 3375 -329.208499475455 0 0 60 (C2) n - 1
REM
REM in /home/bkarasulu/work/CARBON/AIRSS/Generating-Clusters/REBO/Higher-Symm/Only-C60
REM
REM
REM
REM
REM
REM ./C.cell (a2850807a9bf4ad07a5b6933b78d9264)
REM AIRSS Version 0.9.1 bugfix July 2018 build 013d7b7c2542+ Fri, 06 Jul 2018 19:26:36 +0100
REM compiler GCC version 9.2.1 20190827 (Red Hat 9.2.1-1)
REM options -cpp -mtune=generic -march=x86-64 -g -O0 -fpre-include=/usr/include/finclude/math-vector-fortran.h
REM seed -1824338140 189285853 486180839 1398163260 -199559573 -1490949007 -732218695 1997467678 518745217 393349505 -550074470 303135424 1112550247 1329026349 2048534940 -453682653 -627372185 -1309146317 -2042563750 -1908988036 -896220822 341313550 -630806573 -1724469981 -1202445207 -1688503676 -1188361702 1609673966 1953120896 -1518529448 -962207281 -1613947329 -323306113
REM
CELL 1.54180   15.00000   15.00000   15.00000   90.00000   90.00000   90.00000
LATT -1
SFAC C  
C      1  0.6414360000000  0.5320490000000  0.4482840000000 1.0
C      1  0.3585620000000  0.4679500000000  0.4482910000000 1.0
C      1  0.6486510000000  0.5081550000000  0.5491800000000 1.0
C      1  0.3513510000000  0.4918460000000  0.5491870000000 1.0
C      1  0.3693460000000  0.6561390000000  0.3684260000000 1.0
C      1  0.6306490000000  0.3438570000000  0.3684260000000 1.0
C      1  0.3769460000000  0.6591660000000  0.6332220000000 1.0
C      1  0.6230590000000  0.3408380000000  0.6332220000000 1.0
C      1  0.3380060000000  0.7338380000000  0.4415140000000 1.0
C      1  0.6619920000000  0.2661600000000  0.4415150000000 1.0
C      1  0.3481620000000  0.7147850000000  0.5386570000000 1.0
C      1  0.6518390000000  0.2852160000000  0.5386580000000 1.0
C      1  0.5339860000000  0.7745250000000  0.4656270000000 1.0
C      1  0.4660120000000  0.2254740000000  0.4656380000000 1.0
C      1  0.5367870000000  0.7651710000000  0.5497820000000 1.0
C      1  0.4632150000000  0.2348310000000  0.5497920000000 1.0
C      1  0.2793410000000  0.3712560000000  0.4024420000000 1.0
C      1  0.7206550000000  0.6287420000000  0.4024300000000 1.0
C      1  0.2802470000000  0.3846510000000  0.5835940000000 1.0
C      1  0.7197570000000  0.6153510000000  0.5835820000000 1.0
C      1  0.2258640000000  0.4352740000000  0.4410920000000 1.0
C      1  0.7741330000000  0.5647240000000  0.4410800000000 1.0
C      1  0.2263330000000  0.4471170000000  0.5417340000000 1.0
C      1  0.7736690000000  0.5528840000000  0.5417210000000 1.0
C      1  0.6778060000000  0.4316990000000  0.3684120000000 1.0
C      1  0.3221900000000  0.5682970000000  0.3684170000000 1.0
C      1  0.6791250000000  0.4233510000000  0.6468510000000 1.0
C      1  0.3208800000000  0.5766530000000  0.6468560000000 1.0
C      1  0.7421310000000  0.4478100000000  0.5665060000000 1.0
C      1  0.2578710000000  0.5521910000000  0.5665140000000 1.0
C      1  0.7306510000000  0.4623840000000  0.4544830000000 1.0
C      1  0.2693470000000  0.5376140000000  0.4544910000000 1.0
C      1  0.4796960000000  0.6368140000000  0.6769660000000 1.0
C      1  0.5203100000000  0.3631910000000  0.6769690000000 1.0
C      1  0.4737470000000  0.6410700000000  0.3266960000000 1.0
C      1  0.5262470000000  0.3589240000000  0.3266990000000 1.0
C      1  0.3729490000000  0.5121440000000  0.6875610000000 1.0
C      1  0.6270570000000  0.4878620000000  0.6875570000000 1.0
C      1  0.3747340000000  0.5078250000000  0.3225450000000 1.0
C      1  0.6252600000000  0.4921690000000  0.3225400000000 1.0
C      1  0.3840560000000  0.3655890000000  0.4351650000000 1.0
C      1  0.6159420000000  0.6344100000000  0.4351560000000 1.0
C      1  0.3827140000000  0.3827430000000  0.5473190000000 1.0
C      1  0.6172880000000  0.6172580000000  0.5473110000000 1.0
C      1  0.5327140000000  0.4675470000000  0.3166560000000 1.0
C      1  0.4672790000000  0.5324470000000  0.3166560000000 1.0
C      1  0.5332050000000  0.4681940000000  0.6913110000000 1.0
C      1  0.4668010000000  0.5318120000000  0.6913110000000 1.0
C      1  0.5465220000000  0.6660710000000  0.5938010000000 1.0
C      1  0.4534810000000  0.3339320000000  0.5938080000000 1.0
C      1  0.5390540000000  0.6852970000000  0.4031200000000 1.0
C      1  0.4609430000000  0.3147010000000  0.4031270000000 1.0
C      1  0.4878430000000  0.6861090000000  0.2361410000000 1.0
C      1  0.5121470000000  0.3138820000000  0.2361460000000 1.0
C      1  0.5002190000000  0.6871540000000  0.7628680000000 1.0
C      1  0.4997910000000  0.3128550000000  0.7628740000000 1.0
C      1  0.4407650000000  0.6810620000000  0.4491790000000 1.0
C      1  0.5592330000000  0.3189370000000  0.4491820000000 1.0
C      1  0.4495240000000  0.6645340000000  0.5508530000000 1.0
C      1  0.5504780000000  0.3354670000000  0.5508560000000 1.0
END
