TITL C-986979-5873-230 -1.59687591306957e-05 3375 -326.394515189021 0 0 60 (T23) n - 1
REM
REM in /home/bkarasulu/work/CARBON/AIRSS/Generating-Clusters/REBO/Higher-Symm/Only-C60
REM
REM
REM
REM
REM
REM ./C.cell (a2850807a9bf4ad07a5b6933b78d9264)
REM AIRSS Version 0.9.1 bugfix July 2018 build 013d7b7c2542+ Fri, 06 Jul 2018 19:26:36 +0100
REM compiler GCC version 9.2.1 20190827 (Red Hat 9.2.1-1)
REM options -cpp -mtune=generic -march=x86-64 -g -O0 -fpre-include=/usr/include/finclude/math-vector-fortran.h
REM seed -1205250455 -681006667 -1879606974 -1479698135 -793288899 707411029 1141219940 -587117537 836702843 -1295103348 -1841845061 -96274279 -1695851534 617577364 -823074234 504398473 262694232 -1958567762 1382503202 1960992874 760366827 89036270 317861175 864125604 -1471713397 -1966644012 -1058240470 1062741882 1063660705 -1090849574 579379259 -55624005 -1565014889
REM
CELL 1.54180   15.00000   15.00000   15.00000   90.00000   90.00000   90.00000
LATT -1
SFAC C  
C      1  0.3859490000000  0.6954240000000  0.3784030000000 1.0
C      1  0.6954240000000  0.3784030000000  0.3859490000000 1.0
C      1  0.3784030000000  0.3859490000000  0.6954240000000 1.0
C      1  0.3859490000000  0.3045760000000  0.6215970000000 1.0
C      1  0.6140510000000  0.6954240000000  0.6215970000000 1.0
C      1  0.6140510000000  0.3045760000000  0.3784030000000 1.0
C      1  0.6954240000000  0.6215970000000  0.6140510000000 1.0
C      1  0.3045760000000  0.3784030000000  0.6140510000000 1.0
C      1  0.3045760000000  0.6215970000000  0.3859490000000 1.0
C      1  0.3784030000000  0.6140510000000  0.3045760000000 1.0
C      1  0.6215970000000  0.3859490000000  0.3045760000000 1.0
C      1  0.6215970000000  0.6140510000000  0.6954240000000 1.0
C      1  0.7091640000000  0.5139690000000  0.5885730000000 1.0
C      1  0.5139690000000  0.5885730000000  0.7091640000000 1.0
C      1  0.5885730000000  0.7091640000000  0.5139690000000 1.0
C      1  0.7091640000000  0.4860310000000  0.4114270000000 1.0
C      1  0.2908360000000  0.5139690000000  0.4114270000000 1.0
C      1  0.2908360000000  0.4860310000000  0.5885730000000 1.0
C      1  0.5139690000000  0.4114270000000  0.2908360000000 1.0
C      1  0.4860310000000  0.5885730000000  0.2908360000000 1.0
C      1  0.4860310000000  0.4114270000000  0.7091640000000 1.0
C      1  0.5885730000000  0.2908360000000  0.4860310000000 1.0
C      1  0.4114270000000  0.7091640000000  0.4860310000000 1.0
C      1  0.4114270000000  0.2908360000000  0.5139690000000 1.0
C      1  0.4064930000000  0.4930790000000  0.6920060000000 1.0
C      1  0.4930790000000  0.6920060000000  0.4064930000000 1.0
C      1  0.6920060000000  0.4064930000000  0.4930790000000 1.0
C      1  0.4064930000000  0.5069210000000  0.3079940000000 1.0
C      1  0.5935070000000  0.4930790000000  0.3079940000000 1.0
C      1  0.5935070000000  0.5069210000000  0.6920060000000 1.0
C      1  0.4930790000000  0.3079940000000  0.5935070000000 1.0
C      1  0.5069210000000  0.6920060000000  0.5935070000000 1.0
C      1  0.5069210000000  0.3079940000000  0.4064930000000 1.0
C      1  0.6920060000000  0.5935070000000  0.5069210000000 1.0
C      1  0.3079940000000  0.4064930000000  0.5069210000000 1.0
C      1  0.3079940000000  0.5935070000000  0.4930790000000 1.0
C      1  0.3401340000000  0.4285070000000  0.3578640000000 1.0
C      1  0.4285070000000  0.3578640000000  0.3401340000000 1.0
C      1  0.3578640000000  0.3401340000000  0.4285070000000 1.0
C      1  0.3401340000000  0.5714930000000  0.6421360000000 1.0
C      1  0.6598660000000  0.4285070000000  0.6421360000000 1.0
C      1  0.6598660000000  0.5714930000000  0.3578640000000 1.0
C      1  0.4285070000000  0.6421360000000  0.6598660000000 1.0
C      1  0.5714930000000  0.3578640000000  0.6598660000000 1.0
C      1  0.5714930000000  0.6421360000000  0.3401340000000 1.0
C      1  0.3578640000000  0.6598660000000  0.5714930000000 1.0
C      1  0.6421360000000  0.3401340000000  0.5714930000000 1.0
C      1  0.6421360000000  0.6598660000000  0.4285070000000 1.0
C      1  0.6067710000000  0.4586980000000  0.5241690000000 1.0
C      1  0.4586980000000  0.5241690000000  0.6067710000000 1.0
C      1  0.5241690000000  0.6067710000000  0.4586980000000 1.0
C      1  0.6067710000000  0.5413020000000  0.4758310000000 1.0
C      1  0.3932290000000  0.4586980000000  0.4758310000000 1.0
C      1  0.3932290000000  0.5413020000000  0.5241690000000 1.0
C      1  0.4586980000000  0.4758310000000  0.3932290000000 1.0
C      1  0.5413020000000  0.5241690000000  0.3932290000000 1.0
C      1  0.5413020000000  0.4758310000000  0.6067710000000 1.0
C      1  0.5241690000000  0.3932290000000  0.5413020000000 1.0
C      1  0.4758310000000  0.6067710000000  0.5413020000000 1.0
C      1  0.4758310000000  0.3932290000000  0.4586980000000 1.0
END
