TITL C-986973-6940-966 -0.188156685840694 3375 -339.266220365152 0 0 60 (C2) n - 1
REM
REM in /home/bkarasulu/work/CARBON/AIRSS/Generating-Clusters/REBO/Higher-Symm/Only-C60
REM
REM
REM
REM
REM
REM ./C.cell (a2850807a9bf4ad07a5b6933b78d9264)
REM AIRSS Version 0.9.1 bugfix July 2018 build 013d7b7c2542+ Fri, 06 Jul 2018 19:26:36 +0100
REM compiler GCC version 9.2.1 20190827 (Red Hat 9.2.1-1)
REM options -cpp -mtune=generic -march=x86-64 -g -O0 -fpre-include=/usr/include/finclude/math-vector-fortran.h
REM seed 401445013 5016792 -1743678023 -1204283437 -2051441604 957974265 -124073865 2063697630 -1169513621 -1789420114 -519908798 1186734866 944787024 -637554361 -1513208682 1618405805 -1090422066 -210086167 915747337 -709594537 -946352928 -1465891867 -1829831724 2013756189 -2072921180 -1997156045 2016852680 -1123884837 -2089315383 -582360229 1559408241 732882711 1306807203
REM
CELL 1.54180   15.00000   15.00000   15.00000   90.00000   90.00000   90.00000
LATT -1
SFAC C  
C      1  0.4472200000000  0.3923860000000  0.3417770000000 1.0
C      1  0.5526970000000  0.6075280000000  0.3417260000000 1.0
C      1  0.4477690000000  0.3921610000000  0.6570250000000 1.0
C      1  0.5522830000000  0.6079470000000  0.6567730000000 1.0
C      1  0.4021350000000  0.5594680000000  0.7254420000000 1.0
C      1  0.5978600000000  0.4405390000000  0.7254440000000 1.0
C      1  0.4022140000000  0.5601570000000  0.2746320000000 1.0
C      1  0.5977950000000  0.4398120000000  0.2746260000000 1.0
C      1  0.4671370000000  0.4427630000000  0.4428680000000 1.0
C      1  0.5329090000000  0.5572370000000  0.4426940000000 1.0
C      1  0.4679340000000  0.4422220000000  0.5558120000000 1.0
C      1  0.5320500000000  0.5578230000000  0.5560460000000 1.0
C      1  0.5827190000000  0.2789260000000  0.5918850000000 1.0
C      1  0.4173320000000  0.7210610000000  0.5918630000000 1.0
C      1  0.5785100000000  0.2798870000000  0.4107060000000 1.0
C      1  0.4214370000000  0.7201440000000  0.4106710000000 1.0
C      1  0.5012380000000  0.2428230000000  0.5549090000000 1.0
C      1  0.4988300000000  0.7570750000000  0.5548170000000 1.0
C      1  0.4952680000000  0.2492170000000  0.4517890000000 1.0
C      1  0.5046400000000  0.7508410000000  0.4517160000000 1.0
C      1  0.6853950000000  0.4386270000000  0.2542290000000 1.0
C      1  0.3146200000000  0.5613790000000  0.2542290000000 1.0
C      1  0.6854450000000  0.4388590000000  0.7458490000000 1.0
C      1  0.3145540000000  0.5611420000000  0.7458470000000 1.0
C      1  0.4544550000000  0.4869440000000  0.2979250000000 1.0
C      1  0.5455390000000  0.5130550000000  0.2979220000000 1.0
C      1  0.4545240000000  0.4865370000000  0.7016250000000 1.0
C      1  0.5454810000000  0.5134500000000  0.7016380000000 1.0
C      1  0.5781890000000  0.2845090000000  0.3166560000000 1.0
C      1  0.4217940000000  0.7154770000000  0.3166200000000 1.0
C      1  0.5806260000000  0.2853760000000  0.6855890000000 1.0
C      1  0.4193950000000  0.7146330000000  0.6855690000000 1.0
C      1  0.4220050000000  0.5464570000000  0.4212950000000 1.0
C      1  0.5780060000000  0.4535820000000  0.4212950000000 1.0
C      1  0.4214560000000  0.5452130000000  0.5787880000000 1.0
C      1  0.5785950000000  0.4547810000000  0.5788060000000 1.0
C      1  0.6562090000000  0.5277020000000  0.4019240000000 1.0
C      1  0.3437170000000  0.4723360000000  0.4018680000000 1.0
C      1  0.6559310000000  0.5317820000000  0.5961290000000 1.0
C      1  0.3440720000000  0.4681310000000  0.5961010000000 1.0
C      1  0.5758320000000  0.6889210000000  0.5532490000000 1.0
C      1  0.4242750000000  0.3108680000000  0.5529650000000 1.0
C      1  0.5842520000000  0.6821160000000  0.4478880000000 1.0
C      1  0.4157220000000  0.3180760000000  0.4477970000000 1.0
C      1  0.5401660000000  0.3648920000000  0.2880240000000 1.0
C      1  0.4598340000000  0.6350840000000  0.2880240000000 1.0
C      1  0.5406050000000  0.3653950000000  0.7122080000000 1.0
C      1  0.4594030000000  0.6346130000000  0.7122110000000 1.0
C      1  0.3888680000000  0.6396000000000  0.4535850000000 1.0
C      1  0.6111350000000  0.3604140000000  0.4535900000000 1.0
C      1  0.3885340000000  0.6394430000000  0.5474610000000 1.0
C      1  0.6114670000000  0.3605560000000  0.5474630000000 1.0
C      1  0.6269900000000  0.6603190000000  0.6731010000000 1.0
C      1  0.3729410000000  0.3397340000000  0.6729950000000 1.0
C      1  0.6274390000000  0.6596320000000  0.3238990000000 1.0
C      1  0.3725330000000  0.3404460000000  0.3239960000000 1.0
C      1  0.6519410000000  0.6158600000000  0.5496630000000 1.0
C      1  0.3481380000000  0.3840480000000  0.5496810000000 1.0
C      1  0.6587340000000  0.6119020000000  0.4445990000000 1.0
C      1  0.3412030000000  0.3880900000000  0.4444730000000 1.0
END
