TITL C-986976-6631-1188 0.00110876493090232 3375 -336.008932965742 0 0 60 (C1) n - 1
REM
REM in /home/bkarasulu/work/CARBON/AIRSS/Generating-Clusters/REBO/Higher-Symm/Only-C60
REM
REM
REM
REM
REM
REM ./C.cell (a2850807a9bf4ad07a5b6933b78d9264)
REM AIRSS Version 0.9.1 bugfix July 2018 build 013d7b7c2542+ Fri, 06 Jul 2018 19:26:36 +0100
REM compiler GCC version 9.2.1 20190827 (Red Hat 9.2.1-1)
REM options -cpp -mtune=generic -march=x86-64 -g -O0 -fpre-include=/usr/include/finclude/math-vector-fortran.h
REM seed -1931029265 261929567 463357449 1147898361 -933422672 -1689312979 752433153 817251310 1074491959 827013135 28071025 949314796 761654555 -1080797858 1713451973 842262125 -775848157 654367213 262516251 912241816 -1567066975 -2019415555 2106391419 -477347956 1391619581 -1053137825 1997149890 -364662102 -1290771811 -858443467 -690748178 -1120326376 -1566454724
REM
CELL 1.54180   15.00000   15.00000   15.00000   90.00000   90.00000   90.00000
LATT -1
SFAC C  
C      1  0.4404320000000  0.7970580000000  0.4679620000000 1.0
C      1  0.5325530000000  0.7949090000000  0.5634610000000 1.0
C      1  0.5533660000000  0.7890650000000  0.4576480000000 1.0
C      1  0.4197920000000  0.8090140000000  0.5717160000000 1.0
C      1  0.6215430000000  0.3775050000000  0.5402980000000 1.0
C      1  0.3787660000000  0.3774180000000  0.4604250000000 1.0
C      1  0.3800880000000  0.3778390000000  0.5415940000000 1.0
C      1  0.6205060000000  0.3751980000000  0.4591410000000 1.0
C      1  0.3243050000000  0.4978220000000  0.4433980000000 1.0
C      1  0.6753040000000  0.4987600000000  0.5527760000000 1.0
C      1  0.6531960000000  0.5034280000000  0.4445020000000 1.0
C      1  0.3463930000000  0.5062790000000  0.5513490000000 1.0
C      1  0.5953160000000  0.5489790000000  0.6760720000000 1.0
C      1  0.4048340000000  0.5428830000000  0.3182230000000 1.0
C      1  0.4044150000000  0.5531190000000  0.6860970000000 1.0
C      1  0.5964390000000  0.5450530000000  0.3052560000000 1.0
C      1  0.4547960000000  0.6030990000000  0.3939080000000 1.0
C      1  0.5466640000000  0.6068290000000  0.5978340000000 1.0
C      1  0.5602390000000  0.6044940000000  0.3852410000000 1.0
C      1  0.4419620000000  0.6118990000000  0.6055170000000 1.0
C      1  0.4101260000000  0.2464160000000  0.5493450000000 1.0
C      1  0.5889000000000  0.2441870000000  0.4561690000000 1.0
C      1  0.5898280000000  0.2456000000000  0.5468340000000 1.0
C      1  0.4092490000000  0.2446580000000  0.4586820000000 1.0
C      1  0.6451430000000  0.4683430000000  0.3163530000000 1.0
C      1  0.3555480000000  0.4760240000000  0.6805710000000 1.0
C      1  0.3525260000000  0.4680290000000  0.3169320000000 1.0
C      1  0.6472760000000  0.4739720000000  0.6803490000000 1.0
C      1  0.3937780000000  0.3806750000000  0.3486040000000 1.0
C      1  0.6060080000000  0.3854380000000  0.6519480000000 1.0
C      1  0.6022530000000  0.3813490000000  0.3474440000000 1.0
C      1  0.3980700000000  0.3876030000000  0.6530680000000 1.0
C      1  0.4605860000000  0.3554320000000  0.7345000000000 1.0
C      1  0.5392340000000  0.3469360000000  0.2672770000000 1.0
C      1  0.5437170000000  0.3536690000000  0.7338770000000 1.0
C      1  0.4561150000000  0.3458650000000  0.2679890000000 1.0
C      1  0.2088720000000  0.4853490000000  0.4437330000000 1.0
C      1  0.7908590000000  0.4874040000000  0.5530080000000 1.0
C      1  0.7671500000000  0.4862290000000  0.4584560000000 1.0
C      1  0.2326890000000  0.4876330000000  0.5382820000000 1.0
C      1  0.7313010000000  0.4843190000000  0.3619460000000 1.0
C      1  0.2687990000000  0.4894000000000  0.6349010000000 1.0
C      1  0.2593390000000  0.4801120000000  0.3515670000000 1.0
C      1  0.7404150000000  0.4846060000000  0.6452030000000 1.0
C      1  0.5448880000000  0.2924080000000  0.3884640000000 1.0
C      1  0.4544910000000  0.2966370000000  0.6153390000000 1.0
C      1  0.4517150000000  0.2922440000000  0.3896300000000 1.0
C      1  0.5476580000000  0.2958340000000  0.6141680000000 1.0
C      1  0.5675610000000  0.7585360000000  0.3503330000000 1.0
C      1  0.4521410000000  0.7359140000000  0.6508780000000 1.0
C      1  0.4633790000000  0.7652350000000  0.3627850000000 1.0
C      1  0.5564870000000  0.7277910000000  0.6513660000000 1.0
C      1  0.5728290000000  0.5135870000000  0.5496800000000 1.0
C      1  0.4267940000000  0.5123850000000  0.4459600000000 1.0
C      1  0.4593540000000  0.5179350000000  0.5508210000000 1.0
C      1  0.5401880000000  0.5146680000000  0.4450740000000 1.0
C      1  0.4221080000000  0.6890310000000  0.4372110000000 1.0
C      1  0.5842270000000  0.6939960000000  0.5452240000000 1.0
C      1  0.5976670000000  0.6869130000000  0.4337640000000 1.0
C      1  0.4098220000000  0.6969880000000  0.5498480000000 1.0
END
