TITL C-986973-6940-150 2.46219689442945e-06 3375 -357.562962456082 0 0 60 (C6) n - 1
REM
REM in /home/bkarasulu/work/CARBON/AIRSS/Generating-Clusters/REBO/Higher-Symm/Only-C60
REM
REM
REM
REM
REM
REM ./C.cell (a2850807a9bf4ad07a5b6933b78d9264)
REM AIRSS Version 0.9.1 bugfix July 2018 build 013d7b7c2542+ Fri, 06 Jul 2018 19:26:36 +0100
REM compiler GCC version 9.2.1 20190827 (Red Hat 9.2.1-1)
REM options -cpp -mtune=generic -march=x86-64 -g -O0 -fpre-include=/usr/include/finclude/math-vector-fortran.h
REM seed -1874546369 609332639 132184219 1803897308 -1483532447 1436597414 1687154252 -684470677 1347518012 1670791006 -1648518940 -122235983 -1552321812 -1894481352 -1155267535 -984810564 -1221655785 -425321969 -533777811 -1021440358 1905304290 118369749 1717670462 1421211312 1976919959 1645974604 -1842829612 -1487554707 -1520275558 -1355230058 356843676 913068945 617790895
REM
CELL 1.54180   15.00000   15.00000   15.00000   90.00000   90.00000   90.00000
LATT -1
SFAC C  
C      1  0.2616980000000  0.6193810000000  0.4598630000000 1.0
C      1  0.4156090000000  0.6193810000000  0.2735560000000 1.0
C      1  0.6539110000000  0.6193810000000  0.3136930000000 1.0
C      1  0.7383020000000  0.6193810000000  0.5401370000000 1.0
C      1  0.5843910000000  0.6193810000000  0.7264440000000 1.0
C      1  0.3460890000000  0.6193810000000  0.6863070000000 1.0
C      1  0.3689650000000  0.3954020000000  0.3640900000000 1.0
C      1  0.5521840000000  0.3954020000000  0.3185660000000 1.0
C      1  0.6832190000000  0.3954020000000  0.4544760000000 1.0
C      1  0.6310350000000  0.3954020000000  0.6359100000000 1.0
C      1  0.4478160000000  0.3954020000000  0.6814340000000 1.0
C      1  0.3167810000000  0.3954020000000  0.5455240000000 1.0
C      1  0.3929120000000  0.3368190000000  0.5261710000000 1.0
C      1  0.4237920000000  0.3368190000000  0.4203440000000 1.0
C      1  0.5308800000000  0.3368190000000  0.3941740000000 1.0
C      1  0.6070880000000  0.3368190000000  0.4738290000000 1.0
C      1  0.5762080000000  0.3368190000000  0.5796560000000 1.0
C      1  0.4691200000000  0.3368190000000  0.6058260000000 1.0
C      1  0.7456100000000  0.5254810000000  0.5612940000000 1.0
C      1  0.5697230000000  0.5254810000000  0.7433510000000 1.0
C      1  0.3241130000000  0.5254810000000  0.6820570000000 1.0
C      1  0.2543900000000  0.5254810000000  0.4387060000000 1.0
C      1  0.4302770000000  0.5254810000000  0.2566490000000 1.0
C      1  0.6758870000000  0.5254810000000  0.3179430000000 1.0
C      1  0.4129690000000  0.5583530000000  0.4310930000000 1.0
C      1  0.5161600000000  0.5583530000000  0.3901750000000 1.0
C      1  0.6031910000000  0.5583530000000  0.4590820000000 1.0
C      1  0.5870310000000  0.5583530000000  0.5689070000000 1.0
C      1  0.4838400000000  0.5583530000000  0.6098250000000 1.0
C      1  0.3968090000000  0.5583530000000  0.5409180000000 1.0
C      1  0.3375490000000  0.4985780000000  0.3905430000000 1.0
C      1  0.5135670000000  0.4985780000000  0.3045850000000 1.0
C      1  0.6760180000000  0.4985780000000  0.4140420000000 1.0
C      1  0.6624510000000  0.4985780000000  0.6094570000000 1.0
C      1  0.4864330000000  0.4985780000000  0.6954150000000 1.0
C      1  0.3239820000000  0.4985780000000  0.5859580000000 1.0
C      1  0.4528840000000  0.7211380000000  0.5842810000000 1.0
C      1  0.4034530000000  0.7211380000000  0.5013370000000 1.0
C      1  0.4505680000000  0.7211380000000  0.4170560000000 1.0
C      1  0.5471160000000  0.7211380000000  0.4157190000000 1.0
C      1  0.5965470000000  0.7211380000000  0.4986630000000 1.0
C      1  0.5494320000000  0.7211380000000  0.5829440000000 1.0
C      1  0.3426400000000  0.6458310000000  0.5030210000000 1.0
C      1  0.4187040000000  0.6458310000000  0.3652320000000 1.0
C      1  0.5760640000000  0.6458310000000  0.3622110000000 1.0
C      1  0.6573600000000  0.6458310000000  0.4969790000000 1.0
C      1  0.5812960000000  0.6458310000000  0.6347680000000 1.0
C      1  0.4239360000000  0.6458310000000  0.6377890000000 1.0
C      1  0.5444190000000  0.2283950000000  0.5906380000000 1.0
C      1  0.4437150000000  0.2283950000000  0.5837870000000 1.0
C      1  0.3992960000000  0.2283950000000  0.4931490000000 1.0
C      1  0.4555810000000  0.2283950000000  0.4093620000000 1.0
C      1  0.5562850000000  0.2283950000000  0.4162130000000 1.0
C      1  0.6007040000000  0.2283950000000  0.5068510000000 1.0
C      1  0.3595540000000  0.4706230000000  0.2869590000000 1.0
C      1  0.6142750000000  0.4706230000000  0.2718500000000 1.0
C      1  0.7547220000000  0.4706230000000  0.4848900000000 1.0
C      1  0.6404460000000  0.4706230000000  0.7130410000000 1.0
C      1  0.3857250000000  0.4706230000000  0.7281500000000 1.0
C      1  0.2452780000000  0.4706230000000  0.5151100000000 1.0
END
