TITL C-986975-4297-86 -0.56545545170304 3375 -342.143682221368 0 0 60 (C1) n - 1
REM
REM in /home/bkarasulu/work/CARBON/AIRSS/Generating-Clusters/REBO/Higher-Symm/Only-C60
REM
REM
REM
REM
REM
REM ./C.cell (a2850807a9bf4ad07a5b6933b78d9264)
REM AIRSS Version 0.9.1 bugfix July 2018 build 013d7b7c2542+ Fri, 06 Jul 2018 19:26:36 +0100
REM compiler GCC version 9.2.1 20190827 (Red Hat 9.2.1-1)
REM options -cpp -mtune=generic -march=x86-64 -g -O0 -fpre-include=/usr/include/finclude/math-vector-fortran.h
REM seed -1171634214 2023082585 -396361499 80679839 -142942411 -2038873127 -785560666 298470946 2124702950 -1478598073 -1339769624 623858750 1050663354 868359374 84606484 792200942 -93332090 684731928 784972997 -1884937268 -2027386905 -777990719 116031574 680880883 -4073096 -896556957 157267320 1742014039 -394968537 -1171481911 -119833422 1642821701 -242477595
REM
CELL 1.54180   15.00000   15.00000   15.00000   90.00000   90.00000   90.00000
LATT -1
SFAC C  
C      1  0.3879190000000  0.5484250000000  0.3357600000000 1.0
C      1  0.6405350000000  0.5538580000000  0.3317880000000 1.0
C      1  0.7006170000000  0.5463380000000  0.5696530000000 1.0
C      1  0.4780210000000  0.5645340000000  0.6974890000000 1.0
C      1  0.2762560000000  0.5729300000000  0.5632880000000 1.0
C      1  0.4136870000000  0.6453600000000  0.6138630000000 1.0
C      1  0.3723910000000  0.6471850000000  0.4601670000000 1.0
C      1  0.5059180000000  0.6527550000000  0.3625950000000 1.0
C      1  0.6497820000000  0.6518820000000  0.4486680000000 1.0
C      1  0.5871900000000  0.6622460000000  0.6056810000000 1.0
C      1  0.3395090000000  0.3814100000000  0.6938220000000 1.0
C      1  0.4119390000000  0.3415800000000  0.4557590000000 1.0
C      1  0.5354140000000  0.3293700000000  0.3582890000000 1.0
C      1  0.6357850000000  0.3220230000000  0.4747980000000 1.0
C      1  0.5832810000000  0.3774470000000  0.6828850000000 1.0
C      1  0.2505620000000  0.5266230000000  0.4726060000000 1.0
C      1  0.4656380000000  0.5235540000000  0.2569930000000 1.0
C      1  0.7315370000000  0.5244580000000  0.3927360000000 1.0
C      1  0.6538030000000  0.5071690000000  0.6629420000000 1.0
C      1  0.3686930000000  0.5392370000000  0.7028050000000 1.0
C      1  0.5963250000000  0.4640430000000  0.5747640000000 1.0
C      1  0.4568340000000  0.4652160000000  0.5906690000000 1.0
C      1  0.3443900000000  0.4710540000000  0.5001430000000 1.0
C      1  0.4855610000000  0.4591920000000  0.3458100000000 1.0
C      1  0.6497030000000  0.4536200000000  0.4189160000000 1.0
C      1  0.3369010000000  0.6485070000000  0.5481910000000 1.0
C      1  0.4115350000000  0.6480890000000  0.3677020000000 1.0
C      1  0.6080070000000  0.6586440000000  0.3600140000000 1.0
C      1  0.6662950000000  0.6530110000000  0.5521600000000 1.0
C      1  0.4995310000000  0.6711930000000  0.6615830000000 1.0
C      1  0.6729940000000  0.3901900000000  0.5387690000000 1.0
C      1  0.4908050000000  0.4328340000000  0.6835560000000 1.0
C      1  0.3219030000000  0.4149910000000  0.5952990000000 1.0
C      1  0.3946600000000  0.4103610000000  0.3752940000000 1.0
C      1  0.6078040000000  0.4052240000000  0.3344070000000 1.0
C      1  0.4502130000000  0.3341570000000  0.3188020000000 1.0
C      1  0.6658370000000  0.3260460000000  0.3854680000000 1.0
C      1  0.6529370000000  0.3632890000000  0.6407540000000 1.0
C      1  0.4126650000000  0.3915590000000  0.7335950000000 1.0
C      1  0.3523180000000  0.3405870000000  0.5250320000000 1.0
C      1  0.5392360000000  0.5479710000000  0.3835090000000 1.0
C      1  0.6321200000000  0.5484240000000  0.4787230000000 1.0
C      1  0.5471460000000  0.5611790000000  0.6065310000000 1.0
C      1  0.4179600000000  0.5478100000000  0.5799860000000 1.0
C      1  0.4156700000000  0.5423220000000  0.4478750000000 1.0
C      1  0.7367810000000  0.4703270000000  0.4932020000000 1.0
C      1  0.5699480000000  0.5033080000000  0.7238400000000 1.0
C      1  0.3035560000000  0.5135800000000  0.6376300000000 1.0
C      1  0.3139170000000  0.4812290000000  0.3895860000000 1.0
C      1  0.5717670000000  0.4850380000000  0.2723660000000 1.0
C      1  0.5118850000000  0.1159880000000  0.4928940000000 1.0
C      1  0.5228640000000  0.3185730000000  0.4701900000000 1.0
C      1  0.5133690000000  0.2070210000000  0.4897810000000 1.0
C      1  0.5171820000000  0.4254720000000  0.5097750000000 1.0
C      1  0.5119790000000  0.6568700000000  0.4957210000000 1.0
C      1  0.5200400000000  0.5415420000000  0.4953900000000 1.0
C      1  0.5110530000000  0.7479310000000  0.4954310000000 1.0
C      1  0.5111420000000  0.9319640000000  0.4945640000000 1.0
C      1  0.5109870000000  0.8399480000000  0.4950270000000 1.0
C      1  0.5113910000000  0.0239781000000  0.4939760000000 1.0
END
