TITL C-986974-580-542 -8.56934807355273e-06 3375 -327.652732551726 0 0 60 (Cs) n - 1
REM
REM in /home/bkarasulu/work/CARBON/AIRSS/Generating-Clusters/REBO/Higher-Symm/Only-C60
REM
REM
REM
REM
REM
REM ./C.cell (a2850807a9bf4ad07a5b6933b78d9264)
REM AIRSS Version 0.9.1 bugfix July 2018 build 013d7b7c2542+ Fri, 06 Jul 2018 19:26:36 +0100
REM compiler GCC version 9.2.1 20190827 (Red Hat 9.2.1-1)
REM options -cpp -mtune=generic -march=x86-64 -g -O0 -fpre-include=/usr/include/finclude/math-vector-fortran.h
REM seed -1169873208 1943658523 1284595191 -2134581253 942592818 -1438238035 418179875 850331949 1715510927 1878590044 948043406 1006280054 -650641589 -2033307060 -1403133870 -1385523243 -1975210882 -573120229 1203589371 -1592526130 1204753857 -427287726 1514888013 -1325611711 1393438966 16004818 713570766 671769672 -1981008495 -2106232302 992977206 -1188706724 -328705859
REM
CELL 1.54180   15.00000   15.00000   15.00000   90.00000   90.00000   90.00000
LATT -1
SFAC C  
C      1  0.7218250000000  0.4420820000000  0.4146170000000 1.0
C      1  0.7218260000000  0.4420800000000  0.5760170000000 1.0
C      1  0.4749800000000  0.3579360000000  0.3917900000000 1.0
C      1  0.4749800000000  0.3579330000000  0.5988430000000 1.0
C      1  0.3391530000000  0.6020600000000  0.6523190000000 1.0
C      1  0.3391520000000  0.6020650000000  0.3383220000000 1.0
C      1  0.2797770000000  0.4354870000000  0.6192630000000 1.0
C      1  0.2797760000000  0.4354900000000  0.3713730000000 1.0
C      1  0.3489940000000  0.3797750000000  0.4294990000000 1.0
C      1  0.3489940000000  0.3797740000000  0.5611350000000 1.0
C      1  0.6875160000000  0.5878890000000  0.6667710000000 1.0
C      1  0.6875160000000  0.5878940000000  0.3238680000000 1.0
C      1  0.4548050000000  0.1894610000000  0.5829860000000 1.0
C      1  0.4548050000000  0.1894630000000  0.4076440000000 1.0
C      1  0.5132100000000  0.5885800000000  0.3419430000000 1.0
C      1  0.5132110000000  0.5885760000000  0.6486960000000 1.0
C      1  0.4840100000000  0.4151040000000  0.6941810000000 1.0
C      1  0.4840090000000  0.4151090000000  0.2964540000000 1.0
C      1  0.6001890000000  0.2538680000000  0.5918570000000 1.0
C      1  0.6001880000000  0.2538700000000  0.3987730000000 1.0
C      1  0.2920700000000  0.5379350000000  0.5840410000000 1.0
C      1  0.2920690000000  0.5379370000000  0.4065980000000 1.0
C      1  0.5113050000000  0.2584850000000  0.6204840000000 1.0
C      1  0.5113050000000  0.2584880000000  0.3701470000000 1.0
C      1  0.5726520000000  0.5138690000000  0.3975310000000 1.0
C      1  0.5726520000000  0.5138660000000  0.5931060000000 1.0
C      1  0.6619810000000  0.6738970000000  0.3865740000000 1.0
C      1  0.6619820000000  0.6738930000000  0.6040680000000 1.0
C      1  0.5575880000000  0.4717130000000  0.2957130000000 1.0
C      1  0.5575890000000  0.4717080000000  0.6949230000000 1.0
C      1  0.5944280000000  0.6417830000000  0.6801430000000 1.0
C      1  0.5944270000000  0.6417890000000  0.3104980000000 1.0
C      1  0.6707490000000  0.4991410000000  0.6307900000000 1.0
C      1  0.6707480000000  0.4991450000000  0.3598460000000 1.0
C      1  0.4632010000000  0.6730970000000  0.4309160000000 1.0
C      1  0.4632010000000  0.6730960000000  0.5597260000000 1.0
C      1  0.4121670000000  0.4472370000000  0.6194860000000 1.0
C      1  0.4121670000000  0.4472400000000  0.3711500000000 1.0
C      1  0.4191190000000  0.6448420000000  0.6474960000000 1.0
C      1  0.4191180000000  0.6448470000000  0.3431460000000 1.0
C      1  0.4417370000000  0.5332560000000  0.5798350000000 1.0
C      1  0.4417370000000  0.5332580000000  0.4108030000000 1.0
C      1  0.5349560000000  0.6129280000000  0.4953200000000 1.0
C      1  0.3122260000000  0.4671130000000  0.4953180000000 1.0
C      1  0.4026470000000  0.3107300000000  0.4953160000000 1.0
C      1  0.4013100000000  0.7382880000000  0.4953220000000 1.0
C      1  0.6315650000000  0.2957840000000  0.4953160000000 1.0
C      1  0.5824140000000  0.7617840000000  0.4953230000000 1.0
C      1  0.6372770000000  0.6625920000000  0.4953210000000 1.0
C      1  0.4203440000000  0.2084290000000  0.4953150000000 1.0
C      1  0.5182090000000  0.2984530000000  0.4953160000000 1.0
C      1  0.5025990000000  0.7829380000000  0.4953230000000 1.0
C      1  0.5389520000000  0.4990440000000  0.4953180000000 1.0
C      1  0.3031550000000  0.5993800000000  0.4953200000000 1.0
C      1  0.4933690000000  0.4064180000000  0.4953170000000 1.0
C      1  0.7510000000000  0.4954470000000  0.4953180000000 1.0
C      1  0.3050110000000  0.7027260000000  0.4953210000000 1.0
C      1  0.4064320000000  0.5612680000000  0.4953190000000 1.0
C      1  0.7211210000000  0.5856680000000  0.4953190000000 1.0
C      1  0.6947250000000  0.3750040000000  0.4953160000000 1.0
END
