TITL C-986973-6940-1046 0.00373959855497049 3375 -345.054884117964 0 0 60 (C1) n - 1
REM
REM in /home/bkarasulu/work/CARBON/AIRSS/Generating-Clusters/REBO/Higher-Symm/Only-C60
REM
REM
REM
REM
REM
REM ./C.cell (a2850807a9bf4ad07a5b6933b78d9264)
REM AIRSS Version 0.9.1 bugfix July 2018 build 013d7b7c2542+ Fri, 06 Jul 2018 19:26:36 +0100
REM compiler GCC version 9.2.1 20190827 (Red Hat 9.2.1-1)
REM options -cpp -mtune=generic -march=x86-64 -g -O0 -fpre-include=/usr/include/finclude/math-vector-fortran.h
REM seed 1151459746 374411766 1359614502 -752076002 861807548 -1445565445 917138266 151295199 712189577 -1387391445 957244733 861356376 1609770939 895865548 1707546640 227675633 661462225 1829080092 -2033960806 206667662 -1943835363 928198875 1397212179 -1812935419 2140200106 -231841372 -949622453 -1912577854 -1499226837 -1248627860 173861089 -456367852 -1344176237
REM
CELL 1.54180   15.00000   15.00000   15.00000   90.00000   90.00000   90.00000
LATT -1
SFAC C  
C      1  0.5310160000000  0.5006400000000  0.5910680000000 1.0
C      1  0.4532750000000  0.5681940000000  0.5489750000000 1.0
C      1  0.6880650000000  0.4777590000000  0.4254180000000 1.0
C      1  0.5811100000000  0.5968700000000  0.5579060000000 1.0
C      1  0.4379120000000  0.6701580000000  0.6330540000000 1.0
C      1  0.5434630000000  0.6977050000000  0.4021810000000 1.0
C      1  0.5209880000000  0.6910910000000  0.6726060000000 1.0
C      1  0.3452380000000  0.6670140000000  0.4618790000000 1.0
C      1  0.4298250000000  0.6767680000000  0.5254300000000 1.0
C      1  0.6436230000000  0.3121530000000  0.5347310000000 1.0
C      1  0.4102890000000  0.5576610000000  0.4244930000000 1.0
C      1  0.4484890000000  0.5183590000000  0.6939370000000 1.0
C      1  0.6479150000000  0.5168040000000  0.6565860000000 1.0
C      1  0.2609890000000  0.3631200000000  0.4175170000000 1.0
C      1  0.3612000000000  0.5220560000000  0.5167670000000 1.0
C      1  0.5606070000000  0.4159410000000  0.5269620000000 1.0
C      1  0.6858520000000  0.3861850000000  0.4940010000000 1.0
C      1  0.7061930000000  0.5494000000000  0.5052210000000 1.0
C      1  0.3179930000000  0.5737270000000  0.6018330000000 1.0
C      1  0.5038240000000  0.6061180000000  0.3820410000000 1.0
C      1  0.7096620000000  0.6314500000000  0.5502310000000 1.0
C      1  0.4868300000000  0.2540140000000  0.4612960000000 1.0
C      1  0.5832640000000  0.4273710000000  0.6601870000000 1.0
C      1  0.4339450000000  0.3752040000000  0.4452350000000 1.0
C      1  0.3853970000000  0.4616980000000  0.3236550000000 1.0
C      1  0.3286480000000  0.4294150000000  0.5064160000000 1.0
C      1  0.4728500000000  0.2113490000000  0.6870310000000 1.0
C      1  0.6420490000000  0.7003130000000  0.3978810000000 1.0
C      1  0.5307180000000  0.5509690000000  0.2974270000000 1.0
C      1  0.5134470000000  0.7225250000000  0.4912750000000 1.0
C      1  0.3048130000000  0.4669200000000  0.4018950000000 1.0
C      1  0.4294890000000  0.4366960000000  0.6551860000000 1.0
C      1  0.5338100000000  0.5481120000000  0.4683590000000 1.0
C      1  0.7020230000000  0.5314380000000  0.3401920000000 1.0
C      1  0.6781430000000  0.7100270000000  0.4921090000000 1.0
C      1  0.2696320000000  0.6173730000000  0.5200570000000 1.0
C      1  0.6804030000000  0.6202290000000  0.6427010000000 1.0
C      1  0.3066610000000  0.3183440000000  0.5135200000000 1.0
C      1  0.6563960000000  0.4714150000000  0.5578020000000 1.0
C      1  0.3714080000000  0.3723680000000  0.5863950000000 1.0
C      1  0.5512090000000  0.2660040000000  0.5281990000000 1.0
C      1  0.4609530000000  0.4621920000000  0.4528480000000 1.0
C      1  0.6818450000000  0.6385860000000  0.3371110000000 1.0
C      1  0.3907190000000  0.5926480000000  0.6640450000000 1.0
C      1  0.6024510000000  0.3348750000000  0.6293420000000 1.0
C      1  0.3868020000000  0.2528970000000  0.4664480000000 1.0
C      1  0.6264100000000  0.5721520000000  0.2733310000000 1.0
C      1  0.2790430000000  0.5709030000000  0.4195750000000 1.0
C      1  0.4812490000000  0.3074390000000  0.3679150000000 1.0
C      1  0.5908030000000  0.6912450000000  0.5442790000000 1.0
C      1  0.5896920000000  0.6297850000000  0.6929270000000 1.0
C      1  0.3555590000000  0.6260190000000  0.3559870000000 1.0
C      1  0.3515370000000  0.3205320000000  0.3897390000000 1.0
C      1  0.4817510000000  0.3659040000000  0.5846510000000 1.0
C      1  0.5401450000000  0.4536960000000  0.3393080000000 1.0
C      1  0.4170810000000  0.5539580000000  0.2934380000000 1.0
C      1  0.4631370000000  0.3995920000000  0.3183400000000 1.0
C      1  0.5126400000000  0.2694510000000  0.6314170000000 1.0
C      1  0.5881120000000  0.4365600000000  0.4220850000000 1.0
C      1  0.5514020000000  0.5306090000000  0.7175550000000 1.0
END
