TITL C-986975-4297-28 -1.29373057591808e-05 3375 -365.910479100425 0 0 60 (D5) n - 1
REM
REM in /home/bkarasulu/work/CARBON/AIRSS/Generating-Clusters/REBO/Higher-Symm/Only-C60
REM
REM
REM
REM
REM
REM ./C.cell (a2850807a9bf4ad07a5b6933b78d9264)
REM AIRSS Version 0.9.1 bugfix July 2018 build 013d7b7c2542+ Fri, 06 Jul 2018 19:26:36 +0100
REM compiler GCC version 9.2.1 20190827 (Red Hat 9.2.1-1)
REM options -cpp -mtune=generic -march=x86-64 -g -O0 -fpre-include=/usr/include/finclude/math-vector-fortran.h
REM seed -1117233999 -1007024674 -269728518 -1721465549 1728558601 522619675 -6132078 53643585 -2081728898 1674213183 1832860476 384215145 -879269379 -1333436336 956175320 2127860378 519430790 -842047916 1138672216 1379503908 1496055458 -1711761095 -671048771 -936784706 1357788878 1434805010 -718728150 154405894 -1906438247 1975883645 1589424029 31538549 -570745905
REM
CELL 1.54180   15.00000   15.00000   15.00000   90.00000   90.00000   90.00000
LATT -1
SFAC C  
C      1  0.5616060000000  0.4747430000000  0.4216370000000 1.0
C      1  0.5616880000000  0.5663890000000  0.4518810000000 1.0
C      1  0.5617880000000  0.5659610000000  0.5483810000000 1.0
C      1  0.5617640000000  0.4740430000000  0.5778090000000 1.0
C      1  0.5616500000000  0.4176500000000  0.4994650000000 1.0
C      1  0.4383940000000  0.5252570000000  0.4216370000000 1.0
C      1  0.4383120000000  0.4336110000000  0.4518810000000 1.0
C      1  0.4382120000000  0.4340390000000  0.5483810000000 1.0
C      1  0.4382360000000  0.5259570000000  0.5778090000000 1.0
C      1  0.4383500000000  0.5823500000000  0.4994650000000 1.0
C      1  0.3650240000000  0.5493050000000  0.3053770000000 1.0
C      1  0.3650030000000  0.7003670000000  0.4868270000000 1.0
C      1  0.3649800000000  0.5744670000000  0.6865140000000 1.0
C      1  0.3649850000000  0.3456870000000  0.6285200000000 1.0
C      1  0.3650130000000  0.3300940000000  0.3930100000000 1.0
C      1  0.6349760000000  0.4506950000000  0.3053770000000 1.0
C      1  0.6349970000000  0.2996330000000  0.4868270000000 1.0
C      1  0.6350200000000  0.4255330000000  0.6865140000000 1.0
C      1  0.6350150000000  0.6543130000000  0.6285200000000 1.0
C      1  0.6349870000000  0.6699060000000  0.3930100000000 1.0
C      1  0.4729760000000  0.3583250000000  0.6202220000000 1.0
C      1  0.4730250000000  0.3417720000000  0.4023900000000 1.0
C      1  0.4730800000000  0.5439720000000  0.3189040000000 1.0
C      1  0.4730640000000  0.6859900000000  0.4858380000000 1.0
C      1  0.4730020000000  0.5707500000000  0.6722240000000 1.0
C      1  0.5270240000000  0.6416750000000  0.6202220000000 1.0
C      1  0.5269750000000  0.6582280000000  0.4023890000000 1.0
C      1  0.5269200000000  0.4560280000000  0.3189040000000 1.0
C      1  0.5269360000000  0.3140110000000  0.4858380000000 1.0
C      1  0.5269980000000  0.4292510000000  0.6722230000000 1.0
C      1  0.6749210000000  0.5905720000000  0.6842050000000 1.0
C      1  0.6749630000000  0.3529250000000  0.6430420000000 1.0
C      1  0.6749460000000  0.3186070000000  0.4043520000000 1.0
C      1  0.6748920000000  0.5350060000000  0.2979030000000 1.0
C      1  0.6748770000000  0.7031510000000  0.4708550000000 1.0
C      1  0.3250790000000  0.4094280000000  0.6842050000000 1.0
C      1  0.3250370000000  0.6470750000000  0.6430420000000 1.0
C      1  0.3250540000000  0.6813930000000  0.4043520000000 1.0
C      1  0.3251080000000  0.4649940000000  0.2979030000000 1.0
C      1  0.3251230000000  0.2968490000000  0.4708550000000 1.0
C      1  0.4631390000000  0.3825920000000  0.2762000000000 1.0
C      1  0.4631510000000  0.6765900000000  0.3193740000000 1.0
C      1  0.4631770000000  0.7263160000000  0.6121800000000 1.0
C      1  0.4631810000000  0.4633400000000  0.7500340000000 1.0
C      1  0.4631570000000  0.2508160000000  0.5425430000000 1.0
C      1  0.5368610000000  0.6174080000000  0.2762000000000 1.0
C      1  0.5368490000000  0.3234100000000  0.3193740000000 1.0
C      1  0.5368230000000  0.2736840000000  0.6121800000000 1.0
C      1  0.5368190000000  0.5366600000000  0.7500350000000 1.0
C      1  0.5368430000000  0.7491840000000  0.5425430000000 1.0
C      1  0.6269970000000  0.2935650000000  0.5857120000000 1.0
C      1  0.6270040000000  0.3547610000000  0.3301460000000 1.0
C      1  0.6269930000000  0.6167760000000  0.3093680000000 1.0
C      1  0.6269790000000  0.7174680000000  0.5521690000000 1.0
C      1  0.6269810000000  0.5176770000000  0.7229190000000 1.0
C      1  0.3730030000000  0.7064350000000  0.5857120000000 1.0
C      1  0.3729960000000  0.6452390000000  0.3301460000000 1.0
C      1  0.3730070000000  0.3832240000000  0.3093680000000 1.0
C      1  0.3730210000000  0.2825320000000  0.5521690000000 1.0
C      1  0.3730190000000  0.4823230000000  0.7229190000000 1.0
END
