TITL C-986978-6805-654 -2.59126589070392e-05 3375 -369.193398980661 0 0 60 (C1) n - 1
REM
REM in /home/bkarasulu/work/CARBON/AIRSS/Generating-Clusters/REBO/Higher-Symm/Only-C60
REM
REM
REM
REM
REM
REM ./C.cell (a2850807a9bf4ad07a5b6933b78d9264)
REM AIRSS Version 0.9.1 bugfix July 2018 build 013d7b7c2542+ Fri, 06 Jul 2018 19:26:36 +0100
REM compiler GCC version 9.2.1 20190827 (Red Hat 9.2.1-1)
REM options -cpp -mtune=generic -march=x86-64 -g -O0 -fpre-include=/usr/include/finclude/math-vector-fortran.h
REM seed -233736988 1391024566 1072004059 2101286144 -1279628865 220047327 1118013322 707525041 1892121574 1730185998 290750988 1133471310 131717737 706915667 -1693123460 1355744596 924051314 -1361597781 1527926989 641180877 530738760 -1646778847 1733662095 -122168724 -1542157845 1577229150 1886090066 150544633 264530082 1170454740 -743869442 475371796 -1165481698
REM
CELL 1.54180   15.00000   15.00000   15.00000   90.00000   90.00000   90.00000
LATT -1
SFAC C  
C      1  0.6694180000000  0.6429430000000  0.4848410000000 1.0
C      1  0.4306940000000  0.6409410000000  0.6551800000000 1.0
C      1  0.4018310000000  0.6395940000000  0.3627400000000 1.0
C      1  0.3313580000000  0.3594490000000  0.4824020000000 1.0
C      1  0.5696430000000  0.3606070000000  0.6537550000000 1.0
C      1  0.5981880000000  0.3566800000000  0.3602890000000 1.0
C      1  0.5932670000000  0.3129300000000  0.5072250000000 1.0
C      1  0.4450640000000  0.3121070000000  0.5771810000000 1.0
C      1  0.4581910000000  0.3085060000000  0.4114960000000 1.0
C      1  0.4058310000000  0.6881160000000  0.5089890000000 1.0
C      1  0.5555490000000  0.6916610000000  0.5804900000000 1.0
C      1  0.5403990000000  0.6873260000000  0.4153470000000 1.0
C      1  0.6768810000000  0.6050350000000  0.3983380000000 1.0
C      1  0.5016530000000  0.6061500000000  0.7078960000000 1.0
C      1  0.3202530000000  0.6062310000000  0.3985060000000 1.0
C      1  0.3211690000000  0.3944900000000  0.3948490000000 1.0
C      1  0.4979150000000  0.3939850000000  0.7066760000000 1.0
C      1  0.6765770000000  0.3949570000000  0.3973980000000 1.0
C      1  0.4605040000000  0.6972850000000  0.5861910000000 1.0
C      1  0.4465380000000  0.6961050000000  0.4233120000000 1.0
C      1  0.5939890000000  0.6981210000000  0.4934320000000 1.0
C      1  0.5395630000000  0.3041180000000  0.5846810000000 1.0
C      1  0.5528330000000  0.3016910000000  0.4215540000000 1.0
C      1  0.4059200000000  0.3032570000000  0.4910830000000 1.0
C      1  0.3402630000000  0.4312960000000  0.5571330000000 1.0
C      1  0.5286250000000  0.4266990000000  0.3239930000000 1.0
C      1  0.6237530000000  0.4348520000000  0.6076220000000 1.0
C      1  0.6661680000000  0.5732070000000  0.5631080000000 1.0
C      1  0.4688480000000  0.5653770000000  0.3387070000000 1.0
C      1  0.3724330000000  0.5683620000000  0.6092090000000 1.0
C      1  0.4217190000000  0.3914960000000  0.3425880000000 1.0
C      1  0.6683580000000  0.3982530000000  0.5094150000000 1.0
C      1  0.4046660000000  0.3949940000000  0.6437050000000 1.0
C      1  0.5761310000000  0.6021870000000  0.3489770000000 1.0
C      1  0.3284010000000  0.6048990000000  0.5107970000000 1.0
C      1  0.5969500000000  0.6086840000000  0.6465640000000 1.0
C      1  0.4716130000000  0.5386710000000  0.7700520000000 1.0
C      1  0.2796380000000  0.5398490000000  0.3416990000000 1.0
C      1  0.7457670000000  0.5383900000000  0.3910330000000 1.0
C      1  0.5268700000000  0.4604780000000  0.7701860000000 1.0
C      1  0.7173220000000  0.4617500000000  0.3415170000000 1.0
C      1  0.2522210000000  0.4618190000000  0.3898380000000 1.0
C      1  0.3791270000000  0.5167550000000  0.7600880000000 1.0
C      1  0.3335900000000  0.5178110000000  0.2661130000000 1.0
C      1  0.7852910000000  0.5151930000000  0.4748950000000 1.0
C      1  0.6193080000000  0.4823760000000  0.7611400000000 1.0
C      1  0.6645910000000  0.4849650000000  0.2652600000000 1.0
C      1  0.2145510000000  0.4839620000000  0.4748650000000 1.0
C      1  0.4995090000000  0.5365550000000  0.4360170000000 1.0
C      1  0.5633610000000  0.5718800000000  0.5231380000000 1.0
C      1  0.4524800000000  0.5518040000000  0.5384140000000 1.0
C      1  0.5123310000000  0.4281160000000  0.4329330000000 1.0
C      1  0.4430760000000  0.4428480000000  0.5218250000000 1.0
C      1  0.5544100000000  0.4634380000000  0.5324340000000 1.0
C      1  0.7221840000000  0.4917010000000  0.5386450000000 1.0
C      1  0.3576550000000  0.4914270000000  0.6739070000000 1.0
C      1  0.4184640000000  0.4909780000000  0.2899500000000 1.0
C      1  0.2784280000000  0.5090310000000  0.5368070000000 1.0
C      1  0.6409290000000  0.5091860000000  0.6757000000000 1.0
C      1  0.5777430000000  0.5084240000000  0.2878770000000 1.0
END
