TITL C-986975-4297-901 -6.32313844183893e-07 3375 -344.670476093878 0 0 60 (C1) n - 1
REM
REM in /home/bkarasulu/work/CARBON/AIRSS/Generating-Clusters/REBO/Higher-Symm/Only-C60
REM
REM
REM
REM
REM
REM ./C.cell (a2850807a9bf4ad07a5b6933b78d9264)
REM AIRSS Version 0.9.1 bugfix July 2018 build 013d7b7c2542+ Fri, 06 Jul 2018 19:26:36 +0100
REM compiler GCC version 9.2.1 20190827 (Red Hat 9.2.1-1)
REM options -cpp -mtune=generic -march=x86-64 -g -O0 -fpre-include=/usr/include/finclude/math-vector-fortran.h
REM seed 519761316 -101517657 459938931 421129526 896529818 -1891864872 -6086153 499923561 100272528 2045868819 1738373925 253820970 -1316593427 -1528466734 1886765487 -1057283478 -1245107649 89111930 1828278988 2128302158 597702450 1797204710 1771769221 -408259121 864306089 -523262877 792006913 1696641892 1668220951 602635976 -740746170 -1078562489 -341435163
REM
CELL 1.54180   15.00000   15.00000   15.00000   90.00000   90.00000   90.00000
LATT -1
SFAC C  
C      1  0.6156730000000  0.4242490000000  0.3760570000000 1.0
C      1  0.6263250000000  0.5423990000000  0.6679450000000 1.0
C      1  0.7265450000000  0.5800770000000  0.5160620000000 1.0
C      1  0.3046510000000  0.6080220000000  0.5265940000000 1.0
C      1  0.3402830000000  0.6710660000000  0.5913950000000 1.0
C      1  0.5024440000000  0.3657780000000  0.6571670000000 1.0
C      1  0.4013380000000  0.2863870000000  0.5458400000000 1.0
C      1  0.5456820000000  0.4355060000000  0.2644000000000 1.0
C      1  0.5924020000000  0.3776020000000  0.6121440000000 1.0
C      1  0.5067060000000  0.6952580000000  0.6074260000000 1.0
C      1  0.4640290000000  0.3596260000000  0.4006630000000 1.0
C      1  0.5979060000000  0.3419910000000  0.3044140000000 1.0
C      1  0.2918240000000  0.3992600000000  0.6873560000000 1.0
C      1  0.2732190000000  0.4936930000000  0.6438750000000 1.0
C      1  0.4732470000000  0.5297160000000  0.3235930000000 1.0
C      1  0.3086160000000  0.5589770000000  0.3276660000000 1.0
C      1  0.7447360000000  0.4945750000000  0.4436880000000 1.0
C      1  0.6549330000000  0.2931420000000  0.4557770000000 1.0
C      1  0.4488440000000  0.5563210000000  0.4269210000000 1.0
C      1  0.3726240000000  0.6306300000000  0.6752830000000 1.0
C      1  0.7186070000000  0.5095300000000  0.6053850000000 1.0
C      1  0.4633390000000  0.4513370000000  0.6912800000000 1.0
C      1  0.8360930000000  0.4842910000000  0.4047660000000 1.0
C      1  0.4251980000000  0.2638940000000  0.4399560000000 1.0
C      1  0.3505590000000  0.6116860000000  0.4427130000000 1.0
C      1  0.4681000000000  0.7285940000000  0.4417060000000 1.0
C      1  0.4265520000000  0.7218260000000  0.5384620000000 1.0
C      1  0.3282690000000  0.5537530000000  0.7092280000000 1.0
C      1  0.4895740000000  0.3364570000000  0.2713870000000 1.0
C      1  0.5366770000000  0.5931890000000  0.4524060000000 1.0
C      1  0.5287280000000  0.5434940000000  0.6938930000000 1.0
C      1  0.4596100000000  0.5216370000000  0.6087960000000 1.0
C      1  0.6623260000000  0.4364780000000  0.6718420000000 1.0
C      1  0.6033590000000  0.7030610000000  0.5975920000000 1.0
C      1  0.6415250000000  0.6139050000000  0.5847080000000 1.0
C      1  0.6841270000000  0.4029660000000  0.4571680000000 1.0
C      1  0.6004960000000  0.5408460000000  0.5119000000000 1.0
C      1  0.2983690000000  0.4859660000000  0.3802410000000 1.0
C      1  0.6146940000000  0.2606640000000  0.3737630000000 1.0
C      1  0.5859650000000  0.5189840000000  0.3296690000000 1.0
C      1  0.4683180000000  0.6325620000000  0.6822400000000 1.0
C      1  0.4454740000000  0.3060180000000  0.6197670000000 1.0
C      1  0.6561800000000  0.6489990000000  0.4574500000000 1.0
C      1  0.3929270000000  0.6039430000000  0.3166790000000 1.0
C      1  0.6535210000000  0.5473930000000  0.4097350000000 1.0
C      1  0.6454200000000  0.4506290000000  0.5422120000000 1.0
C      1  0.4046390000000  0.5131660000000  0.5142380000000 1.0
C      1  0.5432190000000  0.3963060000000  0.4487450000000 1.0
C      1  0.4080430000000  0.6798940000000  0.3835490000000 1.0
C      1  0.4355240000000  0.4318380000000  0.2930070000000 1.0
C      1  0.3674430000000  0.4057550000000  0.3697630000000 1.0
C      1  0.5848600000000  0.3360540000000  0.5154280000000 1.0
C      1  0.2778650000000  0.5198240000000  0.5536230000000 1.0
C      1  0.5034740000000  0.2645360000000  0.3574000000000 1.0
C      1  0.6489180000000  0.7778400000000  0.5998930000000 1.0
C      1  0.3205700000000  0.4517220000000  0.4848700000000 1.0
C      1  0.3689250000000  0.4585130000000  0.7287650000000 1.0
C      1  0.3496590000000  0.3469740000000  0.4660430000000 1.0
C      1  0.5593490000000  0.6902240000000  0.4435160000000 1.0
C      1  0.4514760000000  0.6109790000000  0.5519500000000 1.0
END
