TITL C-986974-580-904 6.97245860901833e-07 3375 -359.079651861812 0 0 60 (Ci) n - 1
REM
REM in /home/bkarasulu/work/CARBON/AIRSS/Generating-Clusters/REBO/Higher-Symm/Only-C60
REM
REM
REM
REM
REM
REM ./C.cell (a2850807a9bf4ad07a5b6933b78d9264)
REM AIRSS Version 0.9.1 bugfix July 2018 build 013d7b7c2542+ Fri, 06 Jul 2018 19:26:36 +0100
REM compiler GCC version 9.2.1 20190827 (Red Hat 9.2.1-1)
REM options -cpp -mtune=generic -march=x86-64 -g -O0 -fpre-include=/usr/include/finclude/math-vector-fortran.h
REM seed 248436810 -887140169 259145161 -1747911434 -818917222 -2105400816 1055146600 933116074 -1568766627 1168456292 -753422340 -1596148982 783503995 219374749 -1600734593 260021414 1790859879 -1865381482 -2068251595 1684550216 -1749449566 837364023 -585305052 1815621745 -671751654 -681174909 1426473749 2061288487 -470631120 -1283503394 -508682644 905354922 228095860
REM
CELL 1.54180   15.00000   15.00000   15.00000   90.00000   90.00000   90.00000
LATT -1
SFAC C  
C      1  0.4538560000000  0.7315330000000  0.5069790000000 1.0
C      1  0.4389420000000  0.2646910000000  0.5025210000000 1.0
C      1  0.5610580000000  0.7353090000000  0.4974790000000 1.0
C      1  0.5461440000000  0.2684670000000  0.4930210000000 1.0
C      1  0.3145570000000  0.5709940000000  0.3399620000000 1.0
C      1  0.3093780000000  0.4277900000000  0.6631200000000 1.0
C      1  0.6906220000000  0.5722100000000  0.3368800000000 1.0
C      1  0.6854430000000  0.4290060000000  0.6600380000000 1.0
C      1  0.5455750000000  0.5596620000000  0.6906990000000 1.0
C      1  0.5516530000000  0.4428510000000  0.3068260000000 1.0
C      1  0.4483470000000  0.5571490000000  0.6931740000000 1.0
C      1  0.4544250000000  0.4403380000000  0.3093010000000 1.0
C      1  0.7438510000000  0.4983000000000  0.3589920000000 1.0
C      1  0.7389690000000  0.5032520000000  0.6390850000000 1.0
C      1  0.2610310000000  0.4967480000000  0.3609150000000 1.0
C      1  0.2561490000000  0.5017000000000  0.6410080000000 1.0
C      1  0.4530820000000  0.3101600000000  0.4079190000000 1.0
C      1  0.4434970000000  0.6893260000000  0.6029400000000 1.0
C      1  0.5565030000000  0.3106740000000  0.3970600000000 1.0
C      1  0.5469180000000  0.6898400000000  0.5920810000000 1.0
C      1  0.3070220000000  0.5942290000000  0.6032620000000 1.0
C      1  0.3111800000000  0.4033890000000  0.4001850000000 1.0
C      1  0.6888200000000  0.5966110000000  0.5998150000000 1.0
C      1  0.6929780000000  0.4057710000000  0.3967380000000 1.0
C      1  0.3055350000000  0.3500150000000  0.6033670000000 1.0
C      1  0.3137450000000  0.6472650000000  0.4009830000000 1.0
C      1  0.6862550000000  0.3527350000000  0.5990170000000 1.0
C      1  0.6944650000000  0.6499850000000  0.3966330000000 1.0
C      1  0.4520980000000  0.3726700000000  0.6292820000000 1.0
C      1  0.4509320000000  0.6264610000000  0.3736840000000 1.0
C      1  0.5490680000000  0.3735390000000  0.6263160000000 1.0
C      1  0.5479020000000  0.6273300000000  0.3707180000000 1.0
C      1  0.2432050000000  0.5206600000000  0.5396340000000 1.0
C      1  0.2450320000000  0.4774610000000  0.4613700000000 1.0
C      1  0.7549680000000  0.5225390000000  0.5386300000000 1.0
C      1  0.7567950000000  0.4793400000000  0.4603660000000 1.0
C      1  0.5475970000000  0.5051750000000  0.4238760000000 1.0
C      1  0.5441980000000  0.4958050000000  0.5745480000000 1.0
C      1  0.4558020000000  0.5041960000000  0.4254520000000 1.0
C      1  0.4524020000000  0.4948250000000  0.5761240000000 1.0
C      1  0.3954990000000  0.6230030000000  0.6487820000000 1.0
C      1  0.4036510000000  0.3756020000000  0.3592520000000 1.0
C      1  0.5963490000000  0.6243980000000  0.6407480000000 1.0
C      1  0.6045010000000  0.3769970000000  0.3512180000000 1.0
C      1  0.4103660000000  0.5373640000000  0.3236260000000 1.0
C      1  0.4061510000000  0.4591780000000  0.6771320000000 1.0
C      1  0.5938490000000  0.5408220000000  0.3228680000000 1.0
C      1  0.5896340000000  0.4626360000000  0.6763740000000 1.0
C      1  0.3944820000000  0.2941330000000  0.5808640000000 1.0
C      1  0.4017600000000  0.7055140000000  0.4311650000000 1.0
C      1  0.5982400000000  0.2944860000000  0.5688350000000 1.0
C      1  0.6055180000000  0.7058670000000  0.4191360000000 1.0
C      1  0.6017810000000  0.5803240000000  0.4618690000000 1.0
C      1  0.5951080000000  0.4214870000000  0.5307280000000 1.0
C      1  0.4048920000000  0.5785130000000  0.4692720000000 1.0
C      1  0.3982190000000  0.4196760000000  0.5381300000000 1.0
C      1  0.3232130000000  0.6202800000000  0.5037540000000 1.0
C      1  0.3197710000000  0.3752620000000  0.5003410000000 1.0
C      1  0.6802290000000  0.6247380000000  0.4996590000000 1.0
C      1  0.6767870000000  0.3797200000000  0.4962460000000 1.0
END
