TITL C-986974-580-905 -5.86523744317339e-05 3375 -354.704939311991 0 0 60 (Ci) n - 1
REM
REM in /home/bkarasulu/work/CARBON/AIRSS/Generating-Clusters/REBO/Higher-Symm/Only-C60
REM
REM
REM
REM
REM
REM ./C.cell (a2850807a9bf4ad07a5b6933b78d9264)
REM AIRSS Version 0.9.1 bugfix July 2018 build 013d7b7c2542+ Fri, 06 Jul 2018 19:26:36 +0100
REM compiler GCC version 9.2.1 20190827 (Red Hat 9.2.1-1)
REM options -cpp -mtune=generic -march=x86-64 -g -O0 -fpre-include=/usr/include/finclude/math-vector-fortran.h
REM seed -398945061 -306489797 872107174 1096115722 -2117562795 -1838415402 581653023 -590096678 1696045314 -695767985 -266732429 -1258197537 355148327 -1867529364 582033953 309211814 -1448399201 343024585 -1270159413 1555961503 1576171445 -1092755482 469700816 307421097 362886445 -1578223585 -166080637 -1242458379 -366886188 -1000218307 509833174 -1951023728 -1256968461
REM
CELL 1.54180   15.00000   15.00000   15.00000   90.00000   90.00000   90.00000
LATT -1
SFAC C  
C      1  0.2855720000000  0.3709920000000  0.5215310000000 1.0
C      1  0.7133290000000  0.6291510000000  0.4799810000000 1.0
C      1  0.5289590000000  0.6171380000000  0.6862720000000 1.0
C      1  0.4710700000000  0.3849460000000  0.3167050000000 1.0
C      1  0.7306850000000  0.4125140000000  0.5442910000000 1.0
C      1  0.2695240000000  0.5880180000000  0.4561290000000 1.0
C      1  0.4623770000000  0.6471700000000  0.3955380000000 1.0
C      1  0.5378370000000  0.3517260000000  0.6040120000000 1.0
C      1  0.2635460000000  0.5371180000000  0.5499140000000 1.0
C      1  0.7370830000000  0.4636860000000  0.4507850000000 1.0
C      1  0.3310280000000  0.5381760000000  0.6183090000000 1.0
C      1  0.6701390000000  0.4622280000000  0.3817330000000 1.0
C      1  0.3741570000000  0.3944860000000  0.3304390000000 1.0
C      1  0.6264910000000  0.6074930000000  0.6726570000000 1.0
C      1  0.4369230000000  0.4168230000000  0.4551850000000 1.0
C      1  0.5623020000000  0.5806920000000  0.5428250000000 1.0
C      1  0.3913950000000  0.6028850000000  0.3244510000000 1.0
C      1  0.6088180000000  0.3964980000000  0.6751290000000 1.0
C      1  0.6213600000000  0.3813350000000  0.3814370000000 1.0
C      1  0.3805150000000  0.6184290000000  0.6180950000000 1.0
C      1  0.4893500000000  0.5689140000000  0.2881500000000 1.0
C      1  0.5113940000000  0.4328780000000  0.7101590000000 1.0
C      1  0.3513300000000  0.5056450000000  0.3212380000000 1.0
C      1  0.6459140000000  0.4953020000000  0.6779140000000 1.0
C      1  0.4738030000000  0.5255290000000  0.5905760000000 1.0
C      1  0.5250390000000  0.4713560000000  0.4068580000000 1.0
C      1  0.3373910000000  0.3706630000000  0.4345990000000 1.0
C      1  0.6602870000000  0.6282970000000  0.5664640000000 1.0
C      1  0.5262620000000  0.5707930000000  0.4409450000000 1.0
C      1  0.4730020000000  0.4266950000000  0.5573920000000 1.0
C      1  0.4349840000000  0.5757460000000  0.5044510000000 1.0
C      1  0.5640680000000  0.4223350000000  0.4942510000000 1.0
C      1  0.3400790000000  0.3627560000000  0.5957950000000 1.0
C      1  0.6593950000000  0.6371220000000  0.4053130000000 1.0
C      1  0.2225080000000  0.4444760000000  0.5219800000000 1.0
C      1  0.7771750000000  0.5564280000000  0.4795790000000 1.0
C      1  0.5314550000000  0.3326820000000  0.3670340000000 1.0
C      1  0.4691550000000  0.6691980000000  0.6339360000000 1.0
C      1  0.7219720000000  0.5598810000000  0.6331370000000 1.0
C      1  0.2769580000000  0.4401890000000  0.3679590000000 1.0
C      1  0.5645370000000  0.6922260000000  0.4008800000000 1.0
C      1  0.4347430000000  0.3067170000000  0.6008240000000 1.0
C      1  0.6483160000000  0.3588910000000  0.5752270000000 1.0
C      1  0.3518440000000  0.6413210000000  0.4241330000000 1.0
C      1  0.4001540000000  0.5141310000000  0.4233540000000 1.0
C      1  0.5991930000000  0.4839000000000  0.5751920000000 1.0
C      1  0.5129110000000  0.2707970000000  0.4486240000000 1.0
C      1  0.4880010000000  0.7298890000000  0.5515340000000 1.0
C      1  0.5483440000000  0.7498730000000  0.4872600000000 1.0
C      1  0.4530220000000  0.2507960000000  0.5131800000000 1.0
C      1  0.4359160000000  0.3859730000000  0.6825470000000 1.0
C      1  0.5648790000000  0.6152520000000  0.3168690000000 1.0
C      1  0.5048050000000  0.4765790000000  0.3032510000000 1.0
C      1  0.4960540000000  0.5252430000000  0.6931470000000 1.0
C      1  0.6030600000000  0.3245700000000  0.4785530000000 1.0
C      1  0.3995290000000  0.6745530000000  0.5209220000000 1.0
C      1  0.7763640000000  0.5039620000000  0.5702120000000 1.0
C      1  0.2231030000000  0.4965560000000  0.4310300000000 1.0
C      1  0.6445140000000  0.5507600000000  0.3495320000000 1.0
C      1  0.3560800000000  0.4496230000000  0.6505820000000 1.0
END
