TITL C-986976-6631-681 1.96392159259668e-06 3375 -359.077140868761 0 0 60 (C1) n - 1
REM
REM in /home/bkarasulu/work/CARBON/AIRSS/Generating-Clusters/REBO/Higher-Symm/Only-C60
REM
REM
REM
REM
REM
REM ./C.cell (a2850807a9bf4ad07a5b6933b78d9264)
REM AIRSS Version 0.9.1 bugfix July 2018 build 013d7b7c2542+ Fri, 06 Jul 2018 19:26:36 +0100
REM compiler GCC version 9.2.1 20190827 (Red Hat 9.2.1-1)
REM options -cpp -mtune=generic -march=x86-64 -g -O0 -fpre-include=/usr/include/finclude/math-vector-fortran.h
REM seed -2119183252 1946337029 1979257716 1985411151 -269361997 -1480389385 2008015285 -2032522030 1332397698 -612579930 -1556904871 614549610 -1518079547 -1370667613 -424565469 644875636 -959716872 -1245414246 742660982 2041553022 832431964 -1748966934 1575941946 775380344 1896279428 821302369 341550865 781793077 -1179578881 -1841461929 988903952 -808906546 149807705
REM
CELL 1.54180   15.00000   15.00000   15.00000   90.00000   90.00000   90.00000
LATT -1
SFAC C  
C      1  0.2779510000000  0.4806200000000  0.5166380000000 1.0
C      1  0.5991350000000  0.7021580000000  0.5134630000000 1.0
C      1  0.6264870000000  0.3181480000000  0.5147700000000 1.0
C      1  0.6749380000000  0.3950270000000  0.4486360000000 1.0
C      1  0.3280150000000  0.4071460000000  0.4475180000000 1.0
C      1  0.4975820000000  0.7148350000000  0.4646740000000 1.0
C      1  0.4164750000000  0.2978070000000  0.5882150000000 1.0
C      1  0.3625520000000  0.6719780000000  0.5923880000000 1.0
C      1  0.7146020000000  0.5294770000000  0.5892010000000 1.0
C      1  0.3921080000000  0.6419820000000  0.3520930000000 1.0
C      1  0.6886010000000  0.5199180000000  0.3454310000000 1.0
C      1  0.4301350000000  0.3349930000000  0.3435150000000 1.0
C      1  0.7255140000000  0.5437270000000  0.4967350000000 1.0
C      1  0.4254520000000  0.2863020000000  0.4943800000000 1.0
C      1  0.3432130000000  0.6711400000000  0.5000270000000 1.0
C      1  0.4820270000000  0.4000280000000  0.5336400000000 1.0
C      1  0.4243330000000  0.5702560000000  0.5299560000000 1.0
C      1  0.5956850000000  0.5319340000000  0.5230060000000 1.0
C      1  0.4001970000000  0.5163420000000  0.3091920000000 1.0
C      1  0.5795030000000  0.5729890000000  0.2923290000000 1.0
C      1  0.5361640000000  0.3874110000000  0.2837950000000 1.0
C      1  0.5374190000000  0.3073270000000  0.3608860000000 1.0
C      1  0.3162070000000  0.5608720000000  0.3625250000000 1.0
C      1  0.6561190000000  0.6260530000000  0.3580220000000 1.0
C      1  0.5756210000000  0.4361100000000  0.4807370000000 1.0
C      1  0.4088930000000  0.4701530000000  0.4961210000000 1.0
C      1  0.5161010000000  0.6018360000000  0.4872370000000 1.0
C      1  0.6360290000000  0.2997210000000  0.4028830000000 1.0
C      1  0.2578980000000  0.4813920000000  0.4044520000000 1.0
C      1  0.5910150000000  0.7091510000000  0.3998520000000 1.0
C      1  0.6230970000000  0.3589290000000  0.6045730000000 1.0
C      1  0.3135600000000  0.4625280000000  0.6072490000000 1.0
C      1  0.5611060000000  0.6787150000000  0.6051160000000 1.0
C      1  0.3222070000000  0.5341690000000  0.6704680000000 1.0
C      1  0.6181660000000  0.6352920000000  0.6684350000000 1.0
C      1  0.5570950000000  0.3296630000000  0.6673810000000 1.0
C      1  0.3012760000000  0.6245820000000  0.6483910000000 1.0
C      1  0.7062910000000  0.6070110000000  0.6445810000000 1.0
C      1  0.4892170000000  0.2666790000000  0.6426470000000 1.0
C      1  0.4711280000000  0.5884730000000  0.7025860000000 1.0
C      1  0.5882590000000  0.4806220000000  0.6995640000000 1.0
C      1  0.4371610000000  0.4315270000000  0.7029680000000 1.0
C      1  0.6348760000000  0.4645380000000  0.6073270000000 1.0
C      1  0.3980840000000  0.3987650000000  0.6117420000000 1.0
C      1  0.4614730000000  0.6406370000000  0.6119470000000 1.0
C      1  0.7231210000000  0.4797420000000  0.4258080000000 1.0
C      1  0.3766620000000  0.3252800000000  0.4212650000000 1.0
C      1  0.4029270000000  0.6977620000000  0.4304100000000 1.0
C      1  0.6527910000000  0.6161800000000  0.4709240000000 1.0
C      1  0.5252840000000  0.3130580000000  0.4727940000000 1.0
C      1  0.3239100000000  0.5706400000000  0.4750900000000 1.0
C      1  0.5257370000000  0.6186960000000  0.3787470000000 1.0
C      1  0.5339810000000  0.4382310000000  0.3854230000000 1.0
C      1  0.4397680000000  0.4698480000000  0.3960860000000 1.0
C      1  0.5277850000000  0.4082220000000  0.7161660000000 1.0
C      1  0.4059170000000  0.5211450000000  0.7176660000000 1.0
C      1  0.5643410000000  0.5704570000000  0.7162740000000 1.0
C      1  0.4265760000000  0.4150990000000  0.2761300000000 1.0
C      1  0.4690310000000  0.5954860000000  0.2869680000000 1.0
C      1  0.6032040000000  0.4711890000000  0.3029560000000 1.0
END
