TITL C-986973-6940-774 0.00717085448950032 3375 -361.862486598452 0 0 60 (Ci) n - 1
REM
REM in /home/bkarasulu/work/CARBON/AIRSS/Generating-Clusters/REBO/Higher-Symm/Only-C60
REM
REM
REM
REM
REM
REM ./C.cell (a2850807a9bf4ad07a5b6933b78d9264)
REM AIRSS Version 0.9.1 bugfix July 2018 build 013d7b7c2542+ Fri, 06 Jul 2018 19:26:36 +0100
REM compiler GCC version 9.2.1 20190827 (Red Hat 9.2.1-1)
REM options -cpp -mtune=generic -march=x86-64 -g -O0 -fpre-include=/usr/include/finclude/math-vector-fortran.h
REM seed -1635701442 1271278087 -793965275 -202838778 -1194157268 -1644909405 1977442420 -554041989 1607222859 -182011585 630444063 -430264502 -782768458 -1039496398 -136820584 -1083553405 1953932931 -178245723 -34816920 2096928869 -1868091909 1881497933 1393226140 920502353 -59073004 -641076964 12001024 1031074288 560081496 680036420 -912546292 252153456 -1186215543
REM
CELL 1.54180   15.00000   15.00000   15.00000   90.00000   90.00000   90.00000
LATT -1
SFAC C  
C      1  0.2673120000000  0.3935850000000  0.5815790000000 1.0
C      1  0.7052330000000  0.3709010000000  0.5584070000000 1.0
C      1  0.5143290000000  0.7243630000000  0.5566260000000 1.0
C      1  0.7189280000000  0.3861770000000  0.4287620000000 1.0
C      1  0.3050770000000  0.3846340000000  0.4557690000000 1.0
C      1  0.4833060000000  0.7351630000000  0.4298650000000 1.0
C      1  0.7326850000000  0.6064340000000  0.4184330000000 1.0
C      1  0.2947710000000  0.6291100000000  0.4415740000000 1.0
C      1  0.4856640000000  0.2756410000000  0.4433790000000 1.0
C      1  0.2810800000000  0.6138370000000  0.5712250000000 1.0
C      1  0.6949200000000  0.6153740000000  0.5442440000000 1.0
C      1  0.5167020000000  0.2648450000000  0.5701350000000 1.0
C      1  0.6646560000000  0.6784600000000  0.4674880000000 1.0
C      1  0.2466000000000  0.5514110000000  0.4939420000000 1.0
C      1  0.5820500000000  0.2668510000000  0.4867780000000 1.0
C      1  0.3340560000000  0.6892750000000  0.5197510000000 1.0
C      1  0.7550110000000  0.5429050000000  0.5015210000000 1.0
C      1  0.4188530000000  0.2762250000000  0.5266840000000 1.0
C      1  0.3353470000000  0.3215570000000  0.5325290000000 1.0
C      1  0.7534050000000  0.4486020000000  0.5060500000000 1.0
C      1  0.4179480000000  0.7331640000000  0.5132140000000 1.0
C      1  0.6659400000000  0.3107430000000  0.4802310000000 1.0
C      1  0.2449930000000  0.4571100000000  0.4984870000000 1.0
C      1  0.5811490000000  0.7237900000000  0.4733280000000 1.0
C      1  0.5929670000000  0.5617170000000  0.2773190000000 1.0
C      1  0.4251270000000  0.5501550000000  0.3001470000000 1.0
C      1  0.5227600000000  0.4147370000000  0.2981820000000 1.0
C      1  0.3982420000000  0.5379760000000  0.7145350000000 1.0
C      1  0.5686920000000  0.5436060000000  0.6916480000000 1.0
C      1  0.4892570000000  0.3988300000000  0.7177840000000 1.0
C      1  0.4070350000000  0.4382590000000  0.7226790000000 1.0
C      1  0.5748810000000  0.4498380000000  0.6998580000000 1.0
C      1  0.4772270000000  0.5852370000000  0.7018280000000 1.0
C      1  0.6017510000000  0.4620010000000  0.2854520000000 1.0
C      1  0.4312980000000  0.4563830000000  0.3083290000000 1.0
C      1  0.5107540000000  0.6011540000000  0.2822230000000 1.0
C      1  0.3109040000000  0.4494740000000  0.6636810000000 1.0
C      1  0.6366280000000  0.3936930000000  0.6244910000000 1.0
C      1  0.5253360000000  0.6471810000000  0.6199560000000 1.0
C      1  0.6937000000000  0.4370730000000  0.3422960000000 1.0
C      1  0.3754210000000  0.4069860000000  0.3921180000000 1.0
C      1  0.4560030000000  0.6682260000000  0.3532520000000 1.0
C      1  0.6890910000000  0.5505520000000  0.3363380000000 1.0
C      1  0.3633830000000  0.6063050000000  0.3755070000000 1.0
C      1  0.4746540000000  0.3528090000000  0.3800190000000 1.0
C      1  0.3063000000000  0.5629300000000  0.6576940000000 1.0
C      1  0.6245690000000  0.5930060000000  0.6078770000000 1.0
C      1  0.5440210000000  0.3317600000000  0.6467590000000 1.0
C      1  0.5481010000000  0.5303190000000  0.5609140000000 1.0
C      1  0.3820940000000  0.5275960000000  0.5828340000000 1.0
C      1  0.4714190000000  0.3888470000000  0.5814280000000 1.0
C      1  0.4457440000000  0.5607930000000  0.4311340000000 1.0
C      1  0.6065340000000  0.5698730000000  0.4116420000000 1.0
C      1  0.5405240000000  0.4273060000000  0.4296100000000 1.0
C      1  0.4518970000000  0.4696720000000  0.4390810000000 1.0
C      1  0.6179040000000  0.4724060000000  0.4171500000000 1.0
C      1  0.5285830000000  0.6111480000000  0.4186280000000 1.0
C      1  0.5542520000000  0.4391930000000  0.5688750000000 1.0
C      1  0.3934730000000  0.4301250000000  0.5884050000000 1.0
C      1  0.4594620000000  0.5726790000000  0.5703260000000 1.0
END
