TITL C-986979-5873-1125 -9.9791251303109e-06 3375 -325.250030192804 0 0 60 (C2h) n - 1
REM
REM in /home/bkarasulu/work/CARBON/AIRSS/Generating-Clusters/REBO/Higher-Symm/Only-C60
REM
REM
REM
REM
REM
REM ./C.cell (a2850807a9bf4ad07a5b6933b78d9264)
REM AIRSS Version 0.9.1 bugfix July 2018 build 013d7b7c2542+ Fri, 06 Jul 2018 19:26:36 +0100
REM compiler GCC version 9.2.1 20190827 (Red Hat 9.2.1-1)
REM options -cpp -mtune=generic -march=x86-64 -g -O0 -fpre-include=/usr/include/finclude/math-vector-fortran.h
REM seed -661305318 -1556416052 -1062574130 444647306 2009120829 55709778 364580740 1527480302 1581537349 141392794 119573111 -636067836 715706062 1198246977 973352264 1287528096 830006147 -283559574 1459057697 382843389 496760773 1480290268 1649160241 -1261983018 -192553567 270234114 -772333366 -62640271 -1689876172 714925101 1856481703 658453035 -1757448174
REM
CELL 1.54180   15.00000   15.00000   15.00000   90.00000   90.00000   90.00000
LATT -1
SFAC C  
C      1  0.5765630000000  0.5682490000000  0.7209510000000 1.0
C      1  0.2906220000000  0.5683670000000  0.5723780000000 1.0
C      1  0.4249490000000  0.5682490000000  0.2829880000000 1.0
C      1  0.7108900000000  0.5683670000000  0.4315600000000 1.0
C      1  0.5765630000000  0.4362610000000  0.7209510000000 1.0
C      1  0.2906220000000  0.4361430000000  0.5723780000000 1.0
C      1  0.4249490000000  0.4362610000000  0.2829880000000 1.0
C      1  0.7108900000000  0.4361430000000  0.4315600000000 1.0
C      1  0.5533480000000  0.4087150000000  0.3101510000000 1.0
C      1  0.6882100000000  0.4030220000000  0.5584020000000 1.0
C      1  0.4481640000000  0.4087150000000  0.6937880000000 1.0
C      1  0.3133020000000  0.4030220000000  0.4455370000000 1.0
C      1  0.5533480000000  0.5957950000000  0.3101510000000 1.0
C      1  0.6882100000000  0.6014880000000  0.5584020000000 1.0
C      1  0.4481640000000  0.5957950000000  0.6937880000000 1.0
C      1  0.3133020000000  0.6014880000000  0.4455370000000 1.0
C      1  0.4593760000000  0.6424110000000  0.3491950000000 1.0
C      1  0.6408990000000  0.6408830000000  0.4641900000000 1.0
C      1  0.5421370000000  0.6424110000000  0.6547440000000 1.0
C      1  0.3606130000000  0.6408830000000  0.5397490000000 1.0
C      1  0.4593760000000  0.3620990000000  0.3491950000000 1.0
C      1  0.6408990000000  0.3636270000000  0.4641900000000 1.0
C      1  0.5421370000000  0.3620990000000  0.6547440000000 1.0
C      1  0.3606130000000  0.3636270000000  0.5397490000000 1.0
C      1  0.5573950000000  0.6576300000000  0.4051420000000 1.0
C      1  0.5931800000000  0.6596880000000  0.5653280000000 1.0
C      1  0.4441180000000  0.6576300000000  0.5987970000000 1.0
C      1  0.4083320000000  0.6596880000000  0.4386100000000 1.0
C      1  0.5573950000000  0.3468800000000  0.4051420000000 1.0
C      1  0.5931800000000  0.3448220000000  0.5653280000000 1.0
C      1  0.4441180000000  0.3468800000000  0.5987970000000 1.0
C      1  0.4083320000000  0.3448220000000  0.4386100000000 1.0
C      1  0.4088450000000  0.4473190000000  0.7885920000000 1.0
C      1  0.2214950000000  0.4480350000000  0.4047530000000 1.0
C      1  0.5926670000000  0.4473190000000  0.2153470000000 1.0
C      1  0.7800170000000  0.4480350000000  0.5991860000000 1.0
C      1  0.4088450000000  0.5571910000000  0.7885920000000 1.0
C      1  0.2214950000000  0.5564750000000  0.4047530000000 1.0
C      1  0.5926670000000  0.5571910000000  0.2153470000000 1.0
C      1  0.7800170000000  0.5564750000000  0.5991860000000 1.0
C      1  0.4258510000000  0.5022550000000  0.6506450000000 1.0
C      1  0.5756610000000  0.5022550000000  0.3532930000000 1.0
C      1  0.6588730000000  0.5022550000000  0.5868330000000 1.0
C      1  0.3426390000000  0.5022550000000  0.4171060000000 1.0
C      1  0.4705340000000  0.5022550000000  0.5607340000000 1.0
C      1  0.4322150000000  0.5022550000000  0.4667520000000 1.0
C      1  0.5309780000000  0.5022550000000  0.4432040000000 1.0
C      1  0.5692980000000  0.5022550000000  0.5371860000000 1.0
C      1  0.2406060000000  0.5022550000000  0.5026140000000 1.0
C      1  0.7609060000000  0.5022550000000  0.5013240000000 1.0
C      1  0.4954540000000  0.5022550000000  0.2349170000000 1.0
C      1  0.5060580000000  0.5022550000000  0.7690220000000 1.0
C      1  0.3263640000000  0.5022550000000  0.6403600000000 1.0
C      1  0.6751480000000  0.5022550000000  0.3635780000000 1.0
C      1  0.6457710000000  0.5022550000000  0.6853720000000 1.0
C      1  0.3557410000000  0.5022550000000  0.3185660000000 1.0
C      1  0.5007560000000  0.3174420000000  0.5019690000000 1.0
C      1  0.5007560000000  0.6870680000000  0.5019690000000 1.0
C      1  0.5007560000000  0.7938810000000  0.5019690000000 1.0
C      1  0.5007560000000  0.2106290000000  0.5019690000000 1.0
END
