TITL C-986976-6631-480 7.62693003007076e-06 3375 -354.385401413105 0 0 60 (C2) n - 1
REM
REM in /home/bkarasulu/work/CARBON/AIRSS/Generating-Clusters/REBO/Higher-Symm/Only-C60
REM
REM
REM
REM
REM
REM ./C.cell (a2850807a9bf4ad07a5b6933b78d9264)
REM AIRSS Version 0.9.1 bugfix July 2018 build 013d7b7c2542+ Fri, 06 Jul 2018 19:26:36 +0100
REM compiler GCC version 9.2.1 20190827 (Red Hat 9.2.1-1)
REM options -cpp -mtune=generic -march=x86-64 -g -O0 -fpre-include=/usr/include/finclude/math-vector-fortran.h
REM seed 869214080 1677251023 -1585871719 -1342527656 -411931098 1453266210 -206745107 -194812272 -811100700 -630685054 -306931611 640189474 894348829 1768391049 -165940629 -1896093902 1062085447 1379661100 1858708607 341843315 601576522 -692756247 1316678396 -2090502078 1752034769 351526158 615178257 1318362295 -1570796861 230914848 2071463006 -425959182 -934981598
REM
CELL 1.54180   15.00000   15.00000   15.00000   90.00000   90.00000   90.00000
LATT -1
SFAC C  
C      1  0.3347320000000  0.5502050000000  0.3728800000000 1.0
C      1  0.3337850000000  0.3580980000000  0.4509070000000 1.0
C      1  0.3347320000000  0.4497950000000  0.6271200000000 1.0
C      1  0.3337850000000  0.6419020000000  0.5490930000000 1.0
C      1  0.6847800000000  0.4793280000000  0.4228750000000 1.0
C      1  0.6850470000000  0.4216050000000  0.5207810000000 1.0
C      1  0.6847800000000  0.5206720000000  0.5771250000000 1.0
C      1  0.6850470000000  0.5783950000000  0.4792190000000 1.0
C      1  0.5625780000000  0.5133960000000  0.2832680000000 1.0
C      1  0.5655350000000  0.2810230000000  0.4886720000000 1.0
C      1  0.5625780000000  0.4866040000000  0.7167320000000 1.0
C      1  0.5655350000000  0.7189770000000  0.5113280000000 1.0
C      1  0.4030700000000  0.4768860000000  0.3749240000000 1.0
C      1  0.4003250000000  0.3637170000000  0.5256500000000 1.0
C      1  0.4030700000000  0.5231140000000  0.6250760000000 1.0
C      1  0.4003250000000  0.6362830000000  0.4743500000000 1.0
C      1  0.4211650000000  0.2846580000000  0.5839860000000 1.0
C      1  0.4217690000000  0.5819050000000  0.7043440000000 1.0
C      1  0.4211650000000  0.7153420000000  0.4160140000000 1.0
C      1  0.4217690000000  0.4180950000000  0.2956560000000 1.0
C      1  0.5482370000000  0.6707950000000  0.3313270000000 1.0
C      1  0.5493590000000  0.3316010000000  0.3318920000000 1.0
C      1  0.5482370000000  0.3292050000000  0.6686730000000 1.0
C      1  0.5493590000000  0.6683990000000  0.6681080000000 1.0
C      1  0.2680400000000  0.4716440000000  0.5600060000000 1.0
C      1  0.2659940000000  0.5755800000000  0.5352010000000 1.0
C      1  0.2680400000000  0.5283560000000  0.4399940000000 1.0
C      1  0.2659940000000  0.4244200000000  0.4647990000000 1.0
C      1  0.5809600000000  0.5701450000000  0.6422700000000 1.0
C      1  0.5816160000000  0.6428140000000  0.4285530000000 1.0
C      1  0.5809600000000  0.4298550000000  0.3577300000000 1.0
C      1  0.5816160000000  0.3571860000000  0.5714470000000 1.0
C      1  0.6117910000000  0.4024290000000  0.6969830000000 1.0
C      1  0.6141270000000  0.6992010000000  0.5970970000000 1.0
C      1  0.6117910000000  0.5975710000000  0.3030170000000 1.0
C      1  0.6141270000000  0.3007990000000  0.4029030000000 1.0
C      1  0.6892680000000  0.6332170000000  0.5942750000000 1.0
C      1  0.6881730000000  0.5934510000000  0.3663580000000 1.0
C      1  0.6892680000000  0.3667830000000  0.4057250000000 1.0
C      1  0.6881730000000  0.4065490000000  0.6336420000000 1.0
C      1  0.4121120000000  0.2976970000000  0.4107570000000 1.0
C      1  0.4096970000000  0.4096610000000  0.6942820000000 1.0
C      1  0.4121120000000  0.7023030000000  0.5892430000000 1.0
C      1  0.4096970000000  0.5903390000000  0.3057180000000 1.0
C      1  0.5821890000000  0.4106990000000  0.4697630000000 1.0
C      1  0.5816270000000  0.4701520000000  0.5869290000000 1.0
C      1  0.5821890000000  0.5893010000000  0.5302370000000 1.0
C      1  0.5816270000000  0.5298480000000  0.4130710000000 1.0
C      1  0.4805240000000  0.5102870000000  0.5658170000000 1.0
C      1  0.4802310000000  0.5817850000000  0.4885420000000 1.0
C      1  0.4805240000000  0.4897130000000  0.4341830000000 1.0
C      1  0.4802310000000  0.4182150000000  0.5114580000000 1.0
C      1  0.4543340000000  0.3311020000000  0.3280870000000 1.0
C      1  0.4531520000000  0.3240660000000  0.6688680000000 1.0
C      1  0.4543340000000  0.6688980000000  0.6719130000000 1.0
C      1  0.4531520000000  0.6759340000000  0.3311320000000 1.0
C      1  0.4659940000000  0.4854130000000  0.7352760000000 1.0
C      1  0.4697880000000  0.7420190000000  0.5134030000000 1.0
C      1  0.4659940000000  0.5145870000000  0.2647240000000 1.0
C      1  0.4697880000000  0.2579810000000  0.4865970000000 1.0
END
