TITL C-986976-6631-194 0.0318114133584201 3375 -294.319495939966 0 0 60 (Oh) n - 1
REM
REM in /home/bkarasulu/work/CARBON/AIRSS/Generating-Clusters/REBO/Higher-Symm/Only-C60
REM
REM
REM
REM
REM
REM ./C.cell (a2850807a9bf4ad07a5b6933b78d9264)
REM AIRSS Version 0.9.1 bugfix July 2018 build 013d7b7c2542+ Fri, 06 Jul 2018 19:26:36 +0100
REM compiler GCC version 9.2.1 20190827 (Red Hat 9.2.1-1)
REM options -cpp -mtune=generic -march=x86-64 -g -O0 -fpre-include=/usr/include/finclude/math-vector-fortran.h
REM seed -752007747 1997581870 2065830989 -1105786325 1447084831 1809807992 288536112 -1667894288 -1323936152 943140511 -741575886 1757370778 -13668 -1435798163 1290087472 431708079 -676543018 658448817 246799371 106862708 276056204 2027857335 -826549256 -1350948212 388095337 -1356471763 -1549604676 114475505 -2140241967 638481817 -463980800 -1469388686 914206151
REM
CELL 1.54180   15.00000   15.00000   15.00000   90.00000   90.00000   90.00000
LATT -1
SFAC C  
C      1  0.5561880000000  0.7038550000000  0.5562830000000 1.0
C      1  0.7038550000000  0.5562840000000  0.5561870000000 1.0
C      1  0.5562830000000  0.5561880000000  0.7038550000000 1.0
C      1  0.4438130000000  0.7038570000000  0.4437150000000 1.0
C      1  0.4438130000000  0.2961430000000  0.5562850000000 1.0
C      1  0.5561870000000  0.2961450000000  0.4437160000000 1.0
C      1  0.2961440000000  0.5562850000000  0.4438130000000 1.0
C      1  0.2961430000000  0.4437160000000  0.5561880000000 1.0
C      1  0.7038550000000  0.4437150000000  0.4438130000000 1.0
C      1  0.4437150000000  0.5561880000000  0.2961460000000 1.0
C      1  0.4437150000000  0.4438140000000  0.7038560000000 1.0
C      1  0.5562850000000  0.4438120000000  0.2961420000000 1.0
C      1  0.5561890000000  0.2961450000000  0.5562840000000 1.0
C      1  0.7038560000000  0.4437160000000  0.5561880000000 1.0
C      1  0.5562850000000  0.4438120000000  0.7038560000000 1.0
C      1  0.4438130000000  0.2961430000000  0.4437150000000 1.0
C      1  0.4438120000000  0.7038570000000  0.5562850000000 1.0
C      1  0.5561880000000  0.7038540000000  0.4437160000000 1.0
C      1  0.2961450000000  0.4437150000000  0.4438130000000 1.0
C      1  0.2961440000000  0.5562850000000  0.5561880000000 1.0
C      1  0.7038560000000  0.5562840000000  0.4438120000000 1.0
C      1  0.4437150000000  0.4438130000000  0.2961430000000 1.0
C      1  0.4437150000000  0.5561890000000  0.7038550000000 1.0
C      1  0.5562840000000  0.5561870000000  0.2961460000000 1.0
C      1  0.4431710000000  0.3392980000000  0.6607760000000 1.0
C      1  0.3392930000000  0.6607800000000  0.4431680000000 1.0
C      1  0.6607750000000  0.4431720000000  0.3392970000000 1.0
C      1  0.5568290000000  0.3392970000000  0.3392250000000 1.0
C      1  0.5568210000000  0.6606930000000  0.6607650000000 1.0
C      1  0.4431800000000  0.6606930000000  0.3392340000000 1.0
C      1  0.6606970000000  0.6607700000000  0.5568250000000 1.0
C      1  0.6606880000000  0.3392380000000  0.4431840000000 1.0
C      1  0.3393010000000  0.3392300000000  0.5568250000000 1.0
C      1  0.3392340000000  0.4431770000000  0.6606930000000 1.0
C      1  0.3392330000000  0.5568210000000  0.3393070000000 1.0
C      1  0.6607750000000  0.5568290000000  0.6607030000000 1.0
C      1  0.4431800000000  0.6606930000000  0.6607660000000 1.0
C      1  0.3393020000000  0.3392280000000  0.4431740000000 1.0
C      1  0.6607760000000  0.5568300000000  0.3392970000000 1.0
C      1  0.5568210000000  0.6606930000000  0.3392340000000 1.0
C      1  0.5568280000000  0.3392970000000  0.6607750000000 1.0
C      1  0.4431710000000  0.3392980000000  0.3392250000000 1.0
C      1  0.6606890000000  0.3392400000000  0.5568160000000 1.0
C      1  0.6606970000000  0.6607700000000  0.4431770000000 1.0
C      1  0.3392930000000  0.6607790000000  0.5568330000000 1.0
C      1  0.3392330000000  0.5568190000000  0.6606940000000 1.0
C      1  0.3392340000000  0.4431790000000  0.3393060000000 1.0
C      1  0.6607750000000  0.4431710000000  0.6607030000000 1.0
C      1  0.5000010000000  0.5868300000000  0.4130310000000 1.0
C      1  0.5868380000000  0.4130300000000  0.5000000000000 1.0
C      1  0.4130420000000  0.5000010000000  0.5868410000000 1.0
C      1  0.5000010000000  0.5868290000000  0.5869690000000 1.0
C      1  0.5000010000000  0.4131660000000  0.4130500000000 1.0
C      1  0.5000010000000  0.4131660000000  0.5869490000000 1.0
C      1  0.4131570000000  0.4130530000000  0.5000000000000 1.0
C      1  0.4131760000000  0.5869520000000  0.5000000000000 1.0
C      1  0.5868190000000  0.5869740000000  0.5000010000000 1.0
C      1  0.5869620000000  0.5000010000000  0.4131800000000 1.0
C      1  0.5869630000000  0.5000010000000  0.5868200000000 1.0
C      1  0.4130430000000  0.5000020000000  0.4131590000000 1.0
END
