TITL C-986975-4297-739 -8.86864821522521e-07 3375 -341.380100131278 0 0 60 (C1) n - 1
REM
REM in /home/bkarasulu/work/CARBON/AIRSS/Generating-Clusters/REBO/Higher-Symm/Only-C60
REM
REM
REM
REM
REM
REM ./C.cell (a2850807a9bf4ad07a5b6933b78d9264)
REM AIRSS Version 0.9.1 bugfix July 2018 build 013d7b7c2542+ Fri, 06 Jul 2018 19:26:36 +0100
REM compiler GCC version 9.2.1 20190827 (Red Hat 9.2.1-1)
REM options -cpp -mtune=generic -march=x86-64 -g -O0 -fpre-include=/usr/include/finclude/math-vector-fortran.h
REM seed -813352377 847920542 -60775096 -1929995917 -1420876313 -917454501 -1791222640 283994470 876936480 229036167 -1671531555 -1631087761 1220342237 1690804225 -2092378020 1518718492 1476184284 196493878 -1537240476 -424603876 -2071910386 -1505059560 864546045 835423516 -1905724850 -2101034419 901038320 1312919777 1266250267 1481568025 934695609 -1019679749 -1940451789
REM
CELL 1.54180   15.00000   15.00000   15.00000   90.00000   90.00000   90.00000
LATT -1
SFAC C  
C      1  0.2740670000000  0.4028970000000  0.5167530000000 1.0
C      1  0.5289310000000  0.7458940000000  0.5207800000000 1.0
C      1  0.7053730000000  0.3558600000000  0.5281570000000 1.0
C      1  0.4946580000000  0.5758130000000  0.4030020000000 1.0
C      1  0.5553640000000  0.4576800000000  0.4092330000000 1.0
C      1  0.4545580000000  0.4816310000000  0.4035840000000 1.0
C      1  0.2889900000000  0.5240760000000  0.6227840000000 1.0
C      1  0.6323790000000  0.6689580000000  0.6204600000000 1.0
C      1  0.5838630000000  0.3036760000000  0.6230750000000 1.0
C      1  0.4068650000000  0.3473720000000  0.3725580000000 1.0
C      1  0.4133590000000  0.6485560000000  0.3718530000000 1.0
C      1  0.6590880000000  0.4935270000000  0.3790980000000 1.0
C      1  0.4807060000000  0.3450870000000  0.5495850000000 1.0
C      1  0.3687310000000  0.5916510000000  0.5400050000000 1.0
C      1  0.6468480000000  0.5604510000000  0.5443830000000 1.0
C      1  0.4289160000000  0.2617240000000  0.5073460000000 1.0
C      1  0.3260790000000  0.6856240000000  0.5070240000000 1.0
C      1  0.7460580000000  0.5553650000000  0.5044160000000 1.0
C      1  0.6673870000000  0.3629260000000  0.6217730000000 1.0
C      1  0.2994750000000  0.4206460000000  0.6131820000000 1.0
C      1  0.5378950000000  0.7111450000000  0.6164410000000 1.0
C      1  0.3312260000000  0.4696190000000  0.3565840000000 1.0
C      1  0.5598630000000  0.6735120000000  0.3429520000000 1.0
C      1  0.6208760000000  0.3652920000000  0.3418600000000 1.0
C      1  0.5661290000000  0.5632060000000  0.3146050000000 1.0
C      1  0.5155020000000  0.4010160000000  0.3170160000000 1.0
C      1  0.4144040000000  0.5308690000000  0.3073810000000 1.0
C      1  0.6717300000000  0.3990060000000  0.4361510000000 1.0
C      1  0.3199650000000  0.3803980000000  0.4270930000000 1.0
C      1  0.4924830000000  0.7060620000000  0.4283520000000 1.0
C      1  0.4150150000000  0.4194370000000  0.2934260000000 1.0
C      1  0.4756010000000  0.6227610000000  0.2810870000000 1.0
C      1  0.6036750000000  0.4653330000000  0.2864660000000 1.0
C      1  0.3629580000000  0.6773150000000  0.6135370000000 1.0
C      1  0.7301400000000  0.5290760000000  0.6137330000000 1.0
C      1  0.4178460000000  0.2791550000000  0.6184380000000 1.0
C      1  0.5343540000000  0.4154300000000  0.5702660000000 1.0
C      1  0.3981390000000  0.5057950000000  0.5487030000000 1.0
C      1  0.5593180000000  0.5746360000000  0.5613270000000 1.0
C      1  0.2688290000000  0.5067580000000  0.5166200000000 1.0
C      1  0.6192270000000  0.6899840000000  0.5136130000000 1.0
C      1  0.6070080000000  0.3106630000000  0.5155020000000 1.0
C      1  0.6348130000000  0.6521620000000  0.4258640000000 1.0
C      1  0.5655040000000  0.3173690000000  0.4290200000000 1.0
C      1  0.2962860000000  0.5435480000000  0.4300660000000 1.0
C      1  0.6927770000000  0.5767490000000  0.4207960000000 1.0
C      1  0.4706770000000  0.3016270000000  0.4239700000000 1.0
C      1  0.3276500000000  0.6330670000000  0.4208360000000 1.0
C      1  0.5365440000000  0.5848220000000  0.6565980000000 1.0
C      1  0.5596870000000  0.4268160000000  0.6654960000000 1.0
C      1  0.4131830000000  0.4815720000000  0.6421320000000 1.0
C      1  0.4572510000000  0.6550350000000  0.6672150000000 1.0
C      1  0.6607380000000  0.4612330000000  0.6708270000000 1.0
C      1  0.3918350000000  0.3797780000000  0.6607060000000 1.0
C      1  0.5089090000000  0.6168820000000  0.4976960000000 1.0
C      1  0.5938160000000  0.4429320000000  0.5058800000000 1.0
C      1  0.3940460000000  0.4506750000000  0.4724900000000 1.0
C      1  0.3711790000000  0.5805030000000  0.6724780000000 1.0
C      1  0.6465480000000  0.5740520000000  0.6765410000000 1.0
C      1  0.4946800000000  0.3352970000000  0.6811890000000 1.0
END
