TITL C-986978-6805-296 0.0526471725586849 3375 -322.084303180904 0 0 60 (C1) n - 1
REM
REM in /home/bkarasulu/work/CARBON/AIRSS/Generating-Clusters/REBO/Higher-Symm/Only-C60
REM
REM
REM
REM
REM
REM ./C.cell (a2850807a9bf4ad07a5b6933b78d9264)
REM AIRSS Version 0.9.1 bugfix July 2018 build 013d7b7c2542+ Fri, 06 Jul 2018 19:26:36 +0100
REM compiler GCC version 9.2.1 20190827 (Red Hat 9.2.1-1)
REM options -cpp -mtune=generic -march=x86-64 -g -O0 -fpre-include=/usr/include/finclude/math-vector-fortran.h
REM seed -1612693603 -781767987 -977145523 493308498 -553558994 1434551469 1893642626 275799399 1812963347 -1055422655 -1007231631 1736533464 1785792259 1538389541 963763836 -44584357 1567231985 -1362872435 -750394237 1304019772 -2028359635 -801811817 1232809670 522775685 -767896251 -1750602973 -557835488 -128573444 405331247 -1157061384 806542146 816137537 553285294
REM
CELL 1.54180   15.00000   15.00000   15.00000   90.00000   90.00000   90.00000
LATT -1
SFAC C  
C      1  0.6410750000000  0.5450300000000  0.6370560000000 1.0
C      1  0.6404850000000  0.4602600000000  0.3569810000000 1.0
C      1  0.3403120000000  0.5587310000000  0.6316330000000 1.0
C      1  0.3554630000000  0.4366790000000  0.3733340000000 1.0
C      1  0.6479290000000  0.5579540000000  0.3622430000000 1.0
C      1  0.6728410000000  0.4427270000000  0.6392940000000 1.0
C      1  0.3483730000000  0.5411840000000  0.3492790000000 1.0
C      1  0.3740670000000  0.4565750000000  0.6239630000000 1.0
C      1  0.4371970000000  0.5685090000000  0.2831970000000 1.0
C      1  0.4664390000000  0.4436070000000  0.6876260000000 1.0
C      1  0.5492880000000  0.5518790000000  0.3072430000000 1.0
C      1  0.5796250000000  0.4476670000000  0.7036140000000 1.0
C      1  0.4262380000000  0.5478790000000  0.7058800000000 1.0
C      1  0.4449960000000  0.4588460000000  0.3092380000000 1.0
C      1  0.5405080000000  0.5535710000000  0.6909970000000 1.0
C      1  0.5547320000000  0.4308140000000  0.2987180000000 1.0
C      1  0.5648220000000  0.5839740000000  0.4832280000000 1.0
C      1  0.5784630000000  0.3871240000000  0.5420160000000 1.0
C      1  0.4184620000000  0.6050230000000  0.4558400000000 1.0
C      1  0.4104080000000  0.3848010000000  0.5439420000000 1.0
C      1  0.5801500000000  0.6171320000000  0.5812080000000 1.0
C      1  0.5782470000000  0.4774110000000  0.4733460000000 1.0
C      1  0.4308590000000  0.6200560000000  0.5556470000000 1.0
C      1  0.4264900000000  0.3799140000000  0.4400460000000 1.0
C      1  0.3512620000000  0.7263530000000  0.5491720000000 1.0
C      1  0.3197700000000  0.2617930000000  0.4489900000000 1.0
C      1  0.6642590000000  0.7164620000000  0.5575810000000 1.0
C      1  0.6500110000000  0.3102830000000  0.4500430000000 1.0
C      1  0.3414900000000  0.7119410000000  0.4456770000000 1.0
C      1  0.3258830000000  0.2826910000000  0.5517220000000 1.0
C      1  0.6632250000000  0.6955750000000  0.4563190000000 1.0
C      1  0.6525800000000  0.2772580000000  0.5502100000000 1.0
C      1  0.3110900000000  0.3739230000000  0.4560870000000 1.0
C      1  0.3185420000000  0.6188240000000  0.5424120000000 1.0
C      1  0.6679190000000  0.4131170000000  0.4472400000000 1.0
C      1  0.6860040000000  0.6042690000000  0.5500100000000 1.0
C      1  0.2999270000000  0.3920160000000  0.5674450000000 1.0
C      1  0.3105520000000  0.6036020000000  0.4299690000000 1.0
C      1  0.6897100000000  0.3827330000000  0.5545070000000 1.0
C      1  0.6887040000000  0.5970240000000  0.4365830000000 1.0
C      1  0.3935760000000  0.2320050000000  0.4024250000000 1.0
C      1  0.3897690000000  0.7934800000000  0.6225130000000 1.0
C      1  0.6457560000000  0.2315380000000  0.3687520000000 1.0
C      1  0.6306380000000  0.7854240000000  0.6339450000000 1.0
C      1  0.3776720000000  0.2269720000000  0.6279770000000 1.0
C      1  0.3834110000000  0.7688720000000  0.3648600000000 1.0
C      1  0.6010830000000  0.2107700000000  0.6152460000000 1.0
C      1  0.6148220000000  0.7427990000000  0.3764090000000 1.0
C      1  0.4673800000000  0.2928980000000  0.4048020000000 1.0
C      1  0.4596160000000  0.7183230000000  0.5876280000000 1.0
C      1  0.5554420000000  0.2785840000000  0.3960590000000 1.0
C      1  0.5554540000000  0.7159910000000  0.6000220000000 1.0
C      1  0.4442060000000  0.2944920000000  0.5818420000000 1.0
C      1  0.4512840000000  0.6948070000000  0.4056780000000 1.0
C      1  0.5397760000000  0.2906020000000  0.5728900000000 1.0
C      1  0.5487250000000  0.6677570000000  0.4181670000000 1.0
C      1  0.5140880000000  0.4631240000000  0.3997970000000 1.0
C      1  0.4697430000000  0.5471160000000  0.6037300000000 1.0
C      1  0.5355110000000  0.4576050000000  0.5991260000000 1.0
C      1  0.4736560000000  0.5616250000000  0.3885920000000 1.0
END
