TITL C-986973-6940-316 3.20255189763499e-06 3375 -335.698739225124 0 0 60 (C3) n - 1
REM
REM in /home/bkarasulu/work/CARBON/AIRSS/Generating-Clusters/REBO/Higher-Symm/Only-C60
REM
REM
REM
REM
REM
REM ./C.cell (a2850807a9bf4ad07a5b6933b78d9264)
REM AIRSS Version 0.9.1 bugfix July 2018 build 013d7b7c2542+ Fri, 06 Jul 2018 19:26:36 +0100
REM compiler GCC version 9.2.1 20190827 (Red Hat 9.2.1-1)
REM options -cpp -mtune=generic -march=x86-64 -g -O0 -fpre-include=/usr/include/finclude/math-vector-fortran.h
REM seed -1554067964 885164589 -2133549963 -2014129412 2128079441 -1028540581 -1020357284 -217487629 2131039897 -1741531417 -1676027425 -1149981381 -893573534 -2070760497 1329083289 2139601486 -770539740 -99973839 -1725859462 -1669507524 -375802260 1162163878 1676713918 -869115257 163083021 1865395106 1905875106 642604417 -1251103161 -801493128 2098089671 -1452778818 1657285352
REM
CELL 1.54180   15.00000   15.00000   15.00000   90.00000   90.00000   90.00000
LATT -1
SFAC C  
C      1  0.6018310000000  0.4424580000000  0.5087740000000 1.0
C      1  0.4989170000000  0.6169590000000  0.5087780000000 1.0
C      1  0.3992520000000  0.4405830000000  0.5087770000000 1.0
C      1  0.3185600000000  0.4572260000000  0.7117450000000 1.0
C      1  0.6277650000000  0.3642480000000  0.7117390000000 1.0
C      1  0.5536840000000  0.6785160000000  0.7117450000000 1.0
C      1  0.5889050000000  0.3853710000000  0.3125880000000 1.0
C      1  0.5548170000000  0.6343150000000  0.3125920000000 1.0
C      1  0.3562700000000  0.4803220000000  0.3125930000000 1.0
C      1  0.4890430000000  0.4355140000000  0.4397960000000 1.0
C      1  0.5613250000000  0.5227560000000  0.4397960000000 1.0
C      1  0.4496300000000  0.5417330000000  0.4397980000000 1.0
C      1  0.2760330000000  0.4724640000000  0.4427300000000 1.0
C      1  0.6358290000000  0.3198090000000  0.4427230000000 1.0
C      1  0.5881350000000  0.7077290000000  0.4427300000000 1.0
C      1  0.5587890000000  0.4701180000000  0.2526090000000 1.0
C      1  0.4964830000000  0.5658620000000  0.2526120000000 1.0
C      1  0.4447190000000  0.4640310000000  0.2526110000000 1.0
C      1  0.5328470000000  0.7455120000000  0.5166770000000 1.0
C      1  0.2709570000000  0.4056900000000  0.5166750000000 1.0
C      1  0.6961970000000  0.3487970000000  0.5166680000000 1.0
C      1  0.4550830000000  0.6903400000000  0.6593230000000 1.0
C      1  0.3576200000000  0.3659260000000  0.6593190000000 1.0
C      1  0.6873030000000  0.4437270000000  0.6593160000000 1.0
C      1  0.5355330000000  0.3478290000000  0.4049540000000 1.0
C      1  0.6140170000000  0.6068610000000  0.4049570000000 1.0
C      1  0.3504460000000  0.5453140000000  0.4049600000000 1.0
C      1  0.6424550000000  0.3561410000000  0.6016990000000 1.0
C      1  0.5533590000000  0.6952960000000  0.6017060000000 1.0
C      1  0.3041900000000  0.4485590000000  0.6017050000000 1.0
C      1  0.5603460000000  0.5780980000000  0.7399430000000 1.0
C      1  0.4021940000000  0.5132040000000  0.7399440000000 1.0
C      1  0.5374700000000  0.4086870000000  0.7399400000000 1.0
C      1  0.4365780000000  0.6009610000000  0.5931520000000 1.0
C      1  0.4442770000000  0.3945910000000  0.5931480000000 1.0
C      1  0.6191490000000  0.5044440000000  0.5931480000000 1.0
C      1  0.4929400000000  0.6615860000000  0.4036140000000 1.0
C      1  0.3635920000000  0.4130970000000  0.4036120000000 1.0
C      1  0.6434640000000  0.4253220000000  0.4036080000000 1.0
C      1  0.5419360000000  0.3622640000000  0.5593660000000 1.0
C      1  0.5983160000000  0.6051840000000  0.5593690000000 1.0
C      1  0.3597510000000  0.5325500000000  0.5593710000000 1.0
C      1  0.7471290000000  0.4272110000000  0.4972100000000 1.0
C      1  0.4394730000000  0.7504140000000  0.4972190000000 1.0
C      1  0.3133980000000  0.3223750000000  0.4972140000000 1.0
C      1  0.7256830000000  0.5149880000000  0.4684860000000 1.0
C      1  0.3741780000000  0.6879550000000  0.4684940000000 1.0
C      1  0.4001370000000  0.2970590000000  0.4684870000000 1.0
C      1  0.6232410000000  0.5489340000000  0.2866360000000 1.0
C      1  0.3960000000000  0.5822710000000  0.2866390000000 1.0
C      1  0.4807500000000  0.3688050000000  0.2866350000000 1.0
C      1  0.6986250000000  0.5840050000000  0.5223370000000 1.0
C      1  0.3279370000000  0.6300110000000  0.5223430000000 1.0
C      1  0.4734390000000  0.2859830000000  0.5223350000000 1.0
C      1  0.4457140000000  0.4187140000000  0.7044260000000 1.0
C      1  0.5975400000000  0.4936230000000  0.7044250000000 1.0
C      1  0.4567540000000  0.5876530000000  0.7044290000000 1.0
C      1  0.6792040000000  0.5201300000000  0.3739230000000 1.0
C      1  0.3929640000000  0.6451350000000  0.3739290000000 1.0
C      1  0.4278270000000  0.3347410000000  0.3739240000000 1.0
END
