TITL C-986975-4297-828 0.0113899969302052 3375 -336.047143376291 0 0 60 (C2v) n - 1
REM
REM in /home/bkarasulu/work/CARBON/AIRSS/Generating-Clusters/REBO/Higher-Symm/Only-C60
REM
REM
REM
REM
REM
REM ./C.cell (a2850807a9bf4ad07a5b6933b78d9264)
REM AIRSS Version 0.9.1 bugfix July 2018 build 013d7b7c2542+ Fri, 06 Jul 2018 19:26:36 +0100
REM compiler GCC version 9.2.1 20190827 (Red Hat 9.2.1-1)
REM options -cpp -mtune=generic -march=x86-64 -g -O0 -fpre-include=/usr/include/finclude/math-vector-fortran.h
REM seed -1206863157 1692261698 -196754577 -495421171 -816819975 1605199251 -1590447750 828807753 -348075976 -1719308662 442718176 1156954907 2059835518 925006207 1811015278 588986235 -796760972 -1720958158 -660186234 -1845166892 744174530 -1008242192 -81451242 -621961883 1257234990 399310702 -2015964944 -1597585690 -1057923365 347917516 -753159769 1476517463 -816595825
REM
CELL 1.54180   15.00000   15.00000   15.00000   90.00000   90.00000   90.00000
LATT -1
SFAC C  
C      1  0.5581620000000  0.5546300000000  0.4477570000000 1.0
C      1  0.5581620000000  0.4453700000000  0.5522430000000 1.0
C      1  0.5581620000000  0.5546300000000  0.5522430000000 1.0
C      1  0.5581620000000  0.4453700000000  0.4477570000000 1.0
C      1  0.5916360000000  0.6247880000000  0.7160800000000 1.0
C      1  0.5916360000000  0.3752120000000  0.2839200000000 1.0
C      1  0.5916360000000  0.6247880000000  0.2839200000000 1.0
C      1  0.5916360000000  0.3752120000000  0.7160800000000 1.0
C      1  0.4789080000000  0.5943570000000  0.5987270000000 1.0
C      1  0.4789080000000  0.4056430000000  0.4012730000000 1.0
C      1  0.4789080000000  0.5943570000000  0.4012730000000 1.0
C      1  0.4789080000000  0.4056430000000  0.5987270000000 1.0
C      1  0.4202180000000  0.6552630000000  0.7402630000000 1.0
C      1  0.4202180000000  0.3447370000000  0.2597370000000 1.0
C      1  0.4202180000000  0.6552630000000  0.2597370000000 1.0
C      1  0.4202180000000  0.3447370000000  0.7402630000000 1.0
C      1  0.6911260000000  0.4432250000000  0.4438880000000 1.0
C      1  0.6911260000000  0.5567750000000  0.5561120000000 1.0
C      1  0.6911260000000  0.4432250000000  0.5561120000000 1.0
C      1  0.6911260000000  0.5567750000000  0.4438880000000 1.0
C      1  0.4167920000000  0.5567810000000  0.7780060000000 1.0
C      1  0.4167910000000  0.4432190000000  0.2219940000000 1.0
C      1  0.4167920000000  0.5567810000000  0.2219940000000 1.0
C      1  0.4167920000000  0.4432190000000  0.7780060000000 1.0
C      1  0.4710050000000  0.7003850000000  0.3742460000000 1.0
C      1  0.4710050000000  0.2996150000000  0.6257540000000 1.0
C      1  0.4710050000000  0.7003850000000  0.6257540000000 1.0
C      1  0.4710050000000  0.2996150000000  0.3742460000000 1.0
C      1  0.5186540000000  0.3206090000000  0.7220680000000 1.0
C      1  0.5186540000000  0.6793910000000  0.2779320000000 1.0
C      1  0.5186540000000  0.3206090000000  0.2779320000000 1.0
C      1  0.5186540000000  0.6793910000000  0.7220680000000 1.0
C      1  0.3218860000000  0.5488420000000  0.6267830000000 1.0
C      1  0.3218860000000  0.4511580000000  0.3732170000000 1.0
C      1  0.3218860000000  0.5488420000000  0.3732170000000 1.0
C      1  0.3218860000000  0.4511580000000  0.6267830000000 1.0
C      1  0.3682440000000  0.3479990000000  0.6442250000000 1.0
C      1  0.3682440000000  0.6520010000000  0.3557750000000 1.0
C      1  0.3682440000000  0.3479990000000  0.3557750000000 1.0
C      1  0.3682440000000  0.6520010000000  0.6442250000000 1.0
C      1  0.4702700000000  0.4533990000000  0.6850960000000 1.0
C      1  0.4702700000000  0.5466010000000  0.3149040000000 1.0
C      1  0.4702700000000  0.4533990000000  0.3149040000000 1.0
C      1  0.4702700000000  0.5466010000000  0.6850960000000 1.0
C      1  0.6227260000000  0.5567510000000  0.3543910000000 1.0
C      1  0.6227260000000  0.4432490000000  0.6456090000000 1.0
C      1  0.6227260000000  0.5567510000000  0.6456090000000 1.0
C      1  0.6227260000000  0.4432490000000  0.3543910000000 1.0
C      1  0.5452980000000  0.2987020000000  0.4498170000000 1.0
C      1  0.5452980000000  0.7012980000000  0.5501830000000 1.0
C      1  0.5452980000000  0.2987020000000  0.5501830000000 1.0
C      1  0.5452980000000  0.7012980000000  0.4498170000000 1.0
C      1  0.6407380000000  0.3415240000000  0.5542340000000 1.0
C      1  0.6407380000000  0.6584760000000  0.4457660000000 1.0
C      1  0.6407380000000  0.3415240000000  0.4457660000000 1.0
C      1  0.6407380000000  0.6584760000000  0.5542340000000 1.0
C      1  0.3843380000000  0.5955780000000  0.4534090000000 1.0
C      1  0.3843380000000  0.4044220000000  0.5465910000000 1.0
C      1  0.3843380000000  0.5955780000000  0.5465910000000 1.0
C      1  0.3843380000000  0.4044220000000  0.4534090000000 1.0
END
