TITL C-986975-4297-1120 0.00626036253766271 3375 -344.631150100677 0 0 60 (C2) n - 1
REM
REM in /home/bkarasulu/work/CARBON/AIRSS/Generating-Clusters/REBO/Higher-Symm/Only-C60
REM
REM
REM
REM
REM
REM ./C.cell (a2850807a9bf4ad07a5b6933b78d9264)
REM AIRSS Version 0.9.1 bugfix July 2018 build 013d7b7c2542+ Fri, 06 Jul 2018 19:26:36 +0100
REM compiler GCC version 9.2.1 20190827 (Red Hat 9.2.1-1)
REM options -cpp -mtune=generic -march=x86-64 -g -O0 -fpre-include=/usr/include/finclude/math-vector-fortran.h
REM seed -1279210653 -583109364 -1122055691 205363617 536572836 958031158 916427738 -839848208 -57103776 737657528 285353601 645898733 -253274931 1668381133 480804502 1604513204 -7776029 -1150182098 1036720221 733532076 1993733568 1401692787 416238550 1866024617 -839828373 -390260250 -1805850196 403106524 1699689892 787476671 -1451184716 -376474520 1237983271
REM
CELL 1.54180   15.00000   15.00000   15.00000   90.00000   90.00000   90.00000
LATT -1
SFAC C  
C      1  0.4152480000000  0.5247280000000  0.6591820000000 1.0
C      1  0.5847530000000  0.5247280000000  0.3408180000000 1.0
C      1  0.5453240000000  0.6730950000000  0.2939140000000 1.0
C      1  0.4546760000000  0.6730950000000  0.7060860000000 1.0
C      1  0.3603210000000  0.3185800000000  0.5764230000000 1.0
C      1  0.6396750000000  0.3185750000000  0.4235730000000 1.0
C      1  0.5419710000000  0.6160670000000  0.7345270000000 1.0
C      1  0.4580280000000  0.6160660000000  0.2654710000000 1.0
C      1  0.7038760000000  0.3576990000000  0.4925920000000 1.0
C      1  0.2961300000000  0.3576980000000  0.5074090000000 1.0
C      1  0.6519640000000  0.4858510000000  0.4108840000000 1.0
C      1  0.3480360000000  0.4858510000000  0.5891160000000 1.0
C      1  0.5782240000000  0.2546530000000  0.4566550000000 1.0
C      1  0.4217960000000  0.2546760000000  0.5433080000000 1.0
C      1  0.4339710000000  0.4537760000000  0.7328730000000 1.0
C      1  0.5660280000000  0.4537750000000  0.2671280000000 1.0
C      1  0.3611800000000  0.6750620000000  0.6883690000000 1.0
C      1  0.6388200000000  0.6750610000000  0.3116320000000 1.0
C      1  0.6847300000000  0.6080050000000  0.5805310000000 1.0
C      1  0.3152710000000  0.6080040000000  0.4194680000000 1.0
C      1  0.2962510000000  0.5064960000000  0.4225430000000 1.0
C      1  0.7037520000000  0.5064980000000  0.5774600000000 1.0
C      1  0.4976500000000  0.3812040000000  0.6410510000000 1.0
C      1  0.5023510000000  0.3812040000000  0.3589460000000 1.0
C      1  0.5083360000000  0.6709740000000  0.6184220000000 1.0
C      1  0.4916620000000  0.6709740000000  0.3815820000000 1.0
C      1  0.2745570000000  0.4611530000000  0.5060020000000 1.0
C      1  0.7254440000000  0.4611530000000  0.4939980000000 1.0
C      1  0.4490720000000  0.4632710000000  0.3365530000000 1.0
C      1  0.5509280000000  0.4632710000000  0.6634470000000 1.0
C      1  0.6520490000000  0.4607450000000  0.6386270000000 1.0
C      1  0.3479360000000  0.4607720000000  0.3613290000000 1.0
C      1  0.6220620000000  0.6286450000000  0.6732830000000 1.0
C      1  0.3779370000000  0.6286450000000  0.3267180000000 1.0
C      1  0.4729700000000  0.2827720000000  0.3405660000000 1.0
C      1  0.5270300000000  0.2827730000000  0.6594280000000 1.0
C      1  0.6932580000000  0.6503930000000  0.4746780000000 1.0
C      1  0.3067420000000  0.6503930000000  0.5253220000000 1.0
C      1  0.6919220000000  0.6650960000000  0.3862060000000 1.0
C      1  0.3080780000000  0.6650960000000  0.6137940000000 1.0
C      1  0.5959810000000  0.4845210000000  0.5022490000000 1.0
C      1  0.4040150000000  0.4845230000000  0.4977500000000 1.0
C      1  0.5323580000000  0.2325910000000  0.5581890000000 1.0
C      1  0.4676360000000  0.2325920000000  0.4418230000000 1.0
C      1  0.5308240000000  0.7217070000000  0.5356020000000 1.0
C      1  0.4691760000000  0.7217060000000  0.4643980000000 1.0
C      1  0.4017710000000  0.6455830000000  0.4761220000000 1.0
C      1  0.5982320000000  0.6455820000000  0.5238750000000 1.0
C      1  0.5051810000000  0.5579900000000  0.6208890000000 1.0
C      1  0.4948190000000  0.5579890000000  0.3791110000000 1.0
C      1  0.4705670000000  0.3443590000000  0.4575350000000 1.0
C      1  0.5294180000000  0.3443840000000  0.5424960000000 1.0
C      1  0.5420540000000  0.5619680000000  0.5265630000000 1.0
C      1  0.4579460000000  0.5619680000000  0.4734370000000 1.0
C      1  0.6084180000000  0.3954060000000  0.3564190000000 1.0
C      1  0.3915820000000  0.3954050000000  0.6435820000000 1.0
C      1  0.5178250000000  0.5227000000000  0.7485490000000 1.0
C      1  0.4821750000000  0.5227000000000  0.2514500000000 1.0
C      1  0.3869030000000  0.3948620000000  0.4705760000000 1.0
C      1  0.6131080000000  0.3948940000000  0.5294710000000 1.0
END
