TITL C-986973-6940-640 0.0253127283970011 3375 -368.475464308392 0 0 60 (C3) n - 1
REM
REM in /home/bkarasulu/work/CARBON/AIRSS/Generating-Clusters/REBO/Higher-Symm/Only-C60
REM
REM
REM
REM
REM
REM ./C.cell (a2850807a9bf4ad07a5b6933b78d9264)
REM AIRSS Version 0.9.1 bugfix July 2018 build 013d7b7c2542+ Fri, 06 Jul 2018 19:26:36 +0100
REM compiler GCC version 9.2.1 20190827 (Red Hat 9.2.1-1)
REM options -cpp -mtune=generic -march=x86-64 -g -O0 -fpre-include=/usr/include/finclude/math-vector-fortran.h
REM seed -599085887 -1616644648 -1631512022 -1546161728 -122566907 824168885 -1565310035 808375128 -195633093 1065348264 -24440348 985646009 291940060 1511022177 -183904508 -1465754116 -201248256 662307008 1256661195 -861350369 804678195 -2048231650 -1524141173 -217900267 -1052405841 -354916065 1173134663 482824643 67947087 -633938047 81619397 397082579 -1317982920
REM
CELL 1.54180   15.00000   15.00000   15.00000   90.00000   90.00000   90.00000
LATT -1
SFAC C  
C      1  0.4084040000000  0.3939040000000  0.2224270000000 1.0
C      1  0.4539050000000  0.6323240000000  0.2225740000000 1.0
C      1  0.6376680000000  0.4737420000000  0.2225980000000 1.0
C      1  0.5915960000000  0.3939040000000  0.2224270000000 1.0
C      1  0.5460950000000  0.6323240000000  0.2225740000000 1.0
C      1  0.3623320000000  0.4737420000000  0.2225980000000 1.0
C      1  0.5976800000000  0.5025810000000  0.4706440000000 1.0
C      1  0.4532550000000  0.4140900000000  0.4701090000000 1.0
C      1  0.4489750000000  0.5834960000000  0.4704990000000 1.0
C      1  0.4023200000000  0.5025810000000  0.4706440000000 1.0
C      1  0.5467450000000  0.4140900000000  0.4701090000000 1.0
C      1  0.5510250000000  0.5834960000000  0.4704990000000 1.0
C      1  0.3376180000000  0.4719900000000  0.5539420000000 1.0
C      1  0.5569330000000  0.6547730000000  0.5539260000000 1.0
C      1  0.6054640000000  0.3734850000000  0.5537540000000 1.0
C      1  0.6623820000000  0.4719910000000  0.5539420000000 1.0
C      1  0.4430670000000  0.6547730000000  0.5539260000000 1.0
C      1  0.3945360000000  0.3734850000000  0.5537540000000 1.0
C      1  0.3436490000000  0.5356060000000  0.6323000000000 1.0
C      1  0.6089560000000  0.6176630000000  0.6322810000000 1.0
C      1  0.5473710000000  0.3469250000000  0.6321660000000 1.0
C      1  0.6563510000000  0.5356060000000  0.6323000000000 1.0
C      1  0.3910440000000  0.6176630000000  0.6322810000000 1.0
C      1  0.4526290000000  0.3469250000000  0.6321660000000 1.0
C      1  0.5470210000000  0.3621920000000  0.3001490000000 1.0
C      1  0.3573430000000  0.5280590000000  0.3004330000000 1.0
C      1  0.5957060000000  0.6095330000000  0.3003790000000 1.0
C      1  0.4529790000000  0.3621920000000  0.3001490000000 1.0
C      1  0.6426570000000  0.5280590000000  0.3004330000000 1.0
C      1  0.4042940000000  0.6095330000000  0.3003790000000 1.0
C      1  0.4431820000000  0.6513110000000  0.3843280000000 1.0
C      1  0.6591750000000  0.4734360000000  0.3843920000000 1.0
C      1  0.3974380000000  0.3749530000000  0.3840910000000 1.0
C      1  0.5568180000000  0.6513110000000  0.3843280000000 1.0
C      1  0.3408250000000  0.4734360000000  0.3843920000000 1.0
C      1  0.6025620000000  0.3749530000000  0.3840910000000 1.0
C      1  0.7078130000000  0.6728890000000  0.4681120000000 1.0
C      1  0.5458300000000  0.2335100000000  0.4682040000000 1.0
C      1  0.2464120000000  0.5934770000000  0.4680270000000 1.0
C      1  0.2921870000000  0.6728890000000  0.4681120000000 1.0
C      1  0.4541700000000  0.2335100000000  0.4682040000000 1.0
C      1  0.7535880000000  0.5934770000000  0.4680270000000 1.0
C      1  0.6704630000000  0.5007870000000  0.7197920000000 1.0
C      1  0.4154190000000  0.3520360000000  0.7196720000000 1.0
C      1  0.4141380000000  0.6472620000000  0.7197910000000 1.0
C      1  0.3295370000000  0.5007870000000  0.7197920000000 1.0
C      1  0.5845810000000  0.3520360000000  0.7196720000000 1.0
C      1  0.5858620000000  0.6472620000000  0.7197910000000 1.0
C      1  0.5481740000000  0.4170610000000  0.7803310000000 1.0
C      1  0.4041050000000  0.4997440000000  0.7803740000000 1.0
C      1  0.5477270000000  0.5831830000000  0.7803870000000 1.0
C      1  0.4518260000000  0.4170610000000  0.7803310000000 1.0
C      1  0.5958950000000  0.4997440000000  0.7803740000000 1.0
C      1  0.4522730000000  0.5831830000000  0.7803870000000 1.0
C      1  0.6190630000000  0.6957890000000  0.4681060000000 1.0
C      1  0.6099430000000  0.2989980000000  0.4681090000000 1.0
C      1  0.2710560000000  0.5052010000000  0.4681030000000 1.0
C      1  0.3809370000000  0.6957890000000  0.4681060000000 1.0
C      1  0.3900570000000  0.2989980000000  0.4681090000000 1.0
C      1  0.7289440000000  0.5052010000000  0.4681030000000 1.0
END
