TITL C-986975-4297-1180 -1.63638115538409e-06 3375 -341.997219762272 0 0 60 (C3) n - 1
REM
REM in /home/bkarasulu/work/CARBON/AIRSS/Generating-Clusters/REBO/Higher-Symm/Only-C60
REM
REM
REM
REM
REM
REM ./C.cell (a2850807a9bf4ad07a5b6933b78d9264)
REM AIRSS Version 0.9.1 bugfix July 2018 build 013d7b7c2542+ Fri, 06 Jul 2018 19:26:36 +0100
REM compiler GCC version 9.2.1 20190827 (Red Hat 9.2.1-1)
REM options -cpp -mtune=generic -march=x86-64 -g -O0 -fpre-include=/usr/include/finclude/math-vector-fortran.h
REM seed -659632248 2120202078 176038162 385471174 -249722812 -1593224316 -2130024479 -119053984 -1349487371 536718645 1106568210 -1484240979 1018390668 -1984512139 -1171216807 1755357115 -1460550799 857258034 -1833128012 1834744076 -1003008653 1883375890 2090662090 749180532 1787265416 -768005698 -992864506 1367645334 -1158712627 921743673 650458415 1797309229 205834078
REM
CELL 1.54180   15.00000   15.00000   15.00000   90.00000   90.00000   90.00000
LATT -1
SFAC C  
C      1  0.3952870000000  0.5069210000000  0.5040960000000 1.0
C      1  0.5504300000000  0.5069200000000  0.5815990000000 1.0
C      1  0.5399780000000  0.5069220000000  0.4084890000000 1.0
C      1  0.4316620000000  0.5652770000000  0.3164460000000 1.0
C      1  0.3697330000000  0.5652730000000  0.6439240000000 1.0
C      1  0.6843010000000  0.5652730000000  0.5338170000000 1.0
C      1  0.5201520000000  0.5484990000000  0.2836730000000 1.0
C      1  0.2971050000000  0.5484960000000  0.5836760000000 1.0
C      1  0.6684390000000  0.5484940000000  0.6268380000000 1.0
C      1  0.5951210000000  0.6846600000000  0.5915980000000 1.0
C      1  0.5262900000000  0.6846630000000  0.3647910000000 1.0
C      1  0.3642850000000  0.6846610000000  0.5378030000000 1.0
C      1  0.4363560000000  0.4384450000000  0.5850340000000 1.0
C      1  0.5999910000000  0.4384460000000  0.5055610000000 1.0
C      1  0.4493480000000  0.4384470000000  0.4035860000000 1.0
C      1  0.3764030000000  0.4820370000000  0.3310140000000 1.0
C      1  0.4099790000000  0.4820320000000  0.6844930000000 1.0
C      1  0.6993130000000  0.4820350000000  0.4786760000000 1.0
C      1  0.6792820000000  0.3777220000000  0.5569170000000 1.0
C      1  0.4541780000000  0.3777250000000  0.3092380000000 1.0
C      1  0.3522340000000  0.3777210000000  0.6280240000000 1.0
C      1  0.5038740000000  0.5687070000000  0.6484210000000 1.0
C      1  0.6211260000000  0.5687100000000  0.4153990000000 1.0
C      1  0.3606960000000  0.5687100000000  0.4303670000000 1.0
C      1  0.6811210000000  0.4043400000000  0.4002360000000 1.0
C      1  0.3175690000000  0.4043410000000  0.3859870000000 1.0
C      1  0.4870040000000  0.4043360000000  0.7079570000000 1.0
C      1  0.5950020000000  0.3715730000000  0.3795740000000 1.0
C      1  0.3427350000000  0.3715720000000  0.4708980000000 1.0
C      1  0.5479570000000  0.3715690000000  0.6437060000000 1.0
C      1  0.3093000000000  0.4465580000000  0.5491070000000 1.0
C      1  0.6324050000000  0.4465560000000  0.6335590000000 1.0
C      1  0.5439900000000  0.4465600000000  0.3115160000000 1.0
C      1  0.5746720000000  0.6251450000000  0.3042000000000 1.0
C      1  0.2876210000000  0.6251430000000  0.5261980000000 1.0
C      1  0.6234030000000  0.6251400000000  0.6637920000000 1.0
C      1  0.5362310000000  0.2981130000000  0.4066170000000 1.0
C      1  0.3955400000000  0.2981120000000  0.5082730000000 1.0
C      1  0.5539230000000  0.2981110000000  0.5792870000000 1.0
C      1  0.7091820000000  0.5104800000000  0.3711770000000 1.0
C      1  0.2783710000000  0.5104800000000  0.3762180000000 1.0
C      1  0.4981420000000  0.5104750000000  0.7467900000000 1.0
C      1  0.3638260000000  0.2901000000000  0.5995960000000 1.0
C      1  0.6488680000000  0.2901000000000  0.5610910000000 1.0
C      1  0.4730000000000  0.2901040000000  0.3334890000000 1.0
C      1  0.2530450000000  0.6038120000000  0.4333920000000 1.0
C      1  0.5603190000000  0.6038070000000  0.7401390000000 1.0
C      1  0.6723320000000  0.6038120000000  0.3206580000000 1.0
C      1  0.4404430000000  0.6334950000000  0.5962970000000 1.0
C      1  0.6076990000000  0.6334960000000  0.4963960000000 1.0
C      1  0.4375540000000  0.6334970000000  0.4014980000000 1.0
C      1  0.4010510000000  0.7643700000000  0.5024480000000 1.0
C      1  0.5461180000000  0.7643690000000  0.5774370000000 1.0
C      1  0.5385280000000  0.7643710000000  0.4143110000000 1.0
C      1  0.4952310000000  0.1683680000000  0.4980570000000 1.0
C      1  0.4952310000000  0.2641340000000  0.4980580000000 1.0
C      1  0.4952320000000  0.5421310000000  0.4980620000000 1.0
C      1  0.4952320000000  0.4100530000000  0.4980600000000 1.0
C      1  0.4952320000000  0.6500190000000  0.4980630000000 1.0
C      1  0.4952320000000  0.7832920000000  0.4980650000000 1.0
END
