TITL C-986974-580-877 -0.0481999108456723 3375 -345.98782968229 0 0 60 (C1) n - 1
REM
REM in /home/bkarasulu/work/CARBON/AIRSS/Generating-Clusters/REBO/Higher-Symm/Only-C60
REM
REM
REM
REM
REM
REM ./C.cell (a2850807a9bf4ad07a5b6933b78d9264)
REM AIRSS Version 0.9.1 bugfix July 2018 build 013d7b7c2542+ Fri, 06 Jul 2018 19:26:36 +0100
REM compiler GCC version 9.2.1 20190827 (Red Hat 9.2.1-1)
REM options -cpp -mtune=generic -march=x86-64 -g -O0 -fpre-include=/usr/include/finclude/math-vector-fortran.h
REM seed 821343296 1023672759 1180237873 -1199531192 -28881866 1037045225 -946809722 -102187476 -893263071 -1173304905 -613468111 -1779872741 -2143223619 -1722745748 -1402751233 -1552501935 517865393 -902537990 -2065484935 1243124310 -928330138 -504735060 1151693316 -1003809414 -2027940856 -1137195402 210229293 -1908135797 -1184862443 565006871 68180980 1251311085 1567208804
REM
CELL 1.54180   15.00000   15.00000   15.00000   90.00000   90.00000   90.00000
LATT -1
SFAC C  
C      1  0.5400490000000  0.4415390000000  0.4430580000000 1.0
C      1  0.5510740000000  0.5580430000000  0.5675610000000 1.0
C      1  0.5392770000000  0.5493800000000  0.4572400000000 1.0
C      1  0.5557590000000  0.4539410000000  0.5513900000000 1.0
C      1  0.7261510000000  0.4523130000000  0.5434420000000 1.0
C      1  0.7181850000000  0.5488490000000  0.4538700000000 1.0
C      1  0.7274480000000  0.5537950000000  0.5569600000000 1.0
C      1  0.7211660000000  0.4476190000000  0.4396370000000 1.0
C      1  0.5325800000000  0.7490740000000  0.6874960000000 1.0
C      1  0.5239460000000  0.2537620000000  0.3360190000000 1.0
C      1  0.5352670000000  0.2513920000000  0.6815470000000 1.0
C      1  0.5169250000000  0.7305230000000  0.3359800000000 1.0
C      1  0.6465970000000  0.4051240000000  0.5836160000000 1.0
C      1  0.6351720000000  0.5967360000000  0.4206970000000 1.0
C      1  0.6477440000000  0.6015740000000  0.5978890000000 1.0
C      1  0.6385280000000  0.3981600000000  0.4074000000000 1.0
C      1  0.2847620000000  0.4542460000000  0.3908750000000 1.0
C      1  0.2909350000000  0.5509970000000  0.5859890000000 1.0
C      1  0.2832710000000  0.5503910000000  0.3939140000000 1.0
C      1  0.2992040000000  0.4552640000000  0.5844180000000 1.0
C      1  0.5172480000000  0.3147400000000  0.5659020000000 1.0
C      1  0.5094450000000  0.6792810000000  0.4589960000000 1.0
C      1  0.5180720000000  0.6867560000000  0.5708820000000 1.0
C      1  0.5085950000000  0.3128160000000  0.4546160000000 1.0
C      1  0.5315750000000  0.3542710000000  0.3424690000000 1.0
C      1  0.5476330000000  0.6446210000000  0.6731160000000 1.0
C      1  0.5287900000000  0.6312660000000  0.3487160000000 1.0
C      1  0.5554840000000  0.3541760000000  0.6660070000000 1.0
C      1  0.6250950000000  0.4425730000000  0.6809930000000 1.0
C      1  0.6066070000000  0.5530840000000  0.3282430000000 1.0
C      1  0.6074520000000  0.5480990000000  0.6872060000000 1.0
C      1  0.5942540000000  0.4485580000000  0.3220840000000 1.0
C      1  0.2273000000000  0.4047680000000  0.4465620000000 1.0
C      1  0.2230530000000  0.5948920000000  0.5384080000000 1.0
C      1  0.2202660000000  0.5953540000000  0.4472540000000 1.0
C      1  0.2362280000000  0.4039510000000  0.5373010000000 1.0
C      1  0.6418340000000  0.3062040000000  0.4567600000000 1.0
C      1  0.6491070000000  0.6941160000000  0.5485270000000 1.0
C      1  0.6419270000000  0.6913780000000  0.4638240000000 1.0
C      1  0.6479760000000  0.3098580000000  0.5414880000000 1.0
C      1  0.5069440000000  0.5411070000000  0.2819400000000 1.0
C      1  0.5196990000000  0.4475890000000  0.7147860000000 1.0
C      1  0.5009770000000  0.4283060000000  0.2657310000000 1.0
C      1  0.5017280000000  0.5598160000000  0.7247900000000 1.0
C      1  0.3674690000000  0.5885640000000  0.3695700000000 1.0
C      1  0.3864710000000  0.4249900000000  0.6086380000000 1.0
C      1  0.3684470000000  0.4188290000000  0.3620580000000 1.0
C      1  0.3713550000000  0.5928900000000  0.6157320000000 1.0
C      1  0.4035130000000  0.4576580000000  0.2837660000000 1.0
C      1  0.3993050000000  0.5584620000000  0.6986270000000 1.0
C      1  0.3999630000000  0.5571850000000  0.2873330000000 1.0
C      1  0.4198140000000  0.4616790000000  0.6887070000000 1.0
C      1  0.5022150000000  0.2100550000000  0.6067150000000 1.0
C      1  0.5038950000000  0.7767350000000  0.4131350000000 1.0
C      1  0.5095790000000  0.7924200000000  0.6097920000000 1.0
C      1  0.5062620000000  0.2125940000000  0.4150210000000 1.0
C      1  0.4485750000000  0.6038740000000  0.5497210000000 1.0
C      1  0.4378560000000  0.3955290000000  0.4278070000000 1.0
C      1  0.4565270000000  0.4015060000000  0.5388400000000 1.0
C      1  0.4374250000000  0.5967240000000  0.4389380000000 1.0
END
