TITL C-986978-6805-871 0.0100012123591632 3375 -355.154149405293 0 0 60 (C1) n - 1
REM
REM in /home/bkarasulu/work/CARBON/AIRSS/Generating-Clusters/REBO/Higher-Symm/Only-C60
REM
REM
REM
REM
REM
REM ./C.cell (a2850807a9bf4ad07a5b6933b78d9264)
REM AIRSS Version 0.9.1 bugfix July 2018 build 013d7b7c2542+ Fri, 06 Jul 2018 19:26:36 +0100
REM compiler GCC version 9.2.1 20190827 (Red Hat 9.2.1-1)
REM options -cpp -mtune=generic -march=x86-64 -g -O0 -fpre-include=/usr/include/finclude/math-vector-fortran.h
REM seed 652461070 -405286846 523264868 -1969329684 -464665536 802675418 -1818193438 -1992304453 -1101073227 -966078389 -825582922 1229291605 -399187709 -2121228126 -1059725688 894175009 134691725 -1796092357 -573093638 1238504203 1373328423 2079612475 873774115 1756757937 -1852695950 -1946570817 -732684182 966244829 -81801350 1761423167 1293118193 -1118209856 1012947480
REM
CELL 1.54180   15.00000   15.00000   15.00000   90.00000   90.00000   90.00000
LATT -1
SFAC C  
C      1  0.7005110000000  0.3927400000000  0.4434470000000 1.0
C      1  0.6172230000000  0.3907860000000  0.6756590000000 1.0
C      1  0.3703280000000  0.3900080000000  0.6653310000000 1.0
C      1  0.3116520000000  0.3930260000000  0.4269930000000 1.0
C      1  0.5097010000000  0.3891790000000  0.2937200000000 1.0
C      1  0.5861830000000  0.2668800000000  0.5401700000000 1.0
C      1  0.4898080000000  0.2660150000000  0.5951230000000 1.0
C      1  0.4077110000000  0.2638910000000  0.5204040000000 1.0
C      1  0.4539780000000  0.2621580000000  0.4191870000000 1.0
C      1  0.5641390000000  0.2646290000000  0.4316200000000 1.0
C      1  0.7215380000000  0.4597550000000  0.5146860000000 1.0
C      1  0.5553350000000  0.4590530000000  0.7160230000000 1.0
C      1  0.3145280000000  0.4594100000000  0.6179030000000 1.0
C      1  0.3465040000000  0.4614330000000  0.3608680000000 1.0
C      1  0.5832340000000  0.4526390000000  0.2947390000000 1.0
C      1  0.6331280000000  0.6819150000000  0.5975730000000 1.0
C      1  0.4486780000000  0.6822080000000  0.6621500000000 1.0
C      1  0.3261720000000  0.6826410000000  0.5006710000000 1.0
C      1  0.4517670000000  0.6974830000000  0.3152480000000 1.0
C      1  0.6384110000000  0.6854760000000  0.4040540000000 1.0
C      1  0.6425810000000  0.5978680000000  0.6388630000000 1.0
C      1  0.4096690000000  0.5991210000000  0.6839650000000 1.0
C      1  0.3003800000000  0.6009260000000  0.4616680000000 1.0
C      1  0.4682600000000  0.6137640000000  0.2812700000000 1.0
C      1  0.6748550000000  0.5987920000000  0.4084090000000 1.0
C      1  0.6317840000000  0.5008840000000  0.6030750000000 1.0
C      1  0.4409850000000  0.5022480000000  0.6649260000000 1.0
C      1  0.3213240000000  0.5068440000000  0.4943820000000 1.0
C      1  0.4658650000000  0.5101920000000  0.3275140000000 1.0
C      1  0.6362260000000  0.5025860000000  0.4053030000000 1.0
C      1  0.4508570000000  0.4249400000000  0.7331220000000 1.0
C      1  0.2641880000000  0.4260670000000  0.5231150000000 1.0
C      1  0.4132050000000  0.4278210000000  0.2858860000000 1.0
C      1  0.6751440000000  0.4275890000000  0.3445670000000 1.0
C      1  0.7033460000000  0.4268650000000  0.6183680000000 1.0
C      1  0.5615040000000  0.5622890000000  0.3137740000000 1.0
C      1  0.6989130000000  0.5605000000000  0.5060240000000 1.0
C      1  0.5559130000000  0.5615300000000  0.6921640000000 1.0
C      1  0.3361460000000  0.5630010000000  0.6130910000000 1.0
C      1  0.3536000000000  0.5595300000000  0.3776270000000 1.0
C      1  0.5169550000000  0.3120550000000  0.3438910000000 1.0
C      1  0.6539600000000  0.3168470000000  0.4685920000000 1.0
C      1  0.5786970000000  0.3148570000000  0.6390760000000 1.0
C      1  0.3931360000000  0.3136570000000  0.6180700000000 1.0
C      1  0.3581990000000  0.3135090000000  0.4353960000000 1.0
C      1  0.5565410000000  0.4688210000000  0.5536370000000 1.0
C      1  0.4628630000000  0.4721690000000  0.5763220000000 1.0
C      1  0.4134740000000  0.4789500000000  0.4933430000000 1.0
C      1  0.4750000000000  0.4803420000000  0.4231170000000 1.0
C      1  0.5629550000000  0.4703170000000  0.4582610000000 1.0
C      1  0.4695530000000  0.7098580000000  0.4170300000000 1.0
C      1  0.5661000000000  0.7232670000000  0.4509260000000 1.0
C      1  0.5648620000000  0.7236510000000  0.5472000000000 1.0
C      1  0.4732710000000  0.7230130000000  0.5803330000000 1.0
C      1  0.4113090000000  0.7220910000000  0.5063190000000 1.0
C      1  0.5412570000000  0.5959010000000  0.4206750000000 1.0
C      1  0.5892610000000  0.5902800000000  0.5099820000000 1.0
C      1  0.5195920000000  0.5919700000000  0.5886400000000 1.0
C      1  0.4253820000000  0.5976180000000  0.5519680000000 1.0
C      1  0.4323600000000  0.6061450000000  0.4445400000000 1.0
END
