TITL C-986974-580-625 5.27377663199703e-07 3375 -354.362414303164 0 0 60 (D2) n - 1
REM
REM in /home/bkarasulu/work/CARBON/AIRSS/Generating-Clusters/REBO/Higher-Symm/Only-C60
REM
REM
REM
REM
REM
REM ./C.cell (a2850807a9bf4ad07a5b6933b78d9264)
REM AIRSS Version 0.9.1 bugfix July 2018 build 013d7b7c2542+ Fri, 06 Jul 2018 19:26:36 +0100
REM compiler GCC version 9.2.1 20190827 (Red Hat 9.2.1-1)
REM options -cpp -mtune=generic -march=x86-64 -g -O0 -fpre-include=/usr/include/finclude/math-vector-fortran.h
REM seed 1566339297 -73338226 1811965817 -1928446805 2144184613 -509432252 -1596070372 -537069037 993437684 -1735945025 -2061073006 -487889972 174187529 1887286133 -131609986 740547072 458189418 -1255436640 738034387 1574404929 1832391670 901864245 -961951207 -1562970399 563960727 1586513076 1817597807 -240124083 1747520894 1901147133 1416932624 140088069 -136986623
REM
CELL 1.54180   15.00000   15.00000   15.00000   90.00000   90.00000   90.00000
LATT -1
SFAC C  
C      1  0.4259960000000  0.7437490000000  0.5613680000000 1.0
C      1  0.5740040000000  0.2562510000000  0.5613680000000 1.0
C      1  0.5740040000000  0.7437490000000  0.4386320000000 1.0
C      1  0.4259960000000  0.2562510000000  0.4386320000000 1.0
C      1  0.5831910000000  0.6157330000000  0.6768080000000 1.0
C      1  0.4168090000000  0.3842670000000  0.6768080000000 1.0
C      1  0.4168090000000  0.6157330000000  0.3231920000000 1.0
C      1  0.5831910000000  0.3842670000000  0.3231920000000 1.0
C      1  0.4179390000000  0.3438990000000  0.3027360000000 1.0
C      1  0.5820610000000  0.6561010000000  0.3027360000000 1.0
C      1  0.5820610000000  0.3438990000000  0.6972640000000 1.0
C      1  0.4179390000000  0.6561010000000  0.6972640000000 1.0
C      1  0.5362090000000  0.5797900000000  0.5440360000000 1.0
C      1  0.4637910000000  0.4202100000000  0.5440360000000 1.0
C      1  0.4637910000000  0.5797900000000  0.4559640000000 1.0
C      1  0.5362090000000  0.4202100000000  0.4559640000000 1.0
C      1  0.3504910000000  0.3578500000000  0.4771000000000 1.0
C      1  0.6495090000000  0.6421500000000  0.4771000000000 1.0
C      1  0.6495090000000  0.3578500000000  0.5229000000000 1.0
C      1  0.3504910000000  0.6421500000000  0.5229000000000 1.0
C      1  0.4885810000000  0.6786900000000  0.3237170000000 1.0
C      1  0.5114190000000  0.3213100000000  0.3237170000000 1.0
C      1  0.5114190000000  0.6786900000000  0.6762830000000 1.0
C      1  0.4885810000000  0.3213100000000  0.6762830000000 1.0
C      1  0.6506060000000  0.3709840000000  0.4101490000000 1.0
C      1  0.3493940000000  0.6290160000000  0.4101490000000 1.0
C      1  0.3493940000000  0.3709840000000  0.5898510000000 1.0
C      1  0.6506060000000  0.6290160000000  0.5898510000000 1.0
C      1  0.5950970000000  0.7177160000000  0.5426410000000 1.0
C      1  0.4049030000000  0.2822840000000  0.5426410000000 1.0
C      1  0.4049030000000  0.7177160000000  0.4573590000000 1.0
C      1  0.5950970000000  0.2822840000000  0.4573590000000 1.0
C      1  0.4296640000000  0.5814130000000  0.5618810000000 1.0
C      1  0.5703360000000  0.4185870000000  0.5618810000000 1.0
C      1  0.5703360000000  0.5814130000000  0.4381190000000 1.0
C      1  0.4296640000000  0.4185870000000  0.4381190000000 1.0
C      1  0.3178530000000  0.4696730000000  0.5416340000000 1.0
C      1  0.6821470000000  0.5303270000000  0.5416340000000 1.0
C      1  0.6821470000000  0.4696730000000  0.4583660000000 1.0
C      1  0.3178530000000  0.5303270000000  0.4583660000000 1.0
C      1  0.5977380000000  0.4269470000000  0.7407450000000 1.0
C      1  0.4022620000000  0.5730530000000  0.7407450000000 1.0
C      1  0.4022620000000  0.4269470000000  0.2592550000000 1.0
C      1  0.5977380000000  0.5730530000000  0.2592550000000 1.0
C      1  0.4860230000000  0.2644000000000  0.5982660000000 1.0
C      1  0.5139770000000  0.7356000000000  0.5982660000000 1.0
C      1  0.5139770000000  0.2644000000000  0.4017340000000 1.0
C      1  0.4860230000000  0.7356000000000  0.4017340000000 1.0
C      1  0.3636260000000  0.3093530000000  0.3759210000000 1.0
C      1  0.6363740000000  0.6906470000000  0.3759210000000 1.0
C      1  0.6363740000000  0.3093530000000  0.6240790000000 1.0
C      1  0.3636260000000  0.6906470000000  0.6240790000000 1.0
C      1  0.4465910000000  0.5098410000000  0.3028020000000 1.0
C      1  0.5534090000000  0.4901590000000  0.3028020000000 1.0
C      1  0.5534090000000  0.5098410000000  0.6971980000000 1.0
C      1  0.4465910000000  0.4901590000000  0.6971980000000 1.0
C      1  0.5901840000000  0.4894200000000  0.4027660000000 1.0
C      1  0.4098160000000  0.5105800000000  0.4027660000000 1.0
C      1  0.4098160000000  0.4894200000000  0.5972340000000 1.0
C      1  0.5901840000000  0.5105800000000  0.5972340000000 1.0
END
