TITL C-986975-4297-953 -1.67674405746506e-05 3375 -346.720342693485 0 0 60 (Ci) n - 1
REM
REM in /home/bkarasulu/work/CARBON/AIRSS/Generating-Clusters/REBO/Higher-Symm/Only-C60
REM
REM
REM
REM
REM
REM ./C.cell (a2850807a9bf4ad07a5b6933b78d9264)
REM AIRSS Version 0.9.1 bugfix July 2018 build 013d7b7c2542+ Fri, 06 Jul 2018 19:26:36 +0100
REM compiler GCC version 9.2.1 20190827 (Red Hat 9.2.1-1)
REM options -cpp -mtune=generic -march=x86-64 -g -O0 -fpre-include=/usr/include/finclude/math-vector-fortran.h
REM seed -2145053083 680444584 -1382392728 -1475800021 -1546862511 597327646 -782961882 1700273100 2067346326 1959279874 1871597501 34620523 -1471937498 -1988101904 2093625124 1763498399 1797151725 50703194 1102173853 -1997284666 -1600451409 -10442056 -638739273 496510368 -1904874262 1141181155 955906001 -803990491 -1392269096 796838814 -839868158 922519773 958782339
REM
CELL 1.54180   15.00000   15.00000   15.00000   90.00000   90.00000   90.00000
LATT -1
SFAC C  
C      1  0.5905260000000  0.7040720000000  0.6539560000000 1.0
C      1  0.4114150000000  0.3076890000000  0.6381580000000 1.0
C      1  0.5885830000000  0.6923120000000  0.3618410000000 1.0
C      1  0.4094750000000  0.2959270000000  0.3460430000000 1.0
C      1  0.6527600000000  0.3214900000000  0.5470870000000 1.0
C      1  0.3499030000000  0.6786090000000  0.5458760000000 1.0
C      1  0.6500970000000  0.3213920000000  0.4541250000000 1.0
C      1  0.3472400000000  0.6785100000000  0.4529140000000 1.0
C      1  0.5695620000000  0.3367080000000  0.3925910000000 1.0
C      1  0.4261740000000  0.6588500000000  0.3920450000000 1.0
C      1  0.5738250000000  0.3411500000000  0.6079550000000 1.0
C      1  0.4304390000000  0.6632920000000  0.6074090000000 1.0
C      1  0.6028200000000  0.7044080000000  0.5568680000000 1.0
C      1  0.4110110000000  0.3091540000000  0.5385010000000 1.0
C      1  0.5889890000000  0.6908460000000  0.4614970000000 1.0
C      1  0.3971810000000  0.2955920000000  0.4431310000000 1.0
C      1  0.3019770000000  0.6312390000000  0.6838620000000 1.0
C      1  0.6999750000000  0.3687600000000  0.6854420000000 1.0
C      1  0.3000240000000  0.6312380000000  0.3145600000000 1.0
C      1  0.6980240000000  0.3687630000000  0.3161390000000 1.0
C      1  0.5058510000000  0.6190090000000  0.4473910000000 1.0
C      1  0.4839350000000  0.3709810000000  0.4460350000000 1.0
C      1  0.5160650000000  0.6290180000000  0.5539640000000 1.0
C      1  0.4941480000000  0.3809910000000  0.5526080000000 1.0
C      1  0.5347050000000  0.5289820000000  0.4134340000000 1.0
C      1  0.4588280000000  0.4623640000000  0.4097940000000 1.0
C      1  0.5411720000000  0.5376360000000  0.5902050000000 1.0
C      1  0.4652940000000  0.4710180000000  0.5865650000000 1.0
C      1  0.7061350000000  0.5320120000000  0.6385660000000 1.0
C      1  0.2987680000000  0.4681930000000  0.6359890000000 1.0
C      1  0.7012320000000  0.5318080000000  0.3640120000000 1.0
C      1  0.2938650000000  0.4679880000000  0.3614350000000 1.0
C      1  0.6321330000000  0.5132190000000  0.4507800000000 1.0
C      1  0.3638640000000  0.4843250000000  0.4480670000000 1.0
C      1  0.6361360000000  0.5156730000000  0.5519320000000 1.0
C      1  0.3678660000000  0.4867820000000  0.5492190000000 1.0
C      1  0.7332410000000  0.4596610000000  0.4456500000000 1.0
C      1  0.2639200000000  0.5403470000000  0.4435880000000 1.0
C      1  0.7360810000000  0.4596510000000  0.5564150000000 1.0
C      1  0.2667580000000  0.5403400000000  0.5543530000000 1.0
C      1  0.5048970000000  0.5549120000000  0.2824860000000 1.0
C      1  0.4925140000000  0.4417190000000  0.2824620000000 1.0
C      1  0.5074860000000  0.5582810000000  0.7175370000000 1.0
C      1  0.4951020000000  0.4450880000000  0.7175140000000 1.0
C      1  0.5151270000000  0.6618100000000  0.6829800000000 1.0
C      1  0.4861780000000  0.3423110000000  0.6794540000000 1.0
C      1  0.5138210000000  0.6576890000000  0.3205450000000 1.0
C      1  0.4848740000000  0.3381890000000  0.3170190000000 1.0
C      1  0.2791430000000  0.6338710000000  0.5934140000000 1.0
C      1  0.7234450000000  0.3660940000000  0.5950680000000 1.0
C      1  0.2765550000000  0.6339040000000  0.4049340000000 1.0
C      1  0.7208570000000  0.3661310000000  0.4065870000000 1.0
C      1  0.3999630000000  0.5941260000000  0.3020530000000 1.0
C      1  0.5977050000000  0.4036710000000  0.3043040000000 1.0
C      1  0.4022960000000  0.5963300000000  0.6956960000000 1.0
C      1  0.6000360000000  0.4058740000000  0.6979470000000 1.0
C      1  0.3961710000000  0.4878920000000  0.3193200000000 1.0
C      1  0.5995660000000  0.5095290000000  0.3223250000000 1.0
C      1  0.4004340000000  0.4904720000000  0.6776740000000 1.0
C      1  0.6038280000000  0.5121070000000  0.6806790000000 1.0
END
