TITL C-986979-5873-171 0.00671126680592797 3375 -330.114040010975 0 0 60 (C2) n - 1
REM
REM in /home/bkarasulu/work/CARBON/AIRSS/Generating-Clusters/REBO/Higher-Symm/Only-C60
REM
REM
REM
REM
REM
REM ./C.cell (a2850807a9bf4ad07a5b6933b78d9264)
REM AIRSS Version 0.9.1 bugfix July 2018 build 013d7b7c2542+ Fri, 06 Jul 2018 19:26:36 +0100
REM compiler GCC version 9.2.1 20190827 (Red Hat 9.2.1-1)
REM options -cpp -mtune=generic -march=x86-64 -g -O0 -fpre-include=/usr/include/finclude/math-vector-fortran.h
REM seed -760365865 -1837184463 -1184499476 1658264126 -1285568277 -729907355 -1275830230 1991320666 1403671317 -1647554745 -210594139 -1559223125 317025273 457847456 1710643748 1005677261 463238712 -1456229231 -763261861 -156254440 1669712458 -2119266596 -1726378027 -424179122 -90181450 -1874895136 1566399568 1591213481 -1840049486 -1483826095 -153741760 -604538245 1435304298
REM
CELL 1.54180   15.00000   15.00000   15.00000   90.00000   90.00000   90.00000
LATT -1
SFAC C  
C      1  0.2953620000000  0.4592830000000  0.5840370000000 1.0
C      1  0.7046250000000  0.5407160000000  0.5840630000000 1.0
C      1  0.4145330000000  0.7226370000000  0.5373330000000 1.0
C      1  0.5854810000000  0.2773630000000  0.5372980000000 1.0
C      1  0.7065590000000  0.5767400000000  0.4220320000000 1.0
C      1  0.2934610000000  0.4232710000000  0.4219970000000 1.0
C      1  0.5758830000000  0.6838680000000  0.3754940000000 1.0
C      1  0.4241690000000  0.3161520000000  0.3755380000000 1.0
C      1  0.6712690000000  0.6812890000000  0.4329410000000 1.0
C      1  0.3287100000000  0.3187170000000  0.4329140000000 1.0
C      1  0.5916780000000  0.7259870000000  0.6095040000000 1.0
C      1  0.4082980000000  0.2739930000000  0.6095010000000 1.0
C      1  0.7215730000000  0.6283020000000  0.5198050000000 1.0
C      1  0.2784270000000  0.3716940000000  0.5197930000000 1.0
C      1  0.5654760000000  0.4164580000000  0.3278600000000 1.0
C      1  0.4345360000000  0.5835480000000  0.3278520000000 1.0
C      1  0.6573370000000  0.4846930000000  0.4404610000000 1.0
C      1  0.3426570000000  0.5153230000000  0.4404540000000 1.0
C      1  0.4947420000000  0.2572740000000  0.4417630000000 1.0
C      1  0.5052540000000  0.7426910000000  0.4417670000000 1.0
C      1  0.5308240000000  0.5415210000000  0.7059210000000 1.0
C      1  0.4691610000000  0.4584650000000  0.7059100000000 1.0
C      1  0.5250850000000  0.3705990000000  0.6691770000000 1.0
C      1  0.4748940000000  0.6293820000000  0.6692110000000 1.0
C      1  0.2833660000000  0.5566050000000  0.5287110000000 1.0
C      1  0.7166270000000  0.4434190000000  0.5287040000000 1.0
C      1  0.5181280000000  0.3204370000000  0.3310390000000 1.0
C      1  0.4819120000000  0.6795620000000  0.3310200000000 1.0
C      1  0.5458470000000  0.4958580000000  0.4608070000000 1.0
C      1  0.4541390000000  0.5041710000000  0.4608380000000 1.0
C      1  0.5105940000000  0.6441490000000  0.4906720000000 1.0
C      1  0.4893820000000  0.3558160000000  0.4906580000000 1.0
C      1  0.3326860000000  0.5777140000000  0.6255330000000 1.0
C      1  0.6672960000000  0.4222790000000  0.6255170000000 1.0
C      1  0.3080890000000  0.5897550000000  0.3657840000000 1.0
C      1  0.6919320000000  0.4102710000000  0.3657750000000 1.0
C      1  0.6217500000000  0.3235910000000  0.3670560000000 1.0
C      1  0.3782760000000  0.6764290000000  0.3670600000000 1.0
C      1  0.2912300000000  0.6362480000000  0.4591840000000 1.0
C      1  0.7087920000000  0.3637820000000  0.4591770000000 1.0
C      1  0.4448720000000  0.6270290000000  0.5747210000000 1.0
C      1  0.5550980000000  0.3729770000000  0.5746900000000 1.0
C      1  0.5810840000000  0.5064700000000  0.3320850000000 1.0
C      1  0.4189270000000  0.4935340000000  0.3320930000000 1.0
C      1  0.6458800000000  0.2851710000000  0.4672240000000 1.0
C      1  0.3541590000000  0.7148550000000  0.4672320000000 1.0
C      1  0.5815170000000  0.6434140000000  0.6867170000000 1.0
C      1  0.4184660000000  0.3565740000000  0.6867030000000 1.0
C      1  0.4931780000000  0.2312640000000  0.5475960000000 1.0
C      1  0.5068220000000  0.7687360000000  0.5475820000000 1.0
C      1  0.6162330000000  0.5839300000000  0.3616210000000 1.0
C      1  0.3837970000000  0.4160730000000  0.3616270000000 1.0
C      1  0.3843860000000  0.4801000000000  0.6516560000000 1.0
C      1  0.6155890000000  0.5198830000000  0.6516640000000 1.0
C      1  0.4109870000000  0.5305520000000  0.5537230000000 1.0
C      1  0.5889950000000  0.4694340000000  0.5537170000000 1.0
C      1  0.6691620000000  0.6430520000000  0.6178920000000 1.0
C      1  0.3308310000000  0.3569450000000  0.6178670000000 1.0
C      1  0.3994560000000  0.3174470000000  0.5117060000000 1.0
C      1  0.6005220000000  0.6825080000000  0.5117260000000 1.0
END
