TITL C-986974-580-733 -6.94071117198023e-06 3375 -372.066167312481 0 0 60 (C1) n - 1
REM
REM in /home/bkarasulu/work/CARBON/AIRSS/Generating-Clusters/REBO/Higher-Symm/Only-C60
REM
REM
REM
REM
REM
REM ./C.cell (a2850807a9bf4ad07a5b6933b78d9264)
REM AIRSS Version 0.9.1 bugfix July 2018 build 013d7b7c2542+ Fri, 06 Jul 2018 19:26:36 +0100
REM compiler GCC version 9.2.1 20190827 (Red Hat 9.2.1-1)
REM options -cpp -mtune=generic -march=x86-64 -g -O0 -fpre-include=/usr/include/finclude/math-vector-fortran.h
REM seed -1197793711 411566832 -894324158 -1793316866 -1262835984 113264125 -652015590 -422414539 624451146 -1502315292 -1612425661 -1797445867 85852873 1435109834 2113230996 -1884432913 -1636320513 -609018113 237596530 2051272372 -1273495863 -955385881 1483068828 -2069475675 1031757674 -980269751 2026521649 -1070545656 1581000219 77188404 1167510574 1875456541 1227370840
REM
CELL 1.54180   15.00000   15.00000   15.00000   90.00000   90.00000   90.00000
LATT -1
SFAC C  
C      1  0.2884450000000  0.4604040000000  0.5438810000000 1.0
C      1  0.3862910000000  0.4779030000000  0.3020010000000 1.0
C      1  0.6637350000000  0.4754910000000  0.3184620000000 1.0
C      1  0.7123910000000  0.4614150000000  0.5916530000000 1.0
C      1  0.4817350000000  0.4634130000000  0.7204230000000 1.0
C      1  0.2812400000000  0.4744770000000  0.4458240000000 1.0
C      1  0.3846130000000  0.4683540000000  0.7011230000000 1.0
C      1  0.6597350000000  0.4706970000000  0.6745710000000 1.0
C      1  0.7195970000000  0.4654270000000  0.3989310000000 1.0
C      1  0.4827290000000  0.4693590000000  0.2816120000000 1.0
C      1  0.3914810000000  0.7032800000000  0.6207370000000 1.0
C      1  0.3386970000000  0.7143650000000  0.4432600000000 1.0
C      1  0.4949210000000  0.7060820000000  0.3329820000000 1.0
C      1  0.6491210000000  0.6966170000000  0.4510580000000 1.0
C      1  0.5773650000000  0.7007560000000  0.6253550000000 1.0
C      1  0.3953900000000  0.7159630000000  0.3690680000000 1.0
C      1  0.3316710000000  0.7017170000000  0.5484490000000 1.0
C      1  0.4899860000000  0.6988880000000  0.6598920000000 1.0
C      1  0.6474160000000  0.6946460000000  0.5456630000000 1.0
C      1  0.5814090000000  0.7056420000000  0.3696290000000 1.0
C      1  0.3242320000000  0.2563220000000  0.5610060000000 1.0
C      1  0.3902210000000  0.2802080000000  0.3860700000000 1.0
C      1  0.5805970000000  0.2784590000000  0.3825770000000 1.0
C      1  0.6374340000000  0.2714890000000  0.5554830000000 1.0
C      1  0.4840450000000  0.2706940000000  0.6598840000000 1.0
C      1  0.3299540000000  0.2772830000000  0.4652550000000 1.0
C      1  0.3881150000000  0.2688140000000  0.6355260000000 1.0
C      1  0.5808400000000  0.2669960000000  0.6343860000000 1.0
C      1  0.6433110000000  0.2845760000000  0.4568820000000 1.0
C      1  0.4843550000000  0.2790900000000  0.3580260000000 1.0
C      1  0.5303930000000  0.5481990000000  0.2621670000000 1.0
C      1  0.7401510000000  0.5422040000000  0.4492970000000 1.0
C      1  0.6183650000000  0.5487700000000  0.7046990000000 1.0
C      1  0.3383170000000  0.5446910000000  0.6750610000000 1.0
C      1  0.2837080000000  0.5546400000000  0.3984730000000 1.0
C      1  0.5282780000000  0.5435850000000  0.7354630000000 1.0
C      1  0.7369910000000  0.5396580000000  0.5449480000000 1.0
C      1  0.6213380000000  0.5535890000000  0.2903470000000 1.0
C      1  0.3403540000000  0.5567890000000  0.3218030000000 1.0
C      1  0.2830370000000  0.5383900000000  0.5974300000000 1.0
C      1  0.3447290000000  0.3694030000000  0.5602250000000 1.0
C      1  0.4098710000000  0.3891650000000  0.3589480000000 1.0
C      1  0.6260120000000  0.3806290000000  0.3561800000000 1.0
C      1  0.6916190000000  0.3695340000000  0.5468650000000 1.0
C      1  0.5199650000000  0.3775360000000  0.6729740000000 1.0
C      1  0.3446220000000  0.3883830000000  0.4473000000000 1.0
C      1  0.4089260000000  0.3794900000000  0.6472570000000 1.0
C      1  0.6234950000000  0.3741560000000  0.6389320000000 1.0
C      1  0.7028840000000  0.3733170000000  0.4413380000000 1.0
C      1  0.5198960000000  0.3827890000000  0.3287490000000 1.0
C      1  0.3825830000000  0.6278060000000  0.6919220000000 1.0
C      1  0.2731520000000  0.6336740000000  0.4507820000000 1.0
C      1  0.4802660000000  0.6295990000000  0.2609240000000 1.0
C      1  0.7171940000000  0.6260700000000  0.4095100000000 1.0
C      1  0.6445770000000  0.6296950000000  0.6613490000000 1.0
C      1  0.3857520000000  0.6380740000000  0.3004430000000 1.0
C      1  0.2632440000000  0.6205790000000  0.5523830000000 1.0
C      1  0.4765280000000  0.6239580000000  0.7337190000000 1.0
C      1  0.7142740000000  0.6226010000000  0.5868740000000 1.0
C      1  0.6484060000000  0.6342000000000  0.3339650000000 1.0
END
