TITL C-986975-4297-861 8.30710025139952e-07 3375 -338.429653763794 0 0 60 (C1) n - 1
REM
REM in /home/bkarasulu/work/CARBON/AIRSS/Generating-Clusters/REBO/Higher-Symm/Only-C60
REM
REM
REM
REM
REM
REM ./C.cell (a2850807a9bf4ad07a5b6933b78d9264)
REM AIRSS Version 0.9.1 bugfix July 2018 build 013d7b7c2542+ Fri, 06 Jul 2018 19:26:36 +0100
REM compiler GCC version 9.2.1 20190827 (Red Hat 9.2.1-1)
REM options -cpp -mtune=generic -march=x86-64 -g -O0 -fpre-include=/usr/include/finclude/math-vector-fortran.h
REM seed -706042119 1880338973 1912442102 -2012728829 143826458 -1497629989 565702203 953020189 711857397 -995832897 291790046 -730481943 248429843 -689765798 -1439242560 -2020916648 1979503926 -1843310707 1113415170 1671886204 -326978801 63290594 1194385659 1789285644 -7274169 186133037 1153220288 -454338870 1456094852 -1347252875 -1342438446 -1875289755 -1345317272
REM
CELL 1.54180   15.00000   15.00000   15.00000   90.00000   90.00000   90.00000
LATT -1
SFAC C  
C      1  0.3442920000000  0.4093960000000  0.3217550000000 1.0
C      1  0.7257040000000  0.4233040000000  0.4498950000000 1.0
C      1  0.4174200000000  0.4086700000000  0.7446330000000 1.0
C      1  0.3375950000000  0.3989650000000  0.6990490000000 1.0
C      1  0.7268150000000  0.4163630000000  0.5417180000000 1.0
C      1  0.4251530000000  0.4127950000000  0.2777060000000 1.0
C      1  0.4053690000000  0.3894220000000  0.5492240000000 1.0
C      1  0.5010060000000  0.4131890000000  0.3871570000000 1.0
C      1  0.5942850000000  0.4142240000000  0.5512690000000 1.0
C      1  0.4034270000000  0.4055520000000  0.4408650000000 1.0
C      1  0.5011490000000  0.4068410000000  0.6050800000000 1.0
C      1  0.5930450000000  0.4289600000000  0.4423770000000 1.0
C      1  0.6959840000000  0.6754030000000  0.3967750000000 1.0
C      1  0.5043680000000  0.6513590000000  0.7014420000000 1.0
C      1  0.3359000000000  0.6605880000000  0.3847650000000 1.0
C      1  0.6909820000000  0.6635890000000  0.5934370000000 1.0
C      1  0.5093400000000  0.6609890000000  0.2856530000000 1.0
C      1  0.3323190000000  0.6311010000000  0.5950480000000 1.0
C      1  0.4119880000000  0.6197750000000  0.7478920000000 1.0
C      1  0.3353410000000  0.6329950000000  0.2810600000000 1.0
C      1  0.7827460000000  0.6374900000000  0.4496990000000 1.0
C      1  0.4172130000000  0.6355200000000  0.2341730000000 1.0
C      1  0.3313940000000  0.6103360000000  0.7001370000000 1.0
C      1  0.7804700000000  0.6309060000000  0.5439220000000 1.0
C      1  0.4373110000000  0.3736170000000  0.8272760000000 1.0
C      1  0.2758160000000  0.3498810000000  0.3064730000000 1.0
C      1  0.7698210000000  0.3685070000000  0.3905220000000 1.0
C      1  0.4522950000000  0.3563430000000  0.2102140000000 1.0
C      1  0.2640770000000  0.3515830000000  0.7273740000000 1.0
C      1  0.7725290000000  0.3542720000000  0.5919030000000 1.0
C      1  0.3937240000000  0.2934630000000  0.4580320000000 1.0
C      1  0.5658340000000  0.3226440000000  0.4593050000000 1.0
C      1  0.4796400000000  0.2948770000000  0.6060810000000 1.0
C      1  0.3941170000000  0.2756480000000  0.5571600000000 1.0
C      1  0.5687230000000  0.3032300000000  0.5578550000000 1.0
C      1  0.4810130000000  0.3032430000000  0.4078140000000 1.0
C      1  0.5116920000000  0.6523800000000  0.5988470000000 1.0
C      1  0.4211800000000  0.6499700000000  0.4403050000000 1.0
C      1  0.6051230000000  0.6715700000000  0.4396690000000 1.0
C      1  0.5153380000000  0.6542940000000  0.3870930000000 1.0
C      1  0.4232640000000  0.6341680000000  0.5449420000000 1.0
C      1  0.6023000000000  0.6564530000000  0.5450180000000 1.0
C      1  0.2876550000000  0.5405670000000  0.6280540000000 1.0
C      1  0.4979990000000  0.5639260000000  0.2413460000000 1.0
C      1  0.7296510000000  0.5667400000000  0.6167040000000 1.0
C      1  0.2908630000000  0.5675640000000  0.3565170000000 1.0
C      1  0.4983820000000  0.5544740000000  0.7438500000000 1.0
C      1  0.7300340000000  0.5758700000000  0.3776510000000 1.0
C      1  0.4032310000000  0.5373940000000  0.4562220000000 1.0
C      1  0.5833750000000  0.5612660000000  0.4538060000000 1.0
C      1  0.4884540000000  0.5390960000000  0.6118640000000 1.0
C      1  0.3995060000000  0.5218040000000  0.5589710000000 1.0
C      1  0.5800900000000  0.5459660000000  0.5588550000000 1.0
C      1  0.4928140000000  0.5447720000000  0.4025890000000 1.0
C      1  0.4906470000000  0.4894940000000  0.3092220000000 1.0
C      1  0.6675040000000  0.4893440000000  0.5913220000000 1.0
C      1  0.3359490000000  0.4479850000000  0.6096740000000 1.0
C      1  0.4864900000000  0.4634800000000  0.6941710000000 1.0
C      1  0.6673170000000  0.5037000000000  0.4117200000000 1.0
C      1  0.3329380000000  0.4826810000000  0.3968470000000 1.0
END
