TITL C-986976-6631-447 0.123637289458827 3375 -327.74720582709 0 0 60 (C3i) n - 1
REM
REM in /home/bkarasulu/work/CARBON/AIRSS/Generating-Clusters/REBO/Higher-Symm/Only-C60
REM
REM
REM
REM
REM
REM ./C.cell (a2850807a9bf4ad07a5b6933b78d9264)
REM AIRSS Version 0.9.1 bugfix July 2018 build 013d7b7c2542+ Fri, 06 Jul 2018 19:26:36 +0100
REM compiler GCC version 9.2.1 20190827 (Red Hat 9.2.1-1)
REM options -cpp -mtune=generic -march=x86-64 -g -O0 -fpre-include=/usr/include/finclude/math-vector-fortran.h
REM seed 2014127716 1472748410 -5045060 918432924 1907338979 1722614233 -1626278513 -143171076 -565614730 68816386 1613766541 1052402470 -225916237 1286848353 -1454784212 531901840 902692887 -351615380 128001810 872534964 -613158176 -1766915005 281976811 1259227963 284641122 -536385752 -787085154 1212609066 319914102 -1053192124 1854171783 148006046 151283856
REM
CELL 1.54180   15.00000   15.00000   15.00000   90.00000   90.00000   90.00000
LATT -1
SFAC C  
C      1  0.7030070000000  0.5673890000000  0.3889390000000 1.0
C      1  0.5431290000000  0.7095200000000  0.6110290000000 1.0
C      1  0.3401750000000  0.6421250000000  0.3889930000000 1.0
C      1  0.2969930000000  0.4326110000000  0.6110610000000 1.0
C      1  0.4568710000000  0.2904800000000  0.3889710000000 1.0
C      1  0.6598250000000  0.3578750000000  0.6110070000000 1.0
C      1  0.5037480000000  0.6885590000000  0.3910390000000 1.0
C      1  0.3385960000000  0.5974550000000  0.6089280000000 1.0
C      1  0.3347460000000  0.4089170000000  0.3910640000000 1.0
C      1  0.4962520000000  0.3114410000000  0.6089610000000 1.0
C      1  0.6614040000000  0.4025450000000  0.3910720000000 1.0
C      1  0.6652540000000  0.5910830000000  0.6089360000000 1.0
C      1  0.5935950000000  0.3985520000000  0.3107760000000 1.0
C      1  0.6346030000000  0.5302900000000  0.6891610000000 1.0
C      1  0.5411270000000  0.6317210000000  0.3107530000000 1.0
C      1  0.4064050000000  0.6014480000000  0.6892240000000 1.0
C      1  0.3653970000000  0.4697100000000  0.3108390000000 1.0
C      1  0.4588730000000  0.3682790000000  0.6892470000000 1.0
C      1  0.3039810000000  0.5175810000000  0.6761550000000 1.0
C      1  0.3868270000000  0.3390360000000  0.3239160000000 1.0
C      1  0.5828190000000  0.3214880000000  0.6760970000000 1.0
C      1  0.6960190000000  0.4824190000000  0.3238450000000 1.0
C      1  0.6131730000000  0.6609640000000  0.6760840000000 1.0
C      1  0.4171810000000  0.6785120000000  0.3239030000000 1.0
C      1  0.3788630000000  0.4232270000000  0.6891160000000 1.0
C      1  0.5059180000000  0.3566930000000  0.3109500000000 1.0
C      1  0.6270290000000  0.4334490000000  0.6890320000000 1.0
C      1  0.6211370000000  0.5767730000000  0.3108840000000 1.0
C      1  0.4940820000000  0.6433070000000  0.6890500000000 1.0
C      1  0.3729710000000  0.5665510000000  0.3109680000000 1.0
C      1  0.5969690000000  0.4798250000000  0.5641880000000 1.0
C      1  0.5659760000000  0.5739110000000  0.4359240000000 1.0
C      1  0.4690030000000  0.5940760000000  0.5641710000000 1.0
C      1  0.4030310000000  0.5201750000000  0.4358120000000 1.0
C      1  0.4340240000000  0.4260890000000  0.5640760000000 1.0
C      1  0.5309970000000  0.4059240000000  0.4358290000000 1.0
C      1  0.4061100000000  0.5153020000000  0.5746440000000 1.0
C      1  0.4397910000000  0.4263420000000  0.4250970000000 1.0
C      1  0.5336680000000  0.4110230000000  0.5747180000000 1.0
C      1  0.5938900000000  0.4846980000000  0.4253560000000 1.0
C      1  0.5602090000000  0.5736580000000  0.5749030000000 1.0
C      1  0.4663320000000  0.5889770000000  0.4252820000000 1.0
C      1  0.4294620000000  0.2861930000000  0.4748830000000 1.0
C      1  0.6498090000000  0.3320100000000  0.5250890000000 1.0
C      1  0.7203600000000  0.5457860000000  0.4748520000000 1.0
C      1  0.5705380000000  0.7138070000000  0.5251170000000 1.0
C      1  0.3501910000000  0.6679900000000  0.4749110000000 1.0
C      1  0.2796400000000  0.4542140000000  0.5251480000000 1.0
C      1  0.4210510000000  0.6697760000000  0.5333820000000 1.0
C      1  0.3135350000000  0.5164680000000  0.4666830000000 1.0
C      1  0.3924420000000  0.3467050000000  0.5332940000000 1.0
C      1  0.5789490000000  0.3302240000000  0.4666180000000 1.0
C      1  0.6864650000000  0.4835320000000  0.5333170000000 1.0
C      1  0.6075580000000  0.6532950000000  0.4667060000000 1.0
C      1  0.4294050000000  0.4147280000000  0.2535310000000 1.0
C      1  0.5385580000000  0.3962060000000  0.7465210000000 1.0
C      1  0.6091770000000  0.4814560000000  0.2534530000000 1.0
C      1  0.5705950000000  0.5852720000000  0.7464690000000 1.0
C      1  0.4614420000000  0.6037940000000  0.2534790000000 1.0
C      1  0.3908230000000  0.5185440000000  0.7465470000000 1.0
END
