TITL C-986976-6631-227 -8.65895391030119e-06 3375 -346.805386353206 0 0 60 (C3) n - 1
REM
REM in /home/bkarasulu/work/CARBON/AIRSS/Generating-Clusters/REBO/Higher-Symm/Only-C60
REM
REM
REM
REM
REM
REM ./C.cell (a2850807a9bf4ad07a5b6933b78d9264)
REM AIRSS Version 0.9.1 bugfix July 2018 build 013d7b7c2542+ Fri, 06 Jul 2018 19:26:36 +0100
REM compiler GCC version 9.2.1 20190827 (Red Hat 9.2.1-1)
REM options -cpp -mtune=generic -march=x86-64 -g -O0 -fpre-include=/usr/include/finclude/math-vector-fortran.h
REM seed 808465717 196906080 -571977047 598081326 1662256651 -1889726261 299192412 394955153 1469791952 -1328402332 1536482617 -1475623836 1547604922 -1064014892 -369549007 553425124 -815907363 1002020157 -61744156 -1239829453 -2075746146 912740311 334646132 -1000740364 -295401730 1763447037 -1567569801 10662501 2138818539 997946420 -1945445942 1870398468 693370000
REM
CELL 1.54180   15.00000   15.00000   15.00000   90.00000   90.00000   90.00000
LATT -1
SFAC C  
C      1  0.7034880000000  0.5303400000000  0.5385820000000 1.0
C      1  0.3648410000000  0.5303300000000  0.6569350000000 1.0
C      1  0.4316680000000  0.5303290000000  0.3044820000000 1.0
C      1  0.6175900000000  0.7163340000000  0.6023070000000 1.0
C      1  0.3525920000000  0.7163250000000  0.5506850000000 1.0
C      1  0.5297980000000  0.7163280000000  0.3470010000000 1.0
C      1  0.6574750000000  0.3313750000000  0.4058810000000 1.0
C      1  0.5027810000000  0.3313730000000  0.6834350000000 1.0
C      1  0.3397590000000  0.3313650000000  0.4106890000000 1.0
C      1  0.6905540000000  0.4929720000000  0.4396010000000 1.0
C      1  0.4570310000000  0.4929670000000  0.6952240000000 1.0
C      1  0.3524160000000  0.4929600000000  0.3651750000000 1.0
C      1  0.3829170000000  0.4794250000000  0.5351260000000 1.0
C      1  0.5281230000000  0.4794280000000  0.3810400000000 1.0
C      1  0.5889620000000  0.4794320000000  0.5838350000000 1.0
C      1  0.2887380000000  0.4816860000000  0.6706760000000 1.0
C      1  0.4578220000000  0.4816870000000  0.2317040000000 1.0
C      1  0.7534410000000  0.4817000000000  0.5976210000000 1.0
C      1  0.2826100000000  0.3925900000000  0.6473160000000 1.0
C      1  0.4811220000000  0.3925920000000  0.2380750000000 1.0
C      1  0.7362790000000  0.3926030000000  0.6146120000000 1.0
C      1  0.4752770000000  0.3552250000000  0.3199010000000 1.0
C      1  0.6683400000000  0.3552340000000  0.5686370000000 1.0
C      1  0.3563970000000  0.3552250000000  0.6114660000000 1.0
C      1  0.6457600000000  0.6690690000000  0.6924060000000 1.0
C      1  0.2604820000000  0.6690550000000  0.5300310000000 1.0
C      1  0.5937420000000  0.6690630000000  0.2775580000000 1.0
C      1  0.4120700000000  0.2615070000000  0.4438130000000 1.0
C      1  0.5926380000000  0.2615130000000  0.4519410000000 1.0
C      1  0.4953140000000  0.2615120000000  0.6042530000000 1.0
C      1  0.6332160000000  0.5963850000000  0.2902260000000 1.0
C      1  0.6150560000000  0.5963890000000  0.7202570000000 1.0
C      1  0.2517180000000  0.5963750000000  0.4895140000000 1.0
C      1  0.4398450000000  0.4238710000000  0.6114570000000 1.0
C      1  0.4335580000000  0.4238680000000  0.3921750000000 1.0
C      1  0.6266050000000  0.4238750000000  0.4963710000000 1.0
C      1  0.5889310000000  0.6407870000000  0.4077460000000 1.0
C      1  0.5354210000000  0.6407880000000  0.6231460000000 1.0
C      1  0.3756340000000  0.6407810000000  0.4691050000000 1.0
C      1  0.6194850000000  0.5874970000000  0.5682990000000 1.0
C      1  0.3811040000000  0.5874890000000  0.5693280000000 1.0
C      1  0.4994030000000  0.5874910000000  0.3623700000000 1.0
C      1  0.4902810000000  0.7688210000000  0.4362780000000 1.0
C      1  0.5600300000000  0.7688240000000  0.5234470000000 1.0
C      1  0.4496640000000  0.7688210000000  0.5402670000000 1.0
C      1  0.6072320000000  0.6697490000000  0.4984550000000 1.0
C      1  0.4477120000000  0.6697450000000  0.5936400000000 1.0
C      1  0.4450400000000  0.6697430000000  0.4078990000000 1.0
C      1  0.5403500000000  0.3840480000000  0.5891890000000 1.0
C      1  0.4025920000000  0.3840430000000  0.4903480000000 1.0
C      1  0.5570690000000  0.3840470000000  0.4204670000000 1.0
C      1  0.3346270000000  0.5377560000000  0.4551300000000 1.0
C      1  0.6215430000000  0.5377640000000  0.3792180000000 1.0
C      1  0.5438270000000  0.5377650000000  0.6656510000000 1.0
C      1  0.5864990000000  0.2866800000000  0.5504920000000 1.0
C      1  0.4130360000000  0.2866740000000  0.5496620000000 1.0
C      1  0.5004860000000  0.2866750000000  0.3998530000000 1.0
C      1  0.4667120000000  0.3939030000000  0.7390920000000 1.0
C      1  0.3095900000000  0.3938940000000  0.3516240000000 1.0
C      1  0.7237080000000  0.3939070000000  0.4092870000000 1.0
END
