TITL C-986978-6805-575 -3.58350562912208e-06 3375 -341.760472750532 0 0 60 (C5) n - 1
REM
REM in /home/bkarasulu/work/CARBON/AIRSS/Generating-Clusters/REBO/Higher-Symm/Only-C60
REM
REM
REM
REM
REM
REM ./C.cell (a2850807a9bf4ad07a5b6933b78d9264)
REM AIRSS Version 0.9.1 bugfix July 2018 build 013d7b7c2542+ Fri, 06 Jul 2018 19:26:36 +0100
REM compiler GCC version 9.2.1 20190827 (Red Hat 9.2.1-1)
REM options -cpp -mtune=generic -march=x86-64 -g -O0 -fpre-include=/usr/include/finclude/math-vector-fortran.h
REM seed -1237896108 283849333 1078485623 -969550494 -349526205 1585829755 1170475257 1641548721 -1315407417 1672454054 1428454311 684364756 -76225092 -1509964909 -220623827 415193512 -642240125 492400823 -1941468957 -1312560938 846162907 1088354129 -252743763 -161800027 -234831397 -2117697476 1122391817 -826654155 -558474659 -1760470794 127752157 -356998109 -652926616
REM
CELL 1.54180   15.00000   15.00000   15.00000   90.00000   90.00000   90.00000
LATT -1
SFAC C  
C      1  0.6270890000000  0.6156710000000  0.6139520000000 1.0
C      1  0.6476510000000  0.6156660000000  0.4143440000000 1.0
C      1  0.4641670000000  0.6156660000000  0.3331060000000 1.0
C      1  0.3302050000000  0.6156720000000  0.4825060000000 1.0
C      1  0.4308970000000  0.6156750000000  0.6560790000000 1.0
C      1  0.5614500000000  0.6757180000000  0.5548300000000 1.0
C      1  0.5711410000000  0.6757160000000  0.4585010000000 1.0
C      1  0.4825220000000  0.6757160000000  0.4195160000000 1.0
C      1  0.4180600000000  0.6757190000000  0.4917510000000 1.0
C      1  0.4668400000000  0.6757200000000  0.5753800000000 1.0
C      1  0.5858810000000  0.3687660000000  0.5391760000000 1.0
C      1  0.5637930000000  0.3687640000000  0.4304290000000 1.0
C      1  0.4535420000000  0.3687650000000  0.4178310000000 1.0
C      1  0.4074910000000  0.3687680000000  0.5187930000000 1.0
C      1  0.4892810000000  0.3687690000000  0.5937880000000 1.0
C      1  0.3803820000000  0.4288150000000  0.3560230000000 1.0
C      1  0.3261030000000  0.4288210000000  0.5692720000000 1.0
C      1  0.5121420000000  0.4288210000000  0.6867920000000 1.0
C      1  0.6814000000000  0.4288150000000  0.5461740000000 1.0
C      1  0.5999670000000  0.4288110000000  0.3417470000000 1.0
C      1  0.6578170000000  0.5857070000000  0.3058040000000 1.0
C      1  0.3640800000000  0.5857110000000  0.2898970000000 1.0
C      1  0.2581810000000  0.5857190000000  0.5643420000000 1.0
C      1  0.4864700000000  0.5857200000000  0.7498660000000 1.0
C      1  0.7334580000000  0.5857130000000  0.5900800000000 1.0
C      1  0.2909490000000  0.5761820000000  0.3518470000000 1.0
C      1  0.2945000000000  0.5761900000000  0.6530370000000 1.0
C      1  0.5820470000000  0.5761880000000  0.7427330000000 1.0
C      1  0.7562090000000  0.5761790000000  0.4969770000000 1.0
C      1  0.5763000000000  0.5761760000000  0.2553960000000 1.0
C      1  0.4173020000000  0.5439670000000  0.4733010000000 1.0
C      1  0.4490540000000  0.5439690000000  0.5704000000000 1.0
C      1  0.5512120000000  0.5439670000000  0.5702070000000 1.0
C      1  0.5825980000000  0.5439640000000  0.4729890000000 1.0
C      1  0.4998370000000  0.5439640000000  0.4130980000000 1.0
C      1  0.3601600000000  0.5772390000000  0.7370790000000 1.0
C      1  0.6822650000000  0.5772330000000  0.7062570000000 1.0
C      1  0.7524880000000  0.5772240000000  0.3903920000000 1.0
C      1  0.4737820000000  0.5772240000000  0.2259990000000 1.0
C      1  0.2313110000000  0.5772330000000  0.4402630000000 1.0
C      1  0.4087140000000  0.3046060000000  0.6352170000000 1.0
C      1  0.6003830000000  0.3046030000000  0.6286030000000 1.0
C      1  0.6533220000000  0.3045970000000  0.4442710000000 1.0
C      1  0.4943710000000  0.3045970000000  0.3369610000000 1.0
C      1  0.3431950000000  0.3046020000000  0.4549720000000 1.0
C      1  0.7087870000000  0.3336080000000  0.5021380000000 1.0
C      1  0.5665460000000  0.3336050000000  0.3020930000000 1.0
C      1  0.3323370000000  0.3336100000000  0.3755540000000 1.0
C      1  0.3298290000000  0.3336160000000  0.6210010000000 1.0
C      1  0.5624880000000  0.3336150000000  0.6992340000000 1.0
C      1  0.3357850000000  0.4996200000000  0.4172700000000 1.0
C      1  0.3705740000000  0.4996250000000  0.6306130000000 1.0
C      1  0.5842250000000  0.4996230000000  0.6634540000000 1.0
C      1  0.6814810000000  0.4996160000000  0.4704070000000 1.0
C      1  0.5279360000000  0.4996150000000  0.3182570000000 1.0
C      1  0.4348030000000  0.4901110000000  0.7173900000000 1.0
C      1  0.6866030000000  0.4901050000000  0.6291840000000 1.0
C      1  0.6805240000000  0.4900980000000  0.3624500000000 1.0
C      1  0.4249670000000  0.4901000000000  0.2858060000000 1.0
C      1  0.2731020000000  0.4901080000000  0.5051710000000 1.0
END
