TITL C-986978-6805-159 0.0210585255851707 3375 -333.341801814856 0 0 60 (C5) n - 1
REM
REM in /home/bkarasulu/work/CARBON/AIRSS/Generating-Clusters/REBO/Higher-Symm/Only-C60
REM
REM
REM
REM
REM
REM ./C.cell (a2850807a9bf4ad07a5b6933b78d9264)
REM AIRSS Version 0.9.1 bugfix July 2018 build 013d7b7c2542+ Fri, 06 Jul 2018 19:26:36 +0100
REM compiler GCC version 9.2.1 20190827 (Red Hat 9.2.1-1)
REM options -cpp -mtune=generic -march=x86-64 -g -O0 -fpre-include=/usr/include/finclude/math-vector-fortran.h
REM seed -1163459211 1864668350 -2131419863 -886977763 -10570927 -843942971 1082763577 261699014 1752270554 -2001365510 1491591698 -553324031 -1809462077 2092016825 1354769829 -840482332 -1372611109 -1544534075 -481789313 1381539786 -1349080869 1617232006 517833313 -364773590 1182126591 670922899 -623466284 764785114 1216777664 1563161030 532870217 -964170124 -1091065860
REM
CELL 1.54180   15.00000   15.00000   15.00000   90.00000   90.00000   90.00000
LATT -1
SFAC C  
C      1  0.5907170000000  0.4874110000000  0.4994010000000 1.0
C      1  0.5285850000000  0.4873650000000  0.5861060000000 1.0
C      1  0.4269380000000  0.4873920000000  0.5537760000000 1.0
C      1  0.4262430000000  0.4874280000000  0.4471070000000 1.0
C      1  0.5274780000000  0.4874200000000  0.4135080000000 1.0
C      1  0.2747670000000  0.3144270000000  0.6892710000000 1.0
C      1  0.2497180000000  0.3146170000000  0.3443690000000 1.0
C      1  0.5711640000000  0.3145270000000  0.2145910000000 1.0
C      1  0.7932490000000  0.3141830000000  0.4789070000000 1.0
C      1  0.6111790000000  0.3146540000000  0.7730970000000 1.0
C      1  0.5148780000000  0.4963800000000  0.7565200000000 1.0
C      1  0.2606170000000  0.4964000000000  0.5934250000000 1.0
C      1  0.3371740000000  0.4964460000000  0.3011660000000 1.0
C      1  0.6387260000000  0.4964600000000  0.2836650000000 1.0
C      1  0.7485850000000  0.4963650000000  0.5650700000000 1.0
C      1  0.7300860000000  0.6011660000000  0.5545480000000 1.0
C      1  0.5192170000000  0.6011600000000  0.7356660000000 1.0
C      1  0.2817890000000  0.6011900000000  0.5910980000000 1.0
C      1  0.3459380000000  0.6012240000000  0.3205930000000 1.0
C      1  0.6229710000000  0.6012350000000  0.2980230000000 1.0
C      1  0.5234100000000  0.5516830000000  0.3198760000000 1.0
C      1  0.6785320000000  0.5516400000000  0.4666010000000 1.0
C      1  0.5869000000000  0.5516300000000  0.6594680000000 1.0
C      1  0.3751820000000  0.5516350000000  0.6319160000000 1.0
C      1  0.3359360000000  0.5516700000000  0.4220280000000 1.0
C      1  0.2688300000000  0.3868550000000  0.3923550000000 1.0
C      1  0.5311430000000  0.3867930000000  0.2471730000000 1.0
C      1  0.7499940000000  0.3866360000000  0.4512330000000 1.0
C      1  0.6238260000000  0.3868410000000  0.7229540000000 1.0
C      1  0.3262440000000  0.3867200000000  0.6862950000000 1.0
C      1  0.4881960000000  0.4544830000000  0.2910910000000 1.0
C      1  0.6949590000000  0.4544260000000  0.4241850000000 1.0
C      1  0.6323480000000  0.4544290000000  0.6620170000000 1.0
C      1  0.3867750000000  0.4544130000000  0.6758920000000 1.0
C      1  0.2976800000000  0.4544810000000  0.4466650000000 1.0
C      1  0.3212390000000  0.4508420000000  0.5402390000000 1.0
C      1  0.4064660000000  0.4508680000000  0.3423940000000 1.0
C      1  0.6209110000000  0.4508730000000  0.3623040000000 1.0
C      1  0.6682730000000  0.4507940000000  0.5724560000000 1.0
C      1  0.4830550000000  0.4508100000000  0.6824220000000 1.0
C      1  0.5818060000000  0.7008270000000  0.5428400000000 1.0
C      1  0.4845330000000  0.7008230000000  0.5910500000000 1.0
C      1  0.4086410000000  0.7008500000000  0.5134150000000 1.0
C      1  0.4590560000000  0.7008620000000  0.4172690000000 1.0
C      1  0.5660220000000  0.7008290000000  0.4354820000000 1.0
C      1  0.5506780000000  0.6808400000000  0.3248690000000 1.0
C      1  0.6822020000000  0.6807750000000  0.4940760000000 1.0
C      1  0.5619390000000  0.6807780000000  0.6714290000000 1.0
C      1  0.3561140000000  0.6807790000000  0.6118800000000 1.0
C      1  0.3491230000000  0.6808390000000  0.3977460000000 1.0
C      1  0.6501260000000  0.6337390000000  0.3975670000000 1.0
C      1  0.6438000000000  0.6336790000000  0.6111880000000 1.0
C      1  0.4386830000000  0.6336660000000  0.6711460000000 1.0
C      1  0.3182800000000  0.6336960000000  0.4945770000000 1.0
C      1  0.4489680000000  0.6337690000000  0.3255370000000 1.0
C      1  0.5973390000000  0.2417300000000  0.8191650000000 1.0
C      1  0.2268330000000  0.2413940000000  0.6898490000000 1.0
C      1  0.2339640000000  0.2416310000000  0.2990060000000 1.0
C      1  0.6097610000000  0.2415390000000  0.1860470000000 1.0
C      1  0.8322110000000  0.2409800000000  0.5063900000000 1.0
END
