TITL C-986976-6631-662 -8.46809813523968e-06 3375 -345.541025212523 0 0 60 (C2) n - 1
REM
REM in /home/bkarasulu/work/CARBON/AIRSS/Generating-Clusters/REBO/Higher-Symm/Only-C60
REM
REM
REM
REM
REM
REM ./C.cell (a2850807a9bf4ad07a5b6933b78d9264)
REM AIRSS Version 0.9.1 bugfix July 2018 build 013d7b7c2542+ Fri, 06 Jul 2018 19:26:36 +0100
REM compiler GCC version 9.2.1 20190827 (Red Hat 9.2.1-1)
REM options -cpp -mtune=generic -march=x86-64 -g -O0 -fpre-include=/usr/include/finclude/math-vector-fortran.h
REM seed -562387576 -386796677 -2141541834 -641030778 -81070547 615562466 1364174940 -1749619228 1547424568 -407499256 -1743007546 1240439249 -1738996457 366799259 569194344 -1005165437 -14743835 -1384531258 474338946 -25242874 1621282869 13953790 1439480361 79159840 2060054820 68104986 -1491116756 941095305 616156272 -1494359718 693595871 1796198336 -407312831
REM
CELL 1.54180   15.00000   15.00000   15.00000   90.00000   90.00000   90.00000
LATT -1
SFAC C  
C      1  0.3106190000000  0.3526420000000  0.4046650000000 1.0
C      1  0.3106180000000  0.6473580000000  0.5953340000000 1.0
C      1  0.6083780000000  0.7116760000000  0.6014700000000 1.0
C      1  0.6083780000000  0.2883240000000  0.3985310000000 1.0
C      1  0.4940130000000  0.4044750000000  0.3037020000000 1.0
C      1  0.4940120000000  0.5955250000000  0.6962980000000 1.0
C      1  0.4694670000000  0.4961170000000  0.5871260000000 1.0
C      1  0.4694680000000  0.5038830000000  0.4128740000000 1.0
C      1  0.6440000000000  0.3600750000000  0.4730610000000 1.0
C      1  0.6440000000000  0.6399250000000  0.5269400000000 1.0
C      1  0.5934060000000  0.5731210000000  0.7098140000000 1.0
C      1  0.5934070000000  0.4268790000000  0.2901870000000 1.0
C      1  0.3875610000000  0.3231930000000  0.6048060000000 1.0
C      1  0.3875610000000  0.6768070000000  0.3951930000000 1.0
C      1  0.6658550000000  0.4738510000000  0.5989610000000 1.0
C      1  0.6658550000000  0.5261490000000  0.4010390000000 1.0
C      1  0.5784050000000  0.5478890000000  0.5283130000000 1.0
C      1  0.5784050000000  0.4521110000000  0.4716870000000 1.0
C      1  0.4879950000000  0.3321120000000  0.6448380000000 1.0
C      1  0.4879960000000  0.6678880000000  0.3551620000000 1.0
C      1  0.4457540000000  0.3403150000000  0.5089760000000 1.0
C      1  0.4457540000000  0.6596850000000  0.4910240000000 1.0
C      1  0.3366740000000  0.6577900000000  0.4956200000000 1.0
C      1  0.3366740000000  0.3422100000000  0.5043790000000 1.0
C      1  0.4771970000000  0.5662110000000  0.4976930000000 1.0
C      1  0.4771970000000  0.4337890000000  0.5023070000000 1.0
C      1  0.2193490000000  0.5365570000000  0.4725880000000 1.0
C      1  0.2193490000000  0.4634430000000  0.5274110000000 1.0
C      1  0.2955450000000  0.5759180000000  0.4422070000000 1.0
C      1  0.2955450000000  0.4240820000000  0.5577920000000 1.0
C      1  0.5061980000000  0.7207710000000  0.5519040000000 1.0
C      1  0.5061980000000  0.2792290000000  0.4480960000000 1.0
C      1  0.3366800000000  0.4191180000000  0.3491300000000 1.0
C      1  0.3366800000000  0.5808820000000  0.6508690000000 1.0
C      1  0.3654380000000  0.4872600000000  0.6082060000000 1.0
C      1  0.3654380000000  0.5127400000000  0.3917940000000 1.0
C      1  0.5620360000000  0.2794980000000  0.6249420000000 1.0
C      1  0.5620370000000  0.7205020000000  0.3750580000000 1.0
C      1  0.5016650000000  0.5844320000000  0.3116370000000 1.0
C      1  0.5016650000000  0.4155680000000  0.6883630000000 1.0
C      1  0.5665870000000  0.4866790000000  0.6458490000000 1.0
C      1  0.5665870000000  0.5133210000000  0.3541510000000 1.0
C      1  0.3489890000000  0.3973580000000  0.6738080000000 1.0
C      1  0.3489900000000  0.6026420000000  0.3261910000000 1.0
C      1  0.7148880000000  0.4295960000000  0.3864270000000 1.0
C      1  0.7148870000000  0.5704040000000  0.6135740000000 1.0
C      1  0.5358670000000  0.3761390000000  0.3982890000000 1.0
C      1  0.5358660000000  0.6238610000000  0.6017110000000 1.0
C      1  0.4130770000000  0.4477650000000  0.2862090000000 1.0
C      1  0.4130760000000  0.5522350000000  0.7137910000000 1.0
C      1  0.6561030000000  0.6288540000000  0.6626440000000 1.0
C      1  0.6561040000000  0.3711460000000  0.3373570000000 1.0
C      1  0.4204210000000  0.5457660000000  0.2755190000000 1.0
C      1  0.4204200000000  0.4542340000000  0.7244810000000 1.0
C      1  0.6990130000000  0.6277940000000  0.3914220000000 1.0
C      1  0.6990130000000  0.3722060000000  0.6085780000000 1.0
C      1  0.7084640000000  0.4449660000000  0.4976060000000 1.0
C      1  0.7084630000000  0.5550340000000  0.5023950000000 1.0
C      1  0.6503560000000  0.7034800000000  0.3859330000000 1.0
C      1  0.6503560000000  0.2965200000000  0.6140680000000 1.0
END
