TITL C-986973-6940-1122 0.0467308812395023 3375 -331.515449508436 0 0 60 (C3) n - 1
REM
REM in /home/bkarasulu/work/CARBON/AIRSS/Generating-Clusters/REBO/Higher-Symm/Only-C60
REM
REM
REM
REM
REM
REM ./C.cell (a2850807a9bf4ad07a5b6933b78d9264)
REM AIRSS Version 0.9.1 bugfix July 2018 build 013d7b7c2542+ Fri, 06 Jul 2018 19:26:36 +0100
REM compiler GCC version 9.2.1 20190827 (Red Hat 9.2.1-1)
REM options -cpp -mtune=generic -march=x86-64 -g -O0 -fpre-include=/usr/include/finclude/math-vector-fortran.h
REM seed 1466492080 728258653 -1424844432 -219100696 702278870 1298726899 -2102889970 122866705 2076253976 -701467891 1512189033 -163352005 -899479624 -1480074030 -540007471 -335979407 -1971907575 -1100008504 877755820 220716620 1581201997 1850603284 1816175290 -522797079 -537582298 1399011418 -1224967605 553582915 -1395073997 -997311555 244742044 1232217743 20182477
REM
CELL 1.54180   15.00000   15.00000   15.00000   90.00000   90.00000   90.00000
LATT -1
SFAC C  
C      1  0.6248000000000  0.4807280000000  0.3619750000000 1.0
C      1  0.5571090000000  0.4807800000000  0.6771130000000 1.0
C      1  0.3180450000000  0.4807360000000  0.4609160000000 1.0
C      1  0.3280090000000  0.6932200000000  0.4815080000000 1.0
C      1  0.6020260000000  0.6932280000000  0.3603220000000 1.0
C      1  0.5699690000000  0.6932370000000  0.6581950000000 1.0
C      1  0.5735940000000  0.5996960000000  0.4186360000000 1.0
C      1  0.5337090000000  0.5997030000000  0.6044030000000 1.0
C      1  0.3927410000000  0.5997060000000  0.4769880000000 1.0
C      1  0.5923890000000  0.2763070000000  0.3797990000000 1.0
C      1  0.5578790000000  0.2762960000000  0.6401130000000 1.0
C      1  0.3496550000000  0.2762870000000  0.4801070000000 1.0
C      1  0.5075290000000  0.5255710000000  0.4044030000000 1.0
C      1  0.5790680000000  0.5255830000000  0.5543350000000 1.0
C      1  0.4134190000000  0.5255680000000  0.5412590000000 1.0
C      1  0.4077580000000  0.5667120000000  0.3853570000000 1.0
C      1  0.6454670000000  0.5667270000000  0.4774290000000 1.0
C      1  0.4468410000000  0.5667010000000  0.6371700000000 1.0
C      1  0.6692680000000  0.6952480000000  0.4521940000000 1.0
C      1  0.4567820000000  0.6951910000000  0.6704950000000 1.0
C      1  0.3739290000000  0.6952720000000  0.3773280000000 1.0
C      1  0.3070930000000  0.6342220000000  0.5723310000000 1.0
C      1  0.5338150000000  0.6342460000000  0.2968120000000 1.0
C      1  0.6590920000000  0.6342590000000  0.6309150000000 1.0
C      1  0.2820230000000  0.5443080000000  0.5477410000000 1.0
C      1  0.5676150000000  0.5443200000000  0.2873940000000 1.0
C      1  0.6503260000000  0.5443430000000  0.6649150000000 1.0
C      1  0.7108300000000  0.3847660000000  0.3926960000000 1.0
C      1  0.4874960000000  0.3847920000000  0.7361900000000 1.0
C      1  0.3016760000000  0.3847620000000  0.3710710000000 1.0
C      1  0.4457650000000  0.4787020000000  0.7030860000000 1.0
C      1  0.3512730000000  0.4786810000000  0.3515100000000 1.0
C      1  0.7030380000000  0.4786860000000  0.4453660000000 1.0
C      1  0.3502530000000  0.3538880000000  0.5556120000000 1.0
C      1  0.5267090000000  0.3538810000000  0.3425230000000 1.0
C      1  0.6230360000000  0.3538700000000  0.6018710000000 1.0
C      1  0.6350910000000  0.3812370000000  0.3099580000000 1.0
C      1  0.5970290000000  0.3812660000000  0.7119530000000 1.0
C      1  0.2678530000000  0.3812490000000  0.4780360000000 1.0
C      1  0.5363730000000  0.6998490000000  0.4497240000000 1.0
C      1  0.5253580000000  0.6998540000000  0.5566400000000 1.0
C      1  0.4382700000000  0.6998470000000  0.4936400000000 1.0
C      1  0.4256810000000  0.4424800000000  0.4674980000000 1.0
C      1  0.5652990000000  0.4424940000000  0.4519170000000 1.0
C      1  0.5090190000000  0.4425130000000  0.5805940000000 1.0
C      1  0.6555340000000  0.3154930000000  0.4410570000000 1.0
C      1  0.4732620000000  0.3154990000000  0.6641430000000 1.0
C      1  0.3711700000000  0.3154480000000  0.3947900000000 1.0
C      1  0.3616810000000  0.4725210000000  0.6271240000000 1.0
C      1  0.4590670000000  0.4724770000000  0.3167140000000 1.0
C      1  0.6792990000000  0.4724960000000  0.5561600000000 1.0
C      1  0.3759030000000  0.6463640000000  0.6387240000000 1.0
C      1  0.4419050000000  0.6464020000000  0.3231610000000 1.0
C      1  0.6822230000000  0.6464090000000  0.5381380000000 1.0
C      1  0.6803870000000  0.4351320000000  0.6572010000000 1.0
C      1  0.2736020000000  0.4350970000000  0.5776100000000 1.0
C      1  0.5459630000000  0.4350950000000  0.2651410000000 1.0
C      1  0.4500640000000  0.3734840000000  0.4045520000000 1.0
C      1  0.6076550000000  0.3735240000000  0.5044960000000 1.0
C      1  0.4422830000000  0.3735470000000  0.5909520000000 1.0
END
