TITL C-986979-5873-583 0.123990376450822 3375 -340.369561631156 0 0 60 (C1) n - 1
REM
REM in /home/bkarasulu/work/CARBON/AIRSS/Generating-Clusters/REBO/Higher-Symm/Only-C60
REM
REM
REM
REM
REM
REM ./C.cell (a2850807a9bf4ad07a5b6933b78d9264)
REM AIRSS Version 0.9.1 bugfix July 2018 build 013d7b7c2542+ Fri, 06 Jul 2018 19:26:36 +0100
REM compiler GCC version 9.2.1 20190827 (Red Hat 9.2.1-1)
REM options -cpp -mtune=generic -march=x86-64 -g -O0 -fpre-include=/usr/include/finclude/math-vector-fortran.h
REM seed -927235080 -706642021 891533468 270750548 918329419 2103658453 -1817690965 -424592223 1437179897 -852409924 1448493746 1908853929 -626029816 1922823620 1797174645 306681440 -96625434 261268674 672428359 1335697712 -589096487 2044328810 1360418433 1794120547 2130490989 1829589042 -1515446124 -1161969970 2087081958 -1145374818 -1103786733 1727185486 1176336916
REM
CELL 1.54180   15.00000   15.00000   15.00000   90.00000   90.00000   90.00000
LATT -1
SFAC C  
C      1  0.3096300000000  0.6830830000000  0.4389970000000 1.0
C      1  0.6851330000000  0.6943900000000  0.5478420000000 1.0
C      1  0.6849680000000  0.6935900000000  0.4402890000000 1.0
C      1  0.3063320000000  0.6823020000000  0.5544200000000 1.0
C      1  0.5510240000000  0.3258880000000  0.3474070000000 1.0
C      1  0.4581370000000  0.3435720000000  0.6255560000000 1.0
C      1  0.4542000000000  0.3221060000000  0.3454690000000 1.0
C      1  0.5516950000000  0.3479260000000  0.6288880000000 1.0
C      1  0.6213400000000  0.6383920000000  0.6020230000000 1.0
C      1  0.3645340000000  0.6194680000000  0.3749120000000 1.0
C      1  0.3628860000000  0.6175510000000  0.6169970000000 1.0
C      1  0.6201660000000  0.6372870000000  0.3886870000000 1.0
C      1  0.4070440000000  0.2635810000000  0.3977670000000 1.0
C      1  0.6072950000000  0.2980340000000  0.5778200000000 1.0
C      1  0.6005350000000  0.2725240000000  0.4028700000000 1.0
C      1  0.4083620000000  0.2898040000000  0.5721190000000 1.0
C      1  0.5394220000000  0.4761320000000  0.2482230000000 1.0
C      1  0.4538780000000  0.4671760000000  0.7501690000000 1.0
C      1  0.4548590000000  0.4731820000000  0.2477760000000 1.0
C      1  0.5386920000000  0.4719820000000  0.7521890000000 1.0
C      1  0.7078620000000  0.3804180000000  0.5490180000000 1.0
C      1  0.2867200000000  0.3698690000000  0.4409730000000 1.0
C      1  0.2954460000000  0.3627860000000  0.5478320000000 1.0
C      1  0.7152360000000  0.3864760000000  0.4425310000000 1.0
C      1  0.5364660000000  0.6340300000000  0.6358600000000 1.0
C      1  0.4476850000000  0.6257410000000  0.3459870000000 1.0
C      1  0.4474000000000  0.6244800000000  0.6423780000000 1.0
C      1  0.5367030000000  0.6341530000000  0.3521190000000 1.0
C      1  0.5945460000000  0.4291340000000  0.3282800000000 1.0
C      1  0.4053820000000  0.4303220000000  0.6600770000000 1.0
C      1  0.4028800000000  0.4217830000000  0.3271860000000 1.0
C      1  0.5950980000000  0.4401010000000  0.6647270000000 1.0
C      1  0.6659270000000  0.4641260000000  0.5948580000000 1.0
C      1  0.3379630000000  0.4498630000000  0.4025210000000 1.0
C      1  0.3346450000000  0.4485870000000  0.5892480000000 1.0
C      1  0.6587530000000  0.4626440000000  0.4013590000000 1.0
C      1  0.6811730000000  0.5608140000000  0.4395620000000 1.0
C      1  0.3037790000000  0.5492400000000  0.5537340000000 1.0
C      1  0.3075920000000  0.5499870000000  0.4382500000000 1.0
C      1  0.6851780000000  0.5618260000000  0.5541120000000 1.0
C      1  0.4992510000000  0.4703140000000  0.6250470000000 1.0
C      1  0.4975310000000  0.4447940000000  0.3707460000000 1.0
C      1  0.2352070000000  0.6174130000000  0.4942810000000 1.0
C      1  0.7584730000000  0.6248460000000  0.4940570000000 1.0
C      1  0.6597090000000  0.2989910000000  0.4838210000000 1.0
C      1  0.3499820000000  0.2867860000000  0.4814210000000 1.0
C      1  0.6080830000000  0.4707340000000  0.5006860000000 1.0
C      1  0.3920740000000  0.4760600000000  0.4982580000000 1.0
C      1  0.5047450000000  0.3207900000000  0.4837260000000 1.0
C      1  0.3855930000000  0.7356530000000  0.4993100000000 1.0
C      1  0.4963600000000  0.9801150000000  0.5309060000000 1.0
C      1  0.4028540000000  0.8327790000000  0.5076580000000 1.0
C      1  0.5170440000000  0.2354390000000  0.5023690000000 1.0
C      1  0.5291340000000  0.0623847000000  0.5297820000000 1.0
C      1  0.5332250000000  0.1501020000000  0.5184590000000 1.0
C      1  0.4701250000000  0.6769410000000  0.5029730000000 1.0
C      1  0.5003970000000  0.4969240000000  0.5246460000000 1.0
C      1  0.5012560000000  0.6023200000000  0.5111760000000 1.0
C      1  0.4477660000000  0.9069160000000  0.5211070000000 1.0
C      1  0.4988800000000  0.4080090000000  0.4590690000000 1.0
END
