TITL C-986976-6631-875 -1.04762145121443e-05 3375 -344.549648035197 0 0 60 (S4) n - 1
REM
REM in /home/bkarasulu/work/CARBON/AIRSS/Generating-Clusters/REBO/Higher-Symm/Only-C60
REM
REM
REM
REM
REM
REM ./C.cell (a2850807a9bf4ad07a5b6933b78d9264)
REM AIRSS Version 0.9.1 bugfix July 2018 build 013d7b7c2542+ Fri, 06 Jul 2018 19:26:36 +0100
REM compiler GCC version 9.2.1 20190827 (Red Hat 9.2.1-1)
REM options -cpp -mtune=generic -march=x86-64 -g -O0 -fpre-include=/usr/include/finclude/math-vector-fortran.h
REM seed -469603611 -2087597855 1937116422 -913700900 -2106622209 -175688730 713794134 -366311405 -388339894 530641435 1031677539 -1680308368 -459967321 -1780900707 2008245085 -1069228395 -1378924618 1459158374 -337289343 -1548191418 2098567414 -323460585 -2042807642 1665593439 609355336 -2014763762 528250706 -1774909524 1228335963 -1212203602 644124232 2066544301 893968010
REM
CELL 1.54180   15.00000   15.00000   15.00000   90.00000   90.00000   90.00000
LATT -1
SFAC C  
C      1  0.7177130000000  0.4938470000000  0.6225390000000 1.0
C      1  0.6225000000000  0.5062180000000  0.2822940000000 1.0
C      1  0.2822870000000  0.4938470000000  0.3774610000000 1.0
C      1  0.3775000000000  0.5062180000000  0.7177060000000 1.0
C      1  0.4520990000000  0.6525100000000  0.7051870000000 1.0
C      1  0.7051180000000  0.3475740000000  0.5479300000000 1.0
C      1  0.5479010000000  0.6525100000000  0.2948130000000 1.0
C      1  0.2948820000000  0.3475740000000  0.4520700000000 1.0
C      1  0.4195180000000  0.3913560000000  0.5968470000000 1.0
C      1  0.5967540000000  0.6084690000000  0.5803930000000 1.0
C      1  0.5804820000000  0.3913560000000  0.4031540000000 1.0
C      1  0.4032460000000  0.6084690000000  0.4196070000000 1.0
C      1  0.7322290000000  0.4415870000000  0.5425790000000 1.0
C      1  0.5425590000000  0.5584890000000  0.2676520000000 1.0
C      1  0.2677710000000  0.4415870000000  0.4574210000000 1.0
C      1  0.4574410000000  0.5584890000000  0.7323480000000 1.0
C      1  0.3629760000000  0.6844720000000  0.6913540000000 1.0
C      1  0.6913260000000  0.3156190000000  0.6370550000000 1.0
C      1  0.6370240000000  0.6844710000000  0.3086450000000 1.0
C      1  0.3086740000000  0.3156180000000  0.3629450000000 1.0
C      1  0.4994190000000  0.7387330000000  0.4585390000000 1.0
C      1  0.4585380000000  0.2612360000000  0.5005480000000 1.0
C      1  0.5005810000000  0.7387330000000  0.5414610000000 1.0
C      1  0.5414620000000  0.2612360000000  0.4994520000000 1.0
C      1  0.3501490000000  0.4595950000000  0.6444050000000 1.0
C      1  0.6444440000000  0.5405110000000  0.6499150000000 1.0
C      1  0.6498510000000  0.4595950000000  0.3555950000000 1.0
C      1  0.3555560000000  0.5405110000000  0.3500850000000 1.0
C      1  0.5340260000000  0.3321870000000  0.3339700000000 1.0
C      1  0.3341050000000  0.6675820000000  0.4662340000000 1.0
C      1  0.4659740000000  0.3321870000000  0.6660300000000 1.0
C      1  0.6658950000000  0.6675820000000  0.5337660000000 1.0
C      1  0.4850400000000  0.6679890000000  0.3847570000000 1.0
C      1  0.3847870000000  0.3320020000000  0.5149270000000 1.0
C      1  0.5149600000000  0.6679900000000  0.6152430000000 1.0
C      1  0.6152130000000  0.3320020000000  0.4850730000000 1.0
C      1  0.4633970000000  0.5171830000000  0.3279000000000 1.0
C      1  0.3279880000000  0.4829310000000  0.5365540000000 1.0
C      1  0.5366030000000  0.5171830000000  0.6721000000000 1.0
C      1  0.6720120000000  0.4829310000000  0.4634460000000 1.0
C      1  0.3170620000000  0.6416340000000  0.6230640000000 1.0
C      1  0.6230740000000  0.3584980000000  0.6829810000000 1.0
C      1  0.6829380000000  0.6416340000000  0.3769360000000 1.0
C      1  0.3769260000000  0.3584980000000  0.3170190000000 1.0
C      1  0.2765690000000  0.7167740000000  0.5050380000000 1.0
C      1  0.5046380000000  0.2829400000000  0.7236140000000 1.0
C      1  0.7234310000000  0.7167740000000  0.4949620000000 1.0
C      1  0.4953620000000  0.2829400000000  0.2763870000000 1.0
C      1  0.5364780000000  0.5709530000000  0.3991920000000 1.0
C      1  0.3993080000000  0.4290660000000  0.4635600000000 1.0
C      1  0.4635220000000  0.5709530000000  0.6008080000000 1.0
C      1  0.6006920000000  0.4290660000000  0.5364400000000 1.0
C      1  0.3614890000000  0.5749800000000  0.5791840000000 1.0
C      1  0.5791970000000  0.4251400000000  0.6385310000000 1.0
C      1  0.6385110000000  0.5749800000000  0.4208160000000 1.0
C      1  0.4208030000000  0.4251400000000  0.3614690000000 1.0
C      1  0.5229330000000  0.4683970000000  0.4364740000000 1.0
C      1  0.4367260000000  0.5315310000000  0.4771610000000 1.0
C      1  0.4770670000000  0.4683970000000  0.5635260000000 1.0
C      1  0.5632740000000  0.5315310000000  0.5228390000000 1.0
END
