TITL C-986973-6940-20 0.00900809053008124 3375 -332.335016743861 0 0 60 (Ci) n - 1
REM
REM in /home/bkarasulu/work/CARBON/AIRSS/Generating-Clusters/REBO/Higher-Symm/Only-C60
REM
REM
REM
REM
REM
REM ./C.cell (a2850807a9bf4ad07a5b6933b78d9264)
REM AIRSS Version 0.9.1 bugfix July 2018 build 013d7b7c2542+ Fri, 06 Jul 2018 19:26:36 +0100
REM compiler GCC version 9.2.1 20190827 (Red Hat 9.2.1-1)
REM options -cpp -mtune=generic -march=x86-64 -g -O0 -fpre-include=/usr/include/finclude/math-vector-fortran.h
REM seed -2060325905 937066444 -999837021 1111723717 338109297 -1651760389 1129905263 -1011104095 1282820135 487371749 -917748265 -510305291 236588920 1658819621 802146109 -598519114 1000522619 -1251441932 -2122121128 1860735808 -1651578154 -341835534 1075111707 1313295751 1023588140 -751069018 1126077068 1344645276 415848098 -1369689982 318988460 1052176474 245626800
REM
CELL 1.54180   15.00000   15.00000   15.00000   90.00000   90.00000   90.00000
LATT -1
SFAC C  
C      1  0.5752640000000  0.4527740000000  0.5616200000000 1.0
C      1  0.4247290000000  0.5472290000000  0.4383780000000 1.0
C      1  0.2672980000000  0.5930610000000  0.6267060000000 1.0
C      1  0.7327020000000  0.4069490000000  0.3733090000000 1.0
C      1  0.2921340000000  0.4434760000000  0.3133030000000 1.0
C      1  0.7079860000000  0.5564000000000  0.6867010000000 1.0
C      1  0.4144900000000  0.3649430000000  0.4014790000000 1.0
C      1  0.5855060000000  0.6350660000000  0.5985190000000 1.0
C      1  0.6034940000000  0.3238340000000  0.5779790000000 1.0
C      1  0.3964990000000  0.6761710000000  0.4220260000000 1.0
C      1  0.2861540000000  0.6439100000000  0.5554050000000 1.0
C      1  0.7138450000000  0.3560930000000  0.4446140000000 1.0
C      1  0.3800340000000  0.4676750000000  0.5775420000000 1.0
C      1  0.6199450000000  0.5323340000000  0.4224560000000 1.0
C      1  0.5655910000000  0.6552700000000  0.3388470000000 1.0
C      1  0.4343920000000  0.3447240000000  0.6611450000000 1.0
C      1  0.5951460000000  0.4411850000000  0.6924840000000 1.0
C      1  0.4048490000000  0.5588240000000  0.3075140000000 1.0
C      1  0.3391020000000  0.3557830000000  0.6364070000000 1.0
C      1  0.6608910000000  0.6442180000000  0.3635740000000 1.0
C      1  0.6587560000000  0.4986490000000  0.6320340000000 1.0
C      1  0.3412750000000  0.5013120000000  0.3679620000000 1.0
C      1  0.3047310000000  0.5118730000000  0.6500090000000 1.0
C      1  0.6952660000000  0.4881250000000  0.3499960000000 1.0
C      1  0.3455190000000  0.4354530000000  0.7015660000000 1.0
C      1  0.6544780000000  0.5645510000000  0.2984350000000 1.0
C      1  0.4398040000000  0.4308090000000  0.4869360000000 1.0
C      1  0.5601860000000  0.5691950000000  0.5130690000000 1.0
C      1  0.4982130000000  0.4023190000000  0.5983100000000 1.0
C      1  0.5017780000000  0.5976830000000  0.4016860000000 1.0
C      1  0.5567450000000  0.7293900000000  0.5780030000000 1.0
C      1  0.4432530000000  0.2706180000000  0.4219980000000 1.0
C      1  0.5663200000000  0.5425770000000  0.2675940000000 1.0
C      1  0.4336840000000  0.4574230000000  0.7323970000000 1.0
C      1  0.3243480000000  0.3837610000000  0.5271080000000 1.0
C      1  0.6756460000000  0.6162430000000  0.4728850000000 1.0
C      1  0.4138200000000  0.6409810000000  0.5915770000000 1.0
C      1  0.5861790000000  0.3590260000000  0.4084280000000 1.0
C      1  0.4617230000000  0.7367710000000  0.5806680000000 1.0
C      1  0.5382770000000  0.2632400000000  0.4193430000000 1.0
C      1  0.4093970000000  0.6522840000000  0.3222680000000 1.0
C      1  0.5905910000000  0.3477240000000  0.6777300000000 1.0
C      1  0.3130640000000  0.4824710000000  0.4702860000000 1.0
C      1  0.6869260000000  0.5175390000000  0.5297050000000 1.0
C      1  0.6316280000000  0.2868530000000  0.4797950000000 1.0
C      1  0.3683680000000  0.7131600000000  0.5202120000000 1.0
C      1  0.3298060000000  0.5958280000000  0.4707270000000 1.0
C      1  0.6701940000000  0.4041850000000  0.5292900000000 1.0
C      1  0.5099240000000  0.3090280000000  0.7118750000000 1.0
C      1  0.4900660000000  0.6909820000000  0.2881270000000 1.0
C      1  0.4868430000000  0.4439080000000  0.3819730000000 1.0
C      1  0.5131540000000  0.5560990000000  0.6180220000000 1.0
C      1  0.6011560000000  0.7012150000000  0.4850010000000 1.0
C      1  0.3988280000000  0.2987940000000  0.5149930000000 1.0
C      1  0.5671350000000  0.4507530000000  0.4536190000000 1.0
C      1  0.4328630000000  0.5492510000000  0.5463790000000 1.0
C      1  0.4934780000000  0.3113850000000  0.5467350000000 1.0
C      1  0.5065190000000  0.6886160000000  0.4532620000000 1.0
C      1  0.4860460000000  0.5087240000000  0.3040400000000 1.0
C      1  0.5139570000000  0.4912790000000  0.6959530000000 1.0
END
