TITL C-986979-5873-524 0.0653630667245607 3375 -347.585726192075 0 0 60 (C1) n - 1
REM
REM in /home/bkarasulu/work/CARBON/AIRSS/Generating-Clusters/REBO/Higher-Symm/Only-C60
REM
REM
REM
REM
REM
REM ./C.cell (a2850807a9bf4ad07a5b6933b78d9264)
REM AIRSS Version 0.9.1 bugfix July 2018 build 013d7b7c2542+ Fri, 06 Jul 2018 19:26:36 +0100
REM compiler GCC version 9.2.1 20190827 (Red Hat 9.2.1-1)
REM options -cpp -mtune=generic -march=x86-64 -g -O0 -fpre-include=/usr/include/finclude/math-vector-fortran.h
REM seed 736685141 -1574831101 -1785448057 -1747969182 -561153802 -710753973 -2066998838 1526513584 -690839579 1391760247 1413126554 2106438458 -1409831846 1435859437 -1247572543 -1579926970 -1586039636 -2106042066 1799658083 1699315452 -1733464094 1505580628 -312671586 -1560551056 -917616300 -1532218520 -1204933702 1670636 1073154420 -970890392 95520218 1109384574 1610845852
REM
CELL 1.54180   15.00000   15.00000   15.00000   90.00000   90.00000   90.00000
LATT -1
SFAC C  
C      1  0.6676680000000  0.4338960000000  0.6321210000000 1.0
C      1  0.4860080000000  0.6922200000000  0.6138460000000 1.0
C      1  0.3499390000000  0.3866060000000  0.6073540000000 1.0
C      1  0.6667410000000  0.4337000000000  0.3678310000000 1.0
C      1  0.4855150000000  0.6920920000000  0.3878360000000 1.0
C      1  0.3487020000000  0.3871790000000  0.3956050000000 1.0
C      1  0.5112460000000  0.3950800000000  0.7008860000000 1.0
C      1  0.5662300000000  0.5742290000000  0.7059230000000 1.0
C      1  0.3943890000000  0.5305950000000  0.6903960000000 1.0
C      1  0.5095570000000  0.3953690000000  0.3009810000000 1.0
C      1  0.5649070000000  0.5741850000000  0.2948170000000 1.0
C      1  0.3927910000000  0.5313560000000  0.3122270000000 1.0
C      1  0.4312320000000  0.5712570000000  0.4544680000000 1.0
C      1  0.5032200000000  0.3647400000000  0.4603020000000 1.0
C      1  0.6083030000000  0.5622620000000  0.4597570000000 1.0
C      1  0.4337390000000  0.5719440000000  0.5380980000000 1.0
C      1  0.5034730000000  0.3644180000000  0.5410380000000 1.0
C      1  0.6084540000000  0.5622410000000  0.5405060000000 1.0
C      1  0.3852570000000  0.3030770000000  0.4549320000000 1.0
C      1  0.7158830000000  0.4838320000000  0.4537830000000 1.0
C      1  0.4129970000000  0.7031390000000  0.4519380000000 1.0
C      1  0.3858150000000  0.3024600000000  0.5478940000000 1.0
C      1  0.7160810000000  0.4839990000000  0.5458430000000 1.0
C      1  0.4135590000000  0.7030020000000  0.5494980000000 1.0
C      1  0.6472030000000  0.3373930000000  0.6131070000000 1.0
C      1  0.5785040000000  0.7082950000000  0.6045990000000 1.0
C      1  0.3062040000000  0.4620870000000  0.5577290000000 1.0
C      1  0.6462560000000  0.3371720000000  0.3870310000000 1.0
C      1  0.5781040000000  0.7082340000000  0.3962150000000 1.0
C      1  0.2999190000000  0.4621860000000  0.4437230000000 1.0
C      1  0.7175490000000  0.5562490000000  0.6159840000000 1.0
C      1  0.3365590000000  0.6612640000000  0.5922350000000 1.0
C      1  0.4610810000000  0.2538430000000  0.6010220000000 1.0
C      1  0.7169300000000  0.5559920000000  0.3835650000000 1.0
C      1  0.3352500000000  0.6630620000000  0.4090640000000 1.0
C      1  0.4598960000000  0.2542830000000  0.4006890000000 1.0
C      1  0.6155480000000  0.7696530000000  0.4549030000000 1.0
C      1  0.1865760000000  0.4559060000000  0.4423610000000 1.0
C      1  0.6880160000000  0.2944830000000  0.4547550000000 1.0
C      1  0.6156510000000  0.7697000000000  0.5456170000000 1.0
C      1  0.2014700000000  0.4573870000000  0.5330230000000 1.0
C      1  0.6884010000000  0.2946100000000  0.5451100000000 1.0
C      1  0.5805920000000  0.4623220000000  0.2991560000000 1.0
C      1  0.4724270000000  0.6121480000000  0.3087510000000 1.0
C      1  0.4065600000000  0.4366520000000  0.3108560000000 1.0
C      1  0.5818620000000  0.4623230000000  0.7015790000000 1.0
C      1  0.4734420000000  0.6120420000000  0.6930360000000 1.0
C      1  0.4073310000000  0.4354910000000  0.6926160000000 1.0
C      1  0.6712260000000  0.5281020000000  0.7097090000000 1.0
C      1  0.3629090000000  0.6384980000000  0.6894880000000 1.0
C      1  0.4229690000000  0.3275670000000  0.6728990000000 1.0
C      1  0.6698720000000  0.5278940000000  0.2902030000000 1.0
C      1  0.3621960000000  0.6394810000000  0.3121380000000 1.0
C      1  0.4211310000000  0.3285300000000  0.3295930000000 1.0
C      1  0.6253340000000  0.6213130000000  0.6274390000000 1.0
C      1  0.3452050000000  0.5481080000000  0.5943390000000 1.0
C      1  0.5477010000000  0.3221950000000  0.6286170000000 1.0
C      1  0.6248200000000  0.6212990000000  0.3727180000000 1.0
C      1  0.3370710000000  0.5493380000000  0.4056900000000 1.0
C      1  0.5465290000000  0.3220210000000  0.3725600000000 1.0
END
