TITL C-986973-6940-334 -3.20015655756327e-06 3375 -337.539768996059 0 0 60 (S10) n - 1
REM
REM in /home/bkarasulu/work/CARBON/AIRSS/Generating-Clusters/REBO/Higher-Symm/Only-C60
REM
REM
REM
REM
REM
REM ./C.cell (a2850807a9bf4ad07a5b6933b78d9264)
REM AIRSS Version 0.9.1 bugfix July 2018 build 013d7b7c2542+ Fri, 06 Jul 2018 19:26:36 +0100
REM compiler GCC version 9.2.1 20190827 (Red Hat 9.2.1-1)
REM options -cpp -mtune=generic -march=x86-64 -g -O0 -fpre-include=/usr/include/finclude/math-vector-fortran.h
REM seed 1256727501 350969882 -995061861 -270289703 72571908 -650437020 930451429 -1930109894 379441712 1469496360 528032286 1283237180 28667554 1284957168 -1609076209 -341418784 730181238 1161005227 292829378 861910702 1394759923 116567313 -603001468 -2002491413 -84475469 -461334947 1160406510 1838054448 -603655777 -551050450 -32741483 1720564412 -662320550
REM
CELL 1.54180   15.00000   15.00000   15.00000   90.00000   90.00000   90.00000
LATT -1
SFAC C  
C      1  0.6098970000000  0.6378830000000  0.3372980000000 1.0
C      1  0.3901090000000  0.5159240000000  0.2873240000000 1.0
C      1  0.6098860000000  0.3878670000000  0.3185830000000 1.0
C      1  0.3901000000000  0.3026560000000  0.4191400000000 1.0
C      1  0.6098820000000  0.2928090000000  0.5505800000000 1.0
C      1  0.3901030000000  0.3621170000000  0.6627020000000 1.0
C      1  0.6098910000000  0.4840760000000  0.7126760000000 1.0
C      1  0.3901140000000  0.6121330000000  0.6814170000000 1.0
C      1  0.6099000000000  0.6973440000000  0.5808600000000 1.0
C      1  0.3901180000000  0.7071910000000  0.4494200000000 1.0
C      1  0.4918220000000  0.3395610000000  0.6557110000000 1.0
C      1  0.5081710000000  0.4617270000000  0.7202760000000 1.0
C      1  0.4918330000000  0.5985110000000  0.7007040000000 1.0
C      1  0.5081800000000  0.6976680000000  0.6044680000000 1.0
C      1  0.4918380000000  0.7213240000000  0.4683320000000 1.0
C      1  0.5081780000000  0.6604390000000  0.3442890000000 1.0
C      1  0.4918290000000  0.5382730000000  0.2797240000000 1.0
C      1  0.5081670000000  0.4014890000000  0.2992960000000 1.0
C      1  0.4918200000000  0.3023320000000  0.3955320000000 1.0
C      1  0.5081620000000  0.2786760000000  0.5316680000000 1.0
C      1  0.7300360000000  0.2962550000000  0.3780520000000 1.0
C      1  0.2699460000000  0.2635060000000  0.5210970000000 1.0
C      1  0.7300360000000  0.3210550000000  0.6560800000000 1.0
C      1  0.2699540000000  0.4469880000000  0.7314480000000 1.0
C      1  0.7300480000000  0.5931390000000  0.7184080000000 1.0
C      1  0.2699640000000  0.7037450000000  0.6219480000000 1.0
C      1  0.7300540000000  0.7364940000000  0.4789030000000 1.0
C      1  0.2699640000000  0.6789450000000  0.3439200000000 1.0
C      1  0.7300460000000  0.5530120000000  0.2685520000000 1.0
C      1  0.2699520000000  0.4068610000000  0.2815920000000 1.0
C      1  0.6766310000000  0.4305880000000  0.4572450000000 1.0
C      1  0.3233630000000  0.4187270000000  0.5062080000000 1.0
C      1  0.6766310000000  0.4378840000000  0.5527960000000 1.0
C      1  0.3233660000000  0.4807930000000  0.5792210000000 1.0
C      1  0.6766350000000  0.5310130000000  0.5753830000000 1.0
C      1  0.3233690000000  0.5694120000000  0.5427550000000 1.0
C      1  0.6766370000000  0.5812730000000  0.4937920000000 1.0
C      1  0.3233690000000  0.5621160000000  0.4472040000000 1.0
C      1  0.6766340000000  0.5192070000000  0.4207790000000 1.0
C      1  0.3233650000000  0.4689870000000  0.4246170000000 1.0
C      1  0.4186420000000  0.6154640000000  0.3221920000000 1.0
C      1  0.5813620000000  0.4888940000000  0.2882840000000 1.0
C      1  0.4186330000000  0.3665770000000  0.3352450000000 1.0
C      1  0.5813540000000  0.2952120000000  0.4451350000000 1.0
C      1  0.4186310000000  0.3020810000000  0.5759830000000 1.0
C      1  0.5813580000000  0.3845360000000  0.6778080000000 1.0
C      1  0.4186380000000  0.5111060000000  0.7117160000000 1.0
C      1  0.5813670000000  0.6334230000000  0.6647550000000 1.0
C      1  0.4186460000000  0.7047880000000  0.5548650000000 1.0
C      1  0.5813690000000  0.6979190000000  0.4240170000000 1.0
C      1  0.6542120000000  0.3480700000000  0.3984570000000 1.0
C      1  0.3457740000000  0.3174130000000  0.5071500000000 1.0
C      1  0.6542130000000  0.3564750000000  0.6131090000000 1.0
C      1  0.3457800000000  0.4503810000000  0.6758660000000 1.0
C      1  0.6542210000000  0.5632170000000  0.6714460000000 1.0
C      1  0.3457880000000  0.6519300000000  0.6015430000000 1.0
C      1  0.6542260000000  0.6825870000000  0.4928500000000 1.0
C      1  0.3457870000000  0.6435250000000  0.3868910000000 1.0
C      1  0.6542200000000  0.5496190000000  0.3241340000000 1.0
C      1  0.3457790000000  0.4367830000000  0.3285540000000 1.0
END
