TITL C-986975-4297-1030 -4.76389185501165e-06 3375 -345.901247108342 0 0 60 (C1) n - 1
REM
REM in /home/bkarasulu/work/CARBON/AIRSS/Generating-Clusters/REBO/Higher-Symm/Only-C60
REM
REM
REM
REM
REM
REM ./C.cell (a2850807a9bf4ad07a5b6933b78d9264)
REM AIRSS Version 0.9.1 bugfix July 2018 build 013d7b7c2542+ Fri, 06 Jul 2018 19:26:36 +0100
REM compiler GCC version 9.2.1 20190827 (Red Hat 9.2.1-1)
REM options -cpp -mtune=generic -march=x86-64 -g -O0 -fpre-include=/usr/include/finclude/math-vector-fortran.h
REM seed -1337237623 -255220442 -1833484351 -922093612 -727594340 -617665265 867664065 1849365231 -1066245911 -1546623470 -87402448 911229804 412287951 -398439276 -1280624663 532159549 -1699309403 1880073683 -1797768479 -298358842 1651395494 -1065800790 1965024913 1624712339 1152607562 119539863 758155047 1977364834 303186939 721255807 1078689867 -1135069743 1209238456
REM
CELL 1.54180   15.00000   15.00000   15.00000   90.00000   90.00000   90.00000
LATT -1
SFAC C  
C      1  0.4717950000000  0.7283610000000  0.4123910000000 1.0
C      1  0.7052200000000  0.4187090000000  0.4329540000000 1.0
C      1  0.3185570000000  0.3500840000000  0.4134510000000 1.0
C      1  0.3623580000000  0.6613680000000  0.5213710000000 1.0
C      1  0.7085680000000  0.5561320000000  0.5224040000000 1.0
C      1  0.4342730000000  0.2889670000000  0.5104380000000 1.0
C      1  0.3627890000000  0.4548390000000  0.7576830000000 1.0
C      1  0.5191710000000  0.6399680000000  0.7831370000000 1.0
C      1  0.6040380000000  0.4133840000000  0.7279870000000 1.0
C      1  0.2991440000000  0.5032800000000  0.3794090000000 1.0
C      1  0.6120950000000  0.6722310000000  0.3468110000000 1.0
C      1  0.5931690000000  0.3190470000000  0.3663240000000 1.0
C      1  0.5443730000000  0.4560450000000  0.2821820000000 1.0
C      1  0.4380330000000  0.4923990000000  0.2848580000000 1.0
C      1  0.5197280000000  0.5632340000000  0.2684020000000 1.0
C      1  0.4523310000000  0.6774090000000  0.5619050000000 1.0
C      1  0.6582810000000  0.4811620000000  0.5731130000000 1.0
C      1  0.3601230000000  0.3267180000000  0.5701750000000 1.0
C      1  0.5100010000000  0.7176280000000  0.4996280000000 1.0
C      1  0.6670790000000  0.4020950000000  0.5202900000000 1.0
C      1  0.3050530000000  0.3899620000000  0.5137360000000 1.0
C      1  0.5078710000000  0.3684280000000  0.5272940000000 1.0
C      1  0.4015790000000  0.5571420000000  0.5400320000000 1.0
C      1  0.6053630000000  0.5891670000000  0.5189980000000 1.0
C      1  0.5252990000000  0.7112660000000  0.3287140000000 1.0
C      1  0.6692800000000  0.3761730000000  0.3476020000000 1.0
C      1  0.3058120000000  0.4158690000000  0.3378810000000 1.0
C      1  0.6077140000000  0.6186380000000  0.7601630000000 1.0
C      1  0.5385870000000  0.3513770000000  0.6931460000000 1.0
C      1  0.3512110000000  0.5419380000000  0.7307890000000 1.0
C      1  0.6517120000000  0.7089800000000  0.4247760000000 1.0
C      1  0.6042580000000  0.2723260000000  0.4485700000000 1.0
C      1  0.2662670000000  0.4874090000000  0.4671150000000 1.0
C      1  0.4171070000000  0.2614920000000  0.4254640000000 1.0
C      1  0.3444730000000  0.6935830000000  0.4380600000000 1.0
C      1  0.7509320000000  0.5435030000000  0.4428350000000 1.0
C      1  0.4730660000000  0.6530430000000  0.2680940000000 1.0
C      1  0.6442970000000  0.4465830000000  0.2808820000000 1.0
C      1  0.3809550000000  0.4106630000000  0.2731410000000 1.0
C      1  0.4481720000000  0.5305600000000  0.4529400000000 1.0
C      1  0.5576830000000  0.5382590000000  0.4425800000000 1.0
C      1  0.5058720000000  0.4371040000000  0.4507450000000 1.0
C      1  0.3939520000000  0.5507300000000  0.3675230000000 1.0
C      1  0.6002340000000  0.5648320000000  0.3483960000000 1.0
C      1  0.5077980000000  0.3846330000000  0.3593740000000 1.0
C      1  0.6113190000000  0.5244720000000  0.7082010000000 1.0
C      1  0.4346650000000  0.3747300000000  0.7288750000000 1.0
C      1  0.4403790000000  0.5986190000000  0.7135480000000 1.0
C      1  0.4649920000000  0.5487530000000  0.8127590000000 1.0
C      1  0.5544990000000  0.4831440000000  0.7975820000000 1.0
C      1  0.4546700000000  0.4376150000000  0.8186830000000 1.0
C      1  0.4019290000000  0.6571770000000  0.3540640000000 1.0
C      1  0.6935650000000  0.5065560000000  0.3599670000000 1.0
C      1  0.4121160000000  0.3363080000000  0.3487930000000 1.0
C      1  0.4755740000000  0.5886830000000  0.6201830000000 1.0
C      1  0.5715750000000  0.5451220000000  0.6126710000000 1.0
C      1  0.4514120000000  0.3577110000000  0.6224090000000 1.0
C      1  0.6003910000000  0.6878390000000  0.5018710000000 1.0
C      1  0.6018860000000  0.3321550000000  0.5232950000000 1.0
C      1  0.3253570000000  0.4943940000000  0.5533330000000 1.0
END
