TITL C-986975-4297-642 1.87375310664699e-05 3375 -353.297745594166 0 0 60 (C1) n - 1
REM
REM in /home/bkarasulu/work/CARBON/AIRSS/Generating-Clusters/REBO/Higher-Symm/Only-C60
REM
REM
REM
REM
REM
REM ./C.cell (a2850807a9bf4ad07a5b6933b78d9264)
REM AIRSS Version 0.9.1 bugfix July 2018 build 013d7b7c2542+ Fri, 06 Jul 2018 19:26:36 +0100
REM compiler GCC version 9.2.1 20190827 (Red Hat 9.2.1-1)
REM options -cpp -mtune=generic -march=x86-64 -g -O0 -fpre-include=/usr/include/finclude/math-vector-fortran.h
REM seed 1377068919 -1682983253 -392188844 1166408963 -1420770180 1088022524 -402575804 545892728 -1899968642 -101980135 41655488 1335175393 364891999 453196382 -1678326461 2126745663 -1036886929 -307322957 -531468784 1454025449 -1905156895 -1575051508 117548659 -1345464218 -2024789647 1912401211 -1481752750 -482481569 -1322047160 -1098269023 1066611775 333571345 528340296
REM
CELL 1.54180   15.00000   15.00000   15.00000   90.00000   90.00000   90.00000
LATT -1
SFAC C  
C      1  0.3002100000000  0.5677140000000  0.4090610000000 1.0
C      1  0.5266290000000  0.5818230000000  0.2721190000000 1.0
C      1  0.7227570000000  0.5791390000000  0.4421340000000 1.0
C      1  0.6140480000000  0.5739140000000  0.6878760000000 1.0
C      1  0.3472990000000  0.5737780000000  0.6862530000000 1.0
C      1  0.6036790000000  0.3472190000000  0.6106740000000 1.0
C      1  0.4196640000000  0.3429220000000  0.6519520000000 1.0
C      1  0.3677680000000  0.3698690000000  0.4861800000000 1.0
C      1  0.4869980000000  0.3375390000000  0.3266440000000 1.0
C      1  0.6485430000000  0.3430410000000  0.4271080000000 1.0
C      1  0.5490380000000  0.5086340000000  0.5733540000000 1.0
C      1  0.4427540000000  0.4924750000000  0.5777740000000 1.0
C      1  0.4103030000000  0.5099250000000  0.4767880000000 1.0
C      1  0.4930850000000  0.4900220000000  0.4105530000000 1.0
C      1  0.5814660000000  0.4900980000000  0.4707260000000 1.0
C      1  0.2631360000000  0.5632840000000  0.6400130000000 1.0
C      1  0.3233750000000  0.5549720000000  0.3211490000000 1.0
C      1  0.6212000000000  0.5673300000000  0.2764670000000 1.0
C      1  0.7489760000000  0.5647330000000  0.5344590000000 1.0
C      1  0.5453460000000  0.5577940000000  0.7527260000000 1.0
C      1  0.4500880000000  0.7267390000000  0.5715330000000 1.0
C      1  0.4169480000000  0.7215690000000  0.4795160000000 1.0
C      1  0.4928490000000  0.7291200000000  0.4177980000000 1.0
C      1  0.5744210000000  0.7285350000000  0.4713130000000 1.0
C      1  0.5475140000000  0.7210220000000  0.5652830000000 1.0
C      1  0.4316490000000  0.5830220000000  0.3933180000000 1.0
C      1  0.5646920000000  0.5783450000000  0.3994630000000 1.0
C      1  0.6170220000000  0.5826700000000  0.5218790000000 1.0
C      1  0.4861190000000  0.5799750000000  0.6356550000000 1.0
C      1  0.3781570000000  0.5834230000000  0.5576610000000 1.0
C      1  0.4908700000000  0.3486520000000  0.7088640000000 1.0
C      1  0.3164010000000  0.4262170000000  0.5621440000000 1.0
C      1  0.3978640000000  0.3563200000000  0.3134900000000 1.0
C      1  0.6430230000000  0.3566880000000  0.3368790000000 1.0
C      1  0.6877650000000  0.3571350000000  0.5765070000000 1.0
C      1  0.4391320000000  0.3146490000000  0.5586870000000 1.0
C      1  0.4199220000000  0.2754670000000  0.4574470000000 1.0
C      1  0.4994590000000  0.2837080000000  0.4036420000000 1.0
C      1  0.5734770000000  0.2995760000000  0.4626570000000 1.0
C      1  0.5429660000000  0.3116920000000  0.5512720000000 1.0
C      1  0.6967470000000  0.4933870000000  0.4043790000000 1.0
C      1  0.6515420000000  0.4894700000000  0.6552790000000 1.0
C      1  0.3957920000000  0.4907330000000  0.7022300000000 1.0
C      1  0.2847240000000  0.4763660000000  0.4635290000000 1.0
C      1  0.4819150000000  0.4960800000000  0.2782800000000 1.0
C      1  0.3507460000000  0.4202780000000  0.3896300000000 1.0
C      1  0.5562470000000  0.4166240000000  0.3038260000000 1.0
C      1  0.6955210000000  0.4188710000000  0.4855300000000 1.0
C      1  0.5725410000000  0.4169790000000  0.6840330000000 1.0
C      1  0.3624810000000  0.4159160000000  0.6515500000000 1.0
C      1  0.4076520000000  0.6545720000000  0.6375470000000 1.0
C      1  0.3626530000000  0.6335490000000  0.4647110000000 1.0
C      1  0.4953110000000  0.6526300000000  0.3476810000000 1.0
C      1  0.6397110000000  0.6511700000000  0.4398330000000 1.0
C      1  0.5813720000000  0.6331980000000  0.6077340000000 1.0
C      1  0.6411450000000  0.4887240000000  0.3284140000000 1.0
C      1  0.7032310000000  0.4886660000000  0.5753620000000 1.0
C      1  0.4891370000000  0.4818520000000  0.7268330000000 1.0
C      1  0.2516420000000  0.5120850000000  0.5662150000000 1.0
C      1  0.3932720000000  0.4880980000000  0.3083840000000 1.0
END
