TITL C-986978-6805-325 0.0181774382319499 3375 -339.254740123947 0 0 60 (C1) n - 1
REM
REM in /home/bkarasulu/work/CARBON/AIRSS/Generating-Clusters/REBO/Higher-Symm/Only-C60
REM
REM
REM
REM
REM
REM ./C.cell (a2850807a9bf4ad07a5b6933b78d9264)
REM AIRSS Version 0.9.1 bugfix July 2018 build 013d7b7c2542+ Fri, 06 Jul 2018 19:26:36 +0100
REM compiler GCC version 9.2.1 20190827 (Red Hat 9.2.1-1)
REM options -cpp -mtune=generic -march=x86-64 -g -O0 -fpre-include=/usr/include/finclude/math-vector-fortran.h
REM seed 315009950 -904333866 616620304 1382111111 1691448643 -528138255 -450547789 -479816752 1835323994 -378964601 1765392256 1274356196 471794621 1429357165 1195882053 -1066709655 -508377004 -2088705316 -974301820 631557409 2059612602 1410562293 401309919 -1757861953 1457945913 390587105 -50986354 783207577 2111183522 -1748672629 155197604 323440898 1088552655
REM
CELL 1.54180   15.00000   15.00000   15.00000   90.00000   90.00000   90.00000
LATT -1
SFAC C  
C      1  0.5220890000000  0.7146390000000  0.6434060000000 1.0
C      1  0.5184310000000  0.2965810000000  0.3837980000000 1.0
C      1  0.6183150000000  0.3831950000000  0.2930750000000 1.0
C      1  0.6344520000000  0.5616110000000  0.6660410000000 1.0
C      1  0.4948930000000  0.2642680000000  0.4820030000000 1.0
C      1  0.4812260000000  0.7446410000000  0.5545800000000 1.0
C      1  0.3623510000000  0.4374780000000  0.6164690000000 1.0
C      1  0.3471550000000  0.5630340000000  0.3755940000000 1.0
C      1  0.7302070000000  0.5840590000000  0.4025910000000 1.0
C      1  0.7277960000000  0.4534660000000  0.5655970000000 1.0
C      1  0.4024070000000  0.4186960000000  0.4228620000000 1.0
C      1  0.4427220000000  0.5709300000000  0.5595570000000 1.0
C      1  0.5424050000000  0.2965860000000  0.5748140000000 1.0
C      1  0.5235400000000  0.7263290000000  0.4519740000000 1.0
C      1  0.3211100000000  0.3406320000000  0.4393710000000 1.0
C      1  0.3245950000000  0.6677470000000  0.5351230000000 1.0
C      1  0.5741880000000  0.3975470000000  0.5694130000000 1.0
C      1  0.5869780000000  0.6421660000000  0.4498430000000 1.0
C      1  0.5608490000000  0.4818080000000  0.6907400000000 1.0
C      1  0.5807340000000  0.4748840000000  0.2777500000000 1.0
C      1  0.4594560000000  0.6778080000000  0.7003990000000 1.0
C      1  0.4524880000000  0.3272300000000  0.3284390000000 1.0
C      1  0.4941930000000  0.4186210000000  0.7343830000000 1.0
C      1  0.5071760000000  0.5549650000000  0.3094680000000 1.0
C      1  0.2815500000000  0.4970990000000  0.3974320000000 1.0
C      1  0.2954850000000  0.5143720000000  0.5910230000000 1.0
C      1  0.3724610000000  0.7490980000000  0.5555260000000 1.0
C      1  0.3878580000000  0.2666770000000  0.4936940000000 1.0
C      1  0.4755470000000  0.4339680000000  0.6009090000000 1.0
C      1  0.5339630000000  0.5631800000000  0.4156090000000 1.0
C      1  0.5191880000000  0.6590090000000  0.2948060000000 1.0
C      1  0.4986480000000  0.3292300000000  0.7280740000000 1.0
C      1  0.4504540000000  0.6527480000000  0.4956910000000 1.0
C      1  0.4706290000000  0.3707640000000  0.4906270000000 1.0
C      1  0.6494510000000  0.4562350000000  0.6241550000000 1.0
C      1  0.6754760000000  0.6477550000000  0.3967800000000 1.0
C      1  0.6105070000000  0.6082150000000  0.5440750000000 1.0
C      1  0.6117540000000  0.4049150000000  0.4626700000000 1.0
C      1  0.6020100000000  0.6640910000000  0.6354910000000 1.0
C      1  0.5985750000000  0.3442370000000  0.3781560000000 1.0
C      1  0.2916750000000  0.4075190000000  0.3527010000000 1.0
C      1  0.3225050000000  0.6029970000000  0.6067030000000 1.0
C      1  0.3675430000000  0.3679690000000  0.5408550000000 1.0
C      1  0.3577580000000  0.6301880000000  0.4412470000000 1.0
C      1  0.4107220000000  0.5948050000000  0.6663180000000 1.0
C      1  0.3952150000000  0.4180300000000  0.3111300000000 1.0
C      1  0.4282850000000  0.4925800000000  0.6857440000000 1.0
C      1  0.4109690000000  0.5236250000000  0.3146350000000 1.0
C      1  0.5217430000000  0.7242880000000  0.3464980000000 1.0
C      1  0.5192960000000  0.2720050000000  0.6594940000000 1.0
C      1  0.5866960000000  0.4769720000000  0.3818350000000 1.0
C      1  0.5341670000000  0.5531710000000  0.6061810000000 1.0
C      1  0.7175130000000  0.5049670000000  0.4653800000000 1.0
C      1  0.8092890000000  0.4504140000000  0.4989060000000 1.0
C      1  0.6124520000000  0.5087270000000  0.5078450000000 1.0
C      1  0.2144460000000  0.4051670000000  0.5081230000000 1.0
C      1  0.2762250000000  0.4755230000000  0.4974480000000 1.0
C      1  0.8927810000000  0.4245660000000  0.4794970000000 1.0
C      1  0.3903980000000  0.4951830000000  0.5000410000000 1.0
C      1  0.5038790000000  0.4792290000000  0.4857460000000 1.0
END
