TITL C-986976-6631-816 -1.56855050597518e-05 3375 -349.800803385789 0 0 60 (C2) n - 1
REM
REM in /home/bkarasulu/work/CARBON/AIRSS/Generating-Clusters/REBO/Higher-Symm/Only-C60
REM
REM
REM
REM
REM
REM ./C.cell (a2850807a9bf4ad07a5b6933b78d9264)
REM AIRSS Version 0.9.1 bugfix July 2018 build 013d7b7c2542+ Fri, 06 Jul 2018 19:26:36 +0100
REM compiler GCC version 9.2.1 20190827 (Red Hat 9.2.1-1)
REM options -cpp -mtune=generic -march=x86-64 -g -O0 -fpre-include=/usr/include/finclude/math-vector-fortran.h
REM seed 546824555 -383744525 650064352 -1718888447 1263504193 490665098 94593622 1909359045 1920407914 620421427 -1358404289 -1895527989 2072831756 110111455 1933880004 -1431453691 2053386229 26390022 -2109043026 -1349197027 602660697 1286632595 -1167938766 630960156 1929423301 1754755639 -1995715126 -546681779 1862104501 -1141618263 -900583233 731248667 -906092693
REM
CELL 1.54180   15.00000   15.00000   15.00000   90.00000   90.00000   90.00000
LATT -1
SFAC C  
C      1  0.6038800000000  0.2604820000000  0.5194320000000 1.0
C      1  0.4000290000000  0.2654130000000  0.4680230000000 1.0
C      1  0.6038790000000  0.7395180000000  0.4805650000000 1.0
C      1  0.4000290000000  0.7345870000000  0.5319790000000 1.0
C      1  0.5323620000000  0.2642950000000  0.6003580000000 1.0
C      1  0.4808920000000  0.2615250000000  0.3964470000000 1.0
C      1  0.4808930000000  0.7384750000000  0.6035530000000 1.0
C      1  0.5323590000000  0.7357050000000  0.3996420000000 1.0
C      1  0.5383070000000  0.6396370000000  0.3085450000000 1.0
C      1  0.4521200000000  0.6400780000000  0.6859190000000 1.0
C      1  0.5383110000000  0.3603630000000  0.6914540000000 1.0
C      1  0.4521160000000  0.3599220000000  0.3140820000000 1.0
C      1  0.3097890000000  0.6376700000000  0.5371430000000 1.0
C      1  0.6870620000000  0.6420480000000  0.4509880000000 1.0
C      1  0.6870640000000  0.3579530000000  0.5490080000000 1.0
C      1  0.3097890000000  0.3623300000000  0.4628610000000 1.0
C      1  0.4735800000000  0.4600820000000  0.3976340000000 1.0
C      1  0.5302890000000  0.4579460000000  0.6022250000000 1.0
C      1  0.4735820000000  0.5399180000000  0.6023670000000 1.0
C      1  0.5302860000000  0.5420540000000  0.3977740000000 1.0
C      1  0.3999410000000  0.4590390000000  0.4713760000000 1.0
C      1  0.6044800000000  0.4590100000000  0.5280970000000 1.0
C      1  0.6044790000000  0.5409910000000  0.4719000000000 1.0
C      1  0.3999420000000  0.5409600000000  0.5286260000000 1.0
C      1  0.3890950000000  0.2806500000000  0.3362280000000 1.0
C      1  0.5999710000000  0.2797780000000  0.6899840000000 1.0
C      1  0.3890980000000  0.7193490000000  0.6637740000000 1.0
C      1  0.5999660000000  0.7202220000000  0.3100140000000 1.0
C      1  0.3105250000000  0.2822010000000  0.4005900000000 1.0
C      1  0.6642780000000  0.2783610000000  0.6113760000000 1.0
C      1  0.6642750000000  0.7216400000000  0.3886210000000 1.0
C      1  0.3105270000000  0.7177990000000  0.5994150000000 1.0
C      1  0.4055930000000  0.1873250000000  0.5346670000000 1.0
C      1  0.6021480000000  0.1817670000000  0.4568630000000 1.0
C      1  0.4055910000000  0.8126750000000  0.4653350000000 1.0
C      1  0.6021480000000  0.8182330000000  0.5431350000000 1.0
C      1  0.5428090000000  0.1822830000000  0.3974970000000 1.0
C      1  0.4650680000000  0.1868150000000  0.5941420000000 1.0
C      1  0.4650640000000  0.8131850000000  0.4058590000000 1.0
C      1  0.5428110000000  0.8177170000000  0.6025020000000 1.0
C      1  0.4046850000000  0.3618700000000  0.5259210000000 1.0
C      1  0.6034460000000  0.3614150000000  0.4703890000000 1.0
C      1  0.4046840000000  0.6381300000000  0.4740810000000 1.0
C      1  0.6034470000000  0.6385850000000  0.5296090000000 1.0
C      1  0.5307120000000  0.3621100000000  0.3977430000000 1.0
C      1  0.4752420000000  0.3612380000000  0.5965460000000 1.0
C      1  0.4752400000000  0.6387620000000  0.4034550000000 1.0
C      1  0.5307140000000  0.6378900000000  0.6022570000000 1.0
C      1  0.6975930000000  0.4487410000000  0.5903340000000 1.0
C      1  0.3033590000000  0.4518130000000  0.4173970000000 1.0
C      1  0.6975910000000  0.5512590000000  0.4096620000000 1.0
C      1  0.3033600000000  0.5481860000000  0.5826060000000 1.0
C      1  0.5844130000000  0.4495320000000  0.6985560000000 1.0
C      1  0.4115070000000  0.4510620000000  0.3042240000000 1.0
C      1  0.4115110000000  0.5489380000000  0.6957780000000 1.0
C      1  0.5844080000000  0.5504680000000  0.3014420000000 1.0
C      1  0.3195830000000  0.5334980000000  0.6753730000000 1.0
C      1  0.6772470000000  0.5363320000000  0.3176560000000 1.0
C      1  0.6772510000000  0.4636680000000  0.6823400000000 1.0
C      1  0.3195800000000  0.4665020000000  0.3246300000000 1.0
END
