TITL C-986975-4297-473 8.70858367646931e-06 3375 -348.086589851109 0 0 60 (C1) n - 1
REM
REM in /home/bkarasulu/work/CARBON/AIRSS/Generating-Clusters/REBO/Higher-Symm/Only-C60
REM
REM
REM
REM
REM
REM ./C.cell (a2850807a9bf4ad07a5b6933b78d9264)
REM AIRSS Version 0.9.1 bugfix July 2018 build 013d7b7c2542+ Fri, 06 Jul 2018 19:26:36 +0100
REM compiler GCC version 9.2.1 20190827 (Red Hat 9.2.1-1)
REM options -cpp -mtune=generic -march=x86-64 -g -O0 -fpre-include=/usr/include/finclude/math-vector-fortran.h
REM seed -1408766719 -307072029 -1838264455 133252908 -1466604297 -536933413 -496416711 -1142486243 1815624168 683915139 -1645126173 1556436799 1225910634 -556788378 40586053 -507077369 -1140740953 662021109 1923996599 -1573322963 -1137248335 -1144064857 -633171681 -1029885688 1266835184 940043964 880427166 1022150359 -1927294348 -120401172 -359330894 -1131506366 -872677845
REM
CELL 1.54180   15.00000   15.00000   15.00000   90.00000   90.00000   90.00000
LATT -1
SFAC C  
C      1  0.5298730000000  0.6703510000000  0.6203770000000 1.0
C      1  0.5407580000000  0.3239310000000  0.6175570000000 1.0
C      1  0.5306500000000  0.7276620000000  0.5436200000000 1.0
C      1  0.5343810000000  0.2653580000000  0.5422830000000 1.0
C      1  0.3809410000000  0.6949100000000  0.5955720000000 1.0
C      1  0.3860520000000  0.3161610000000  0.5966690000000 1.0
C      1  0.6111150000000  0.4470740000000  0.6521070000000 1.0
C      1  0.6058840000000  0.5475680000000  0.6530090000000 1.0
C      1  0.7055540000000  0.4083770000000  0.6391140000000 1.0
C      1  0.6978920000000  0.5898380000000  0.6385160000000 1.0
C      1  0.5832370000000  0.6154270000000  0.3324190000000 1.0
C      1  0.5817300000000  0.3910610000000  0.3484410000000 1.0
C      1  0.3512800000000  0.6125110000000  0.6216530000000 1.0
C      1  0.3612600000000  0.4008760000000  0.6209710000000 1.0
C      1  0.4353290000000  0.7342410000000  0.5065320000000 1.0
C      1  0.4379490000000  0.2675530000000  0.5099560000000 1.0
C      1  0.5426920000000  0.4186990000000  0.5708440000000 1.0
C      1  0.5276340000000  0.5738910000000  0.5767900000000 1.0
C      1  0.5280330000000  0.6027840000000  0.7061340000000 1.0
C      1  0.5319910000000  0.3910750000000  0.7006450000000 1.0
C      1  0.4814450000000  0.4485740000000  0.7561190000000 1.0
C      1  0.4781770000000  0.5414210000000  0.7587520000000 1.0
C      1  0.2882090000000  0.6255290000000  0.4629510000000 1.0
C      1  0.2941760000000  0.3831180000000  0.4676320000000 1.0
C      1  0.4312520000000  0.4189950000000  0.4257580000000 1.0
C      1  0.4146560000000  0.5887580000000  0.4428190000000 1.0
C      1  0.4039920000000  0.3741650000000  0.3263580000000 1.0
C      1  0.4071110000000  0.6178310000000  0.3340150000000 1.0
C      1  0.6181170000000  0.4579610000000  0.2764640000000 1.0
C      1  0.6180580000000  0.5409110000000  0.2707410000000 1.0
C      1  0.4253530000000  0.7125470000000  0.3955500000000 1.0
C      1  0.4245860000000  0.2888290000000  0.3992500000000 1.0
C      1  0.5051440000000  0.3259030000000  0.3286290000000 1.0
C      1  0.4995360000000  0.6754260000000  0.3196620000000 1.0
C      1  0.3373780000000  0.2988590000000  0.4670090000000 1.0
C      1  0.3352440000000  0.7074360000000  0.4594510000000 1.0
C      1  0.3768820000000  0.4561110000000  0.2715270000000 1.0
C      1  0.3801160000000  0.5383200000000  0.2775230000000 1.0
C      1  0.5244120000000  0.4618490000000  0.4050270000000 1.0
C      1  0.5124540000000  0.5701130000000  0.4003700000000 1.0
C      1  0.6474220000000  0.3545930000000  0.4137320000000 1.0
C      1  0.6430680000000  0.6386450000000  0.4109760000000 1.0
C      1  0.5716110000000  0.5557570000000  0.4864930000000 1.0
C      1  0.5931790000000  0.4512070000000  0.4876050000000 1.0
C      1  0.3639740000000  0.4605000000000  0.6944950000000 1.0
C      1  0.3618490000000  0.5529910000000  0.6946850000000 1.0
C      1  0.6067130000000  0.2737620000000  0.4833050000000 1.0
C      1  0.6027400000000  0.7152610000000  0.4854920000000 1.0
C      1  0.6814760000000  0.5496910000000  0.4720960000000 1.0
C      1  0.6982050000000  0.4385870000000  0.4717520000000 1.0
C      1  0.7028290000000  0.6786510000000  0.4964290000000 1.0
C      1  0.7062720000000  0.3093090000000  0.4998030000000 1.0
C      1  0.7305530000000  0.6038310000000  0.5553640000000 1.0
C      1  0.7388560000000  0.3847530000000  0.5580350000000 1.0
C      1  0.3198380000000  0.5590690000000  0.5377380000000 1.0
C      1  0.3371110000000  0.4545890000000  0.5346800000000 1.0
C      1  0.4505470000000  0.4416590000000  0.5311060000000 1.0
C      1  0.4334370000000  0.5463700000000  0.5404350000000 1.0
C      1  0.3286080000000  0.4536130000000  0.4017490000000 1.0
C      1  0.3211750000000  0.5451600000000  0.4052130000000 1.0
END
