TITL C-986974-580-738 4.45514381557736e-06 3375 -344.802095513575 0 0 60 (C1) n - 1
REM
REM in /home/bkarasulu/work/CARBON/AIRSS/Generating-Clusters/REBO/Higher-Symm/Only-C60
REM
REM
REM
REM
REM
REM ./C.cell (a2850807a9bf4ad07a5b6933b78d9264)
REM AIRSS Version 0.9.1 bugfix July 2018 build 013d7b7c2542+ Fri, 06 Jul 2018 19:26:36 +0100
REM compiler GCC version 9.2.1 20190827 (Red Hat 9.2.1-1)
REM options -cpp -mtune=generic -march=x86-64 -g -O0 -fpre-include=/usr/include/finclude/math-vector-fortran.h
REM seed -2009957694 8854763 986982015 702435116 -780038061 -1583107926 569824956 1720612305 -1725765256 1386396887 -96358506 -318114020 -564183272 -860407484 1176349964 -1209240998 -899893823 -1903032626 -1857464640 -2018729770 -110150297 895281257 10978130 -1752095118 -227265292 234651151 -297921273 545718451 -1195806284 -2027225335 -306361138 -19264959 -1053648249
REM
CELL 1.54180   15.00000   15.00000   15.00000   90.00000   90.00000   90.00000
LATT -1
SFAC C  
C      1  0.3392430000000  0.4553120000000  0.4459290000000 1.0
C      1  0.5402280000000  0.6635850000000  0.4441790000000 1.0
C      1  0.6196290000000  0.3853190000000  0.4464730000000 1.0
C      1  0.7244450000000  0.3996660000000  0.4203190000000 1.0
C      1  0.3010640000000  0.3566750000000  0.4208320000000 1.0
C      1  0.4743360000000  0.7456040000000  0.4170240000000 1.0
C      1  0.6614010000000  0.5032850000000  0.3177060000000 1.0
C      1  0.4231190000000  0.3586460000000  0.3187760000000 1.0
C      1  0.4147370000000  0.6382830000000  0.3154220000000 1.0
C      1  0.3945350000000  0.4620480000000  0.5347540000000 1.0
C      1  0.5177390000000  0.6125320000000  0.5324620000000 1.0
C      1  0.5868350000000  0.4307230000000  0.5355770000000 1.0
C      1  0.3102630000000  0.5281180000000  0.6127950000000 1.0
C      1  0.6179950000000  0.6472900000000  0.6117400000000 1.0
C      1  0.5729740000000  0.3221580000000  0.6102560000000 1.0
C      1  0.5368110000000  0.5521470000000  0.7508300000000 1.0
C      1  0.5310330000000  0.4195130000000  0.7572010000000 1.0
C      1  0.4339880000000  0.5097740000000  0.7536540000000 1.0
C      1  0.6129700000000  0.3736820000000  0.7037900000000 1.0
C      1  0.3447370000000  0.4693920000000  0.7046990000000 1.0
C      1  0.5507520000000  0.6506230000000  0.7038580000000 1.0
C      1  0.6026660000000  0.3469200000000  0.3212100000000 1.0
C      1  0.3153430000000  0.4876520000000  0.3201340000000 1.0
C      1  0.5814750000000  0.6654160000000  0.3187990000000 1.0
C      1  0.3848760000000  0.3309690000000  0.5568950000000 1.0
C      1  0.4097410000000  0.6875840000000  0.5537410000000 1.0
C      1  0.7062330000000  0.4863560000000  0.5556600000000 1.0
C      1  0.4682950000000  0.3587600000000  0.6192010000000 1.0
C      1  0.3907840000000  0.6016840000000  0.6158070000000 1.0
C      1  0.6371160000000  0.5374240000000  0.6214490000000 1.0
C      1  0.5562220000000  0.3013610000000  0.4154480000000 1.0
C      1  0.2987360000000  0.5516870000000  0.4137380000000 1.0
C      1  0.6442740000000  0.6482020000000  0.4132370000000 1.0
C      1  0.5864040000000  0.5354660000000  0.5189100000000 1.0
C      1  0.4850820000000  0.4100130000000  0.5186470000000 1.0
C      1  0.4269360000000  0.5610520000000  0.5157080000000 1.0
C      1  0.5805990000000  0.2789670000000  0.5225590000000 1.0
C      1  0.2694780000000  0.5406490000000  0.5226810000000 1.0
C      1  0.6505590000000  0.6753760000000  0.5227660000000 1.0
C      1  0.4098580000000  0.5285380000000  0.3447000000000 1.0
C      1  0.5688990000000  0.5633490000000  0.3441700000000 1.0
C      1  0.5209200000000  0.4094130000000  0.3466680000000 1.0
C      1  0.3555590000000  0.6379100000000  0.4003270000000 1.0
C      1  0.6908060000000  0.5558990000000  0.4010220000000 1.0
C      1  0.4533400000000  0.3076930000000  0.4032010000000 1.0
C      1  0.6556280000000  0.4033680000000  0.6103280000000 1.0
C      1  0.3377570000000  0.4162580000000  0.6112600000000 1.0
C      1  0.5082020000000  0.6837900000000  0.6097590000000 1.0
C      1  0.4768920000000  0.5742850000000  0.4134950000000 1.0
C      1  0.5745830000000  0.4851550000000  0.4165550000000 1.0
C      1  0.4484100000000  0.4452980000000  0.4159810000000 1.0
C      1  0.3955860000000  0.7018930000000  0.4627010000000 1.0
C      1  0.7260370000000  0.4905280000000  0.4647730000000 1.0
C      1  0.3785750000000  0.3106350000000  0.4661870000000 1.0
C      1  0.4488320000000  0.6002580000000  0.6948630000000 1.0
C      1  0.6052370000000  0.4880770000000  0.7032790000000 1.0
C      1  0.4410990000000  0.4079800000000  0.7033680000000 1.0
C      1  0.6793430000000  0.4066410000000  0.3283490000000 1.0
C      1  0.3300100000000  0.3914480000000  0.3286030000000 1.0
C      1  0.4907750000000  0.7016730000000  0.3255440000000 1.0
END
