TITL C-986978-6805-551 -7.43679109675257e-07 3375 -340.425469524463 0 0 60 (S4) n - 1
REM
REM in /home/bkarasulu/work/CARBON/AIRSS/Generating-Clusters/REBO/Higher-Symm/Only-C60
REM
REM
REM
REM
REM
REM ./C.cell (a2850807a9bf4ad07a5b6933b78d9264)
REM AIRSS Version 0.9.1 bugfix July 2018 build 013d7b7c2542+ Fri, 06 Jul 2018 19:26:36 +0100
REM compiler GCC version 9.2.1 20190827 (Red Hat 9.2.1-1)
REM options -cpp -mtune=generic -march=x86-64 -g -O0 -fpre-include=/usr/include/finclude/math-vector-fortran.h
REM seed 1984078610 -947834918 -951483148 -651997425 936365287 1829798426 -1027663627 1521824086 -432300468 900338084 -701437580 1757789503 -122972969 143669057 -1234806161 212754849 1194634747 -2114778205 -2096032139 642366106 -1176540161 -1750278805 -455417685 -1049162197 109460829 -933626364 968734036 1747033138 -613446482 -331688912 -1647227784 1337464589 1065125778
REM
CELL 1.54180   15.00000   15.00000   15.00000   90.00000   90.00000   90.00000
LATT -1
SFAC C  
C      1  0.5767140000000  0.4020950000000  0.4107280000000 1.0
C      1  0.4232860000000  0.4107280000000  0.5979050000000 1.0
C      1  0.5767140000000  0.5979050000000  0.5892720000000 1.0
C      1  0.4232860000000  0.5892720000000  0.4020950000000 1.0
C      1  0.6685240000000  0.6530850000000  0.5892680000000 1.0
C      1  0.3314760000000  0.5892680000000  0.3469150000000 1.0
C      1  0.6685240000000  0.3469150000000  0.4107320000000 1.0
C      1  0.3314760000000  0.4107320000000  0.6530850000000 1.0
C      1  0.4324390000000  0.2836690000000  0.5617810000000 1.0
C      1  0.5675610000000  0.5617810000000  0.7163310000000 1.0
C      1  0.4324390000000  0.7163310000000  0.4382190000000 1.0
C      1  0.5675610000000  0.4382190000000  0.2836690000000 1.0
C      1  0.4883240000000  0.6797280000000  0.5122270000000 1.0
C      1  0.5116760000000  0.5122270000000  0.3202720000000 1.0
C      1  0.4883240000000  0.3202720000000  0.4877730000000 1.0
C      1  0.5116760000000  0.4877730000000  0.6797280000000 1.0
C      1  0.6941240000000  0.4641160000000  0.4679600000000 1.0
C      1  0.3058760000000  0.4679600000000  0.5358840000000 1.0
C      1  0.6941240000000  0.5358840000000  0.5320400000000 1.0
C      1  0.3058760000000  0.5320400000000  0.4641160000000 1.0
C      1  0.4017260000000  0.4828190000000  0.7071400000000 1.0
C      1  0.5982740000000  0.7071400000000  0.5171810000000 1.0
C      1  0.4017260000000  0.5171810000000  0.2928600000000 1.0
C      1  0.5982740000000  0.2928600000000  0.4828190000000 1.0
C      1  0.4714320000000  0.3205370000000  0.6496300000000 1.0
C      1  0.5285680000000  0.6496300000000  0.6794630000000 1.0
C      1  0.4714320000000  0.6794630000000  0.3503700000000 1.0
C      1  0.5285680000000  0.3503700000000  0.3205370000000 1.0
C      1  0.4313350000000  0.3236620000000  0.3674990000000 1.0
C      1  0.5686650000000  0.3674990000000  0.6763380000000 1.0
C      1  0.4313350000000  0.6763380000000  0.6325010000000 1.0
C      1  0.5686650000000  0.6325010000000  0.3236620000000 1.0
C      1  0.6571180000000  0.5496200000000  0.6986910000000 1.0
C      1  0.3428820000000  0.6986910000000  0.4503800000000 1.0
C      1  0.6571180000000  0.4503800000000  0.3013090000000 1.0
C      1  0.3428820000000  0.3013090000000  0.5496200000000 1.0
C      1  0.4730230000000  0.3977010000000  0.7313800000000 1.0
C      1  0.5269770000000  0.7313800000000  0.6022990000000 1.0
C      1  0.4730230000000  0.6022990000000  0.2686200000000 1.0
C      1  0.5269770000000  0.2686200000000  0.3977010000000 1.0
C      1  0.3245450000000  0.4785040000000  0.3670370000000 1.0
C      1  0.6754550000000  0.3670370000000  0.5214960000000 1.0
C      1  0.3245450000000  0.5214960000000  0.6329630000000 1.0
C      1  0.6754550000000  0.6329630000000  0.4785040000000 1.0
C      1  0.6851120000000  0.5043640000000  0.6204910000000 1.0
C      1  0.3148880000000  0.6204910000000  0.4956360000000 1.0
C      1  0.6851120000000  0.4956360000000  0.3795090000000 1.0
C      1  0.3148880000000  0.3795090000000  0.5043640000000 1.0
C      1  0.4372000000000  0.5931530000000  0.5546740000000 1.0
C      1  0.5628000000000  0.5546740000000  0.4068470000000 1.0
C      1  0.4372000000000  0.4068470000000  0.4453260000000 1.0
C      1  0.5628000000000  0.4453260000000  0.5931530000000 1.0
C      1  0.4443760000000  0.4883440000000  0.5504760000000 1.0
C      1  0.5556240000000  0.5504760000000  0.5116560000000 1.0
C      1  0.4443760000000  0.5116560000000  0.4495240000000 1.0
C      1  0.5556240000000  0.4495240000000  0.4883440000000 1.0
C      1  0.3389300000000  0.6195850000000  0.6009380000000 1.0
C      1  0.6610700000000  0.6009380000000  0.3804150000000 1.0
C      1  0.3389300000000  0.3804150000000  0.3990620000000 1.0
C      1  0.6610700000000  0.3990620000000  0.6195850000000 1.0
END
