TITL C-986978-6805-22 0.0275435231158931 3375 -344.472987421637 0 0 60 (C1) n - 1
REM
REM in /home/bkarasulu/work/CARBON/AIRSS/Generating-Clusters/REBO/Higher-Symm/Only-C60
REM
REM
REM
REM
REM
REM ./C.cell (a2850807a9bf4ad07a5b6933b78d9264)
REM AIRSS Version 0.9.1 bugfix July 2018 build 013d7b7c2542+ Fri, 06 Jul 2018 19:26:36 +0100
REM compiler GCC version 9.2.1 20190827 (Red Hat 9.2.1-1)
REM options -cpp -mtune=generic -march=x86-64 -g -O0 -fpre-include=/usr/include/finclude/math-vector-fortran.h
REM seed 1985735829 -324973755 421091412 771689823 1036485969 221360323 752226170 685150060 2097901982 -849134643 863436726 1341841506 362619372 -2098148837 -387171131 -1767109711 1537270268 -243185086 2144729826 1756437101 1281057421 -1636515599 739663017 -1807975839 -1736998419 553016 -2101068973 -947653010 -171286192 -1116410362 1023247360 -801782517 -1960782389
REM
CELL 1.54180   15.00000   15.00000   15.00000   90.00000   90.00000   90.00000
LATT -1
SFAC C  
C      1  0.4239190000000  0.6098420000000  0.6887410000000 1.0
C      1  0.3507430000000  0.5193660000000  0.5725010000000 1.0
C      1  0.6988570000000  0.6121030000000  0.4610400000000 1.0
C      1  0.4082270000000  0.2886990000000  0.4539320000000 1.0
C      1  0.5105480000000  0.2670990000000  0.4370260000000 1.0
C      1  0.5443930000000  0.4161020000000  0.7028420000000 1.0
C      1  0.5717470000000  0.4225850000000  0.4438900000000 1.0
C      1  0.6430650000000  0.4173100000000  0.6132450000000 1.0
C      1  0.5815820000000  0.4982180000000  0.7171630000000 1.0
C      1  0.5974640000000  0.5379420000000  0.5039030000000 1.0
C      1  0.2737930000000  0.5889650000000  0.5537300000000 1.0
C      1  0.2933090000000  0.5357070000000  0.4544310000000 1.0
C      1  0.7199440000000  0.4080950000000  0.5336810000000 1.0
C      1  0.6584700000000  0.5467610000000  0.3240580000000 1.0
C      1  0.3040080000000  0.6976010000000  0.5322400000000 1.0
C      1  0.4704230000000  0.5925340000000  0.5652010000000 1.0
C      1  0.6748300000000  0.3884810000000  0.4448070000000 1.0
C      1  0.7024350000000  0.4672160000000  0.3704730000000 1.0
C      1  0.4370670000000  0.6745170000000  0.3983600000000 1.0
C      1  0.4974550000000  0.5246680000000  0.6173450000000 1.0
C      1  0.5664650000000  0.5141360000000  0.2879030000000 1.0
C      1  0.3837510000000  0.4674460000000  0.3236310000000 1.0
C      1  0.3861470000000  0.3782250000000  0.6130400000000 1.0
C      1  0.5159310000000  0.6497720000000  0.6761950000000 1.0
C      1  0.4194510000000  0.4169380000000  0.5147060000000 1.0
C      1  0.4729430000000  0.5727390000000  0.4346990000000 1.0
C      1  0.4523760000000  0.3835100000000  0.3188910000000 1.0
C      1  0.5535790000000  0.4132210000000  0.2858970000000 1.0
C      1  0.5538970000000  0.5174430000000  0.4006330000000 1.0
C      1  0.5227270000000  0.7093130000000  0.6012580000000 1.0
C      1  0.5772250000000  0.4944250000000  0.5831210000000 1.0
C      1  0.5960280000000  0.5869720000000  0.6817280000000 1.0
C      1  0.4962840000000  0.5896650000000  0.3045810000000 1.0
C      1  0.3208640000000  0.4480410000000  0.4001740000000 1.0
C      1  0.3293440000000  0.6463710000000  0.6371760000000 1.0
C      1  0.3227240000000  0.3592390000000  0.5278190000000 1.0
C      1  0.4375750000000  0.5092710000000  0.6966570000000 1.0
C      1  0.3761540000000  0.3591100000000  0.3989810000000 1.0
C      1  0.3950230000000  0.6427110000000  0.5501830000000 1.0
C      1  0.6414590000000  0.3745710000000  0.3412430000000 1.0
C      1  0.6028970000000  0.7143320000000  0.5341430000000 1.0
C      1  0.2869470000000  0.6222810000000  0.3947340000000 1.0
C      1  0.7095510000000  0.5064700000000  0.5868370000000 1.0
C      1  0.7286600000000  0.5065270000000  0.4739410000000 1.0
C      1  0.5120370000000  0.3855460000000  0.4960380000000 1.0
C      1  0.5482890000000  0.2919260000000  0.5419640000000 1.0
C      1  0.6690700000000  0.5934030000000  0.6167710000000 1.0
C      1  0.6415990000000  0.6238610000000  0.3820730000000 1.0
C      1  0.5412510000000  0.3227600000000  0.3555020000000 1.0
C      1  0.6752680000000  0.6551530000000  0.5432390000000 1.0
C      1  0.3455980000000  0.6901090000000  0.4266510000000 1.0
C      1  0.2517840000000  0.3214020000000  0.4993450000000 1.0
C      1  0.5845410000000  0.3342620000000  0.6356230000000 1.0
C      1  0.4337780000000  0.4064900000000  0.7071090000000 1.0
C      1  0.4093140000000  0.5549470000000  0.3001990000000 1.0
C      1  0.4381080000000  0.2740320000000  0.5494910000000 1.0
C      1  0.5174140000000  0.6592010000000  0.4957130000000 1.0
C      1  0.4031880000000  0.5141600000000  0.4808840000000 1.0
C      1  0.5449240000000  0.6587080000000  0.3641590000000 1.0
C      1  0.4735600000000  0.3174980000000  0.6484600000000 1.0
END
