TITL C-986973-6940-767 0.0105186202979143 3375 -347.698819804132 0 0 60 (C1) n - 1
REM
REM in /home/bkarasulu/work/CARBON/AIRSS/Generating-Clusters/REBO/Higher-Symm/Only-C60
REM
REM
REM
REM
REM
REM ./C.cell (a2850807a9bf4ad07a5b6933b78d9264)
REM AIRSS Version 0.9.1 bugfix July 2018 build 013d7b7c2542+ Fri, 06 Jul 2018 19:26:36 +0100
REM compiler GCC version 9.2.1 20190827 (Red Hat 9.2.1-1)
REM options -cpp -mtune=generic -march=x86-64 -g -O0 -fpre-include=/usr/include/finclude/math-vector-fortran.h
REM seed 1743704408 918713497 948900086 361014759 1562382714 496853681 -996686748 -906886265 -1549935918 1005954616 1465315211 1100435445 1208495986 -989618688 1720132410 -1249000950 -579391786 1665572731 1793476207 48403374 -1045428660 -1835475541 629864199 339137062 -1217262686 52159971 -1058937908 -729066261 -243917815 -321427886 -613245873 1022812599 1213108507
REM
CELL 1.54180   15.00000   15.00000   15.00000   90.00000   90.00000   90.00000
LATT -1
SFAC C  
C      1  0.2794690000000  0.3269870000000  0.5332690000000 1.0
C      1  0.4600460000000  0.7728110000000  0.5317200000000 1.0
C      1  0.7527500000000  0.4026000000000  0.5284710000000 1.0
C      1  0.6979470000000  0.5962050000000  0.5928230000000 1.0
C      1  0.4823850000000  0.2849340000000  0.5893570000000 1.0
C      1  0.3205710000000  0.6218420000000  0.5915100000000 1.0
C      1  0.6586930000000  0.4405300000000  0.3554710000000 1.0
C      1  0.3680900000000  0.3840260000000  0.3600630000000 1.0
C      1  0.4732020000000  0.6673010000000  0.3591400000000 1.0
C      1  0.6387810000000  0.7220270000000  0.5036280000000 1.0
C      1  0.6206010000000  0.2716400000000  0.5025690000000 1.0
C      1  0.2403830000000  0.5085390000000  0.5014940000000 1.0
C      1  0.4810120000000  0.6946710000000  0.4543260000000 1.0
C      1  0.6744560000000  0.4201490000000  0.4512860000000 1.0
C      1  0.3397260000000  0.3812030000000  0.4558760000000 1.0
C      1  0.7068550000000  0.4254280000000  0.6271480000000 1.0
C      1  0.3259860000000  0.3573750000000  0.6294160000000 1.0
C      1  0.4638290000000  0.7203760000000  0.6296700000000 1.0
C      1  0.5058660000000  0.6080330000000  0.5074290000000 1.0
C      1  0.5876080000000  0.4435900000000  0.5020510000000 1.0
C      1  0.3992730000000  0.4473590000000  0.5115160000000 1.0
C      1  0.4573650000000  0.6123520000000  0.6023610000000 1.0
C      1  0.6133350000000  0.4782960000000  0.5972020000000 1.0
C      1  0.4259760000000  0.4036260000000  0.6064310000000 1.0
C      1  0.4198650000000  0.5899870000000  0.3514280000000 1.0
C      1  0.6252370000000  0.5291770000000  0.3476270000000 1.0
C      1  0.4629440000000  0.3750400000000  0.3518080000000 1.0
C      1  0.6348820000000  0.6327230000000  0.3530640000000 1.0
C      1  0.5455260000000  0.3186340000000  0.3524360000000 1.0
C      1  0.3276910000000  0.5451410000000  0.3557630000000 1.0
C      1  0.5105260000000  0.4342280000000  0.6665330000000 1.0
C      1  0.4376830000000  0.5230600000000  0.6604910000000 1.0
C      1  0.5513740000000  0.5415520000000  0.6609510000000 1.0
C      1  0.3744550000000  0.2765920000000  0.5657220000000 1.0
C      1  0.3689890000000  0.7184720000000  0.5669350000000 1.0
C      1  0.7590620000000  0.5066210000000  0.5671430000000 1.0
C      1  0.5080370000000  0.3646710000000  0.5104730000000 1.0
C      1  0.3770550000000  0.5569480000000  0.5151300000000 1.0
C      1  0.6155470000000  0.5799570000000  0.5143000000000 1.0
C      1  0.6061700000000  0.3763800000000  0.6460210000000 1.0
C      1  0.3392850000000  0.4695670000000  0.6410870000000 1.0
C      1  0.5549600000000  0.6539200000000  0.6436620000000 1.0
C      1  0.5495940000000  0.2648100000000  0.4333760000000 1.0
C      1  0.2745490000000  0.5721110000000  0.4323850000000 1.0
C      1  0.6802530000000  0.6632680000000  0.4338670000000 1.0
C      1  0.5576640000000  0.6763160000000  0.3158300000000 1.0
C      1  0.6206070000000  0.3640390000000  0.3129330000000 1.0
C      1  0.3255070000000  0.4576510000000  0.3167910000000 1.0
C      1  0.5020050000000  0.4372950000000  0.4279860000000 1.0
C      1  0.4370810000000  0.5217460000000  0.4328040000000 1.0
C      1  0.5609380000000  0.5502290000000  0.4267820000000 1.0
C      1  0.5589220000000  0.7668030000000  0.4804080000000 1.0
C      1  0.6994850000000  0.3178600000000  0.4789140000000 1.0
C      1  0.2387590000000  0.4165240000000  0.4797420000000 1.0
C      1  0.3231670000000  0.6539690000000  0.4851990000000 1.0
C      1  0.7272470000000  0.5805770000000  0.4867640000000 1.0
C      1  0.4529220000000  0.2675650000000  0.4838370000000 1.0
C      1  0.6393370000000  0.6829920000000  0.5942380000000 1.0
C      1  0.5857140000000  0.2930280000000  0.5912900000000 1.0
C      1  0.2727580000000  0.5286530000000  0.5920540000000 1.0
END
