TITL C-986973-6940-662 -2.71072468712035e-06 3375 -353.528993039506 0 0 60 (C5) n - 1
REM
REM in /home/bkarasulu/work/CARBON/AIRSS/Generating-Clusters/REBO/Higher-Symm/Only-C60
REM
REM
REM
REM
REM
REM ./C.cell (a2850807a9bf4ad07a5b6933b78d9264)
REM AIRSS Version 0.9.1 bugfix July 2018 build 013d7b7c2542+ Fri, 06 Jul 2018 19:26:36 +0100
REM compiler GCC version 9.2.1 20190827 (Red Hat 9.2.1-1)
REM options -cpp -mtune=generic -march=x86-64 -g -O0 -fpre-include=/usr/include/finclude/math-vector-fortran.h
REM seed 77756972 -694322964 1727904710 -1484369662 -42627757 1184969392 -1604205124 1759911661 790488966 941366978 -614647624 -1270358621 -1772294584 2103824809 486266269 1834634609 -2124708658 1222364298 -602765398 1024127200 260287952 766327561 954054384 -1616009658 -1140628984 -640550567 1994089167 -1408957960 -1086368484 -1307636886 1463010781 -38108120 507783583
REM
CELL 1.54180   15.00000   15.00000   15.00000   90.00000   90.00000   90.00000
LATT -1
SFAC C  
C      1  0.4359750000000  0.2236040000000  0.5686410000000 1.0
C      1  0.5455000000000  0.2236210000000  0.5821600000000 1.0
C      1  0.5922020000000  0.2236170000000  0.4821730000000 1.0
C      1  0.5115400000000  0.2235970000000  0.4068600000000 1.0
C      1  0.4149870000000  0.2235890000000  0.4603000000000 1.0
C      1  0.4492680000000  0.4305290000000  0.3237570000000 1.0
C      1  0.3167050000000  0.4305280000000  0.4938000000000 1.0
C      1  0.4374610000000  0.4305630000000  0.6724220000000 1.0
C      1  0.6446560000000  0.4305860000000  0.6127740000000 1.0
C      1  0.6519540000000  0.4305650000000  0.3972870000000 1.0
C      1  0.3331120000000  0.4930130000000  0.3419870000000 1.0
C      1  0.2981480000000  0.4930350000000  0.6098920000000 1.0
C      1  0.5421360000000  0.4930820000000  0.7259330000000 1.0
C      1  0.7278940000000  0.4930870000000  0.5297450000000 1.0
C      1  0.5987100000000  0.4930450000000  0.2924530000000 1.0
C      1  0.4849260000000  0.8168920000000  0.5930580000000 1.0
C      1  0.5838470000000  0.8169000000000  0.5430290000000 1.0
C      1  0.5668350000000  0.8168860000000  0.4334890000000 1.0
C      1  0.4574000000000  0.8168690000000  0.4158190000000 1.0
C      1  0.4067770000000  0.8168730000000  0.5144380000000 1.0
C      1  0.5239840000000  0.7572670000000  0.3512120000000 1.0
C      1  0.3659070000000  0.7572540000000  0.4311600000000 1.0
C      1  0.3930940000000  0.7572760000000  0.6062050000000 1.0
C      1  0.5679730000000  0.7573030000000  0.6344410000000 1.0
C      1  0.6488670000000  0.7572980000000  0.4768470000000 1.0
C      1  0.3406440000000  0.2659290000000  0.5308310000000 1.0
C      1  0.4800810000000  0.2659630000000  0.6611330000000 1.0
C      1  0.6470940000000  0.2659780000000  0.5687860000000 1.0
C      1  0.6108760000000  0.2659530000000  0.3814100000000 1.0
C      1  0.4214790000000  0.2659220000000  0.3579530000000 1.0
C      1  0.4336500000000  0.5374360000000  0.3588880000000 1.0
C      1  0.3452900000000  0.5374400000000  0.5194890000000 1.0
C      1  0.4707250000000  0.5374720000000  0.6531520000000 1.0
C      1  0.6366080000000  0.5374870000000  0.5751610000000 1.0
C      1  0.6136950000000  0.5374650000000  0.3932960000000 1.0
C      1  0.4208070000000  0.4301560000000  0.4982960000000 1.0
C      1  0.4739070000000  0.4301710000000  0.5748040000000 1.0
C      1  0.5630790000000  0.4301800000000  0.5479460000000 1.0
C      1  0.5650900000000  0.4301700000000  0.4548380000000 1.0
C      1  0.4771620000000  0.4301550000000  0.4241530000000 1.0
C      1  0.6687210000000  0.6715820000000  0.4737130000000 1.0
C      1  0.5271360000000  0.6715470000000  0.3313790000000 1.0
C      1  0.3480170000000  0.6715330000000  0.4220500000000 1.0
C      1  0.3789000000000  0.6715580000000  0.6204210000000 1.0
C      1  0.5771050000000  0.6715880000000  0.6523510000000 1.0
C      1  0.7345090000000  0.4496580000000  0.4586880000000 1.0
C      1  0.5331750000000  0.4496110000000  0.2642120000000 1.0
C      1  0.2860020000000  0.4495890000000  0.3955970000000 1.0
C      1  0.3345760000000  0.4496230000000  0.6712710000000 1.0
C      1  0.6117670000000  0.4496660000000  0.7102630000000 1.0
C      1  0.6895840000000  0.3394680000000  0.6000440000000 1.0
C      1  0.6537320000000  0.3394370000000  0.3506420000000 1.0
C      1  0.4054590000000  0.3393960000000  0.3076710000000 1.0
C      1  0.2878710000000  0.3394020000000  0.5305140000000 1.0
C      1  0.4634690000000  0.3394460000000  0.7112090000000 1.0
C      1  0.6466110000000  0.5844460000000  0.4769860000000 1.0
C      1  0.5234160000000  0.5844160000000  0.3534350000000 1.0
C      1  0.3678430000000  0.5844030000000  0.4324220000000 1.0
C      1  0.3948890000000  0.5844240000000  0.6047880000000 1.0
C      1  0.5671770000000  0.5844510000000  0.6323300000000 1.0
END
