TITL C-986976-6631-495 0.00575403471534754 3375 -338.946500135065 0 0 60 (C1) n - 1
REM
REM in /home/bkarasulu/work/CARBON/AIRSS/Generating-Clusters/REBO/Higher-Symm/Only-C60
REM
REM
REM
REM
REM
REM ./C.cell (a2850807a9bf4ad07a5b6933b78d9264)
REM AIRSS Version 0.9.1 bugfix July 2018 build 013d7b7c2542+ Fri, 06 Jul 2018 19:26:36 +0100
REM compiler GCC version 9.2.1 20190827 (Red Hat 9.2.1-1)
REM options -cpp -mtune=generic -march=x86-64 -g -O0 -fpre-include=/usr/include/finclude/math-vector-fortran.h
REM seed -812497189 -1438785795 687418075 371715095 -43860433 -1092860685 -1547275376 61879178 -940679635 993061607 -991220398 1256517177 -638384411 2022621658 2073800640 -62902265 1299877877 1099954448 2111508495 -48423621 -927355524 1192998463 1307418910 -447430044 1474854143 659613531 113099746 -243726640 -299749440 962920242 -1637463611 -829198222 -784602329
REM
CELL 1.54180   15.00000   15.00000   15.00000   90.00000   90.00000   90.00000
LATT -1
SFAC C  
C      1  0.3507040000000  0.4742550000000  0.3739510000000 1.0
C      1  0.5523350000000  0.6402010000000  0.3570590000000 1.0
C      1  0.5948600000000  0.3802740000000  0.3638440000000 1.0
C      1  0.6535970000000  0.4702810000000  0.3781270000000 1.0
C      1  0.4430180000000  0.6483180000000  0.3612380000000 1.0
C      1  0.3963150000000  0.3746220000000  0.3432910000000 1.0
C      1  0.5478490000000  0.7217720000000  0.5573830000000 1.0
C      1  0.6713220000000  0.3508380000000  0.5577320000000 1.0
C      1  0.2795360000000  0.4356350000000  0.5671510000000 1.0
C      1  0.4476270000000  0.7243490000000  0.5595490000000 1.0
C      1  0.3260530000000  0.3446480000000  0.5569340000000 1.0
C      1  0.7203680000000  0.4397480000000  0.5636040000000 1.0
C      1  0.4290870000000  0.3952470000000  0.4472450000000 1.0
C      1  0.4177010000000  0.6083890000000  0.4610290000000 1.0
C      1  0.6224200000000  0.5046950000000  0.4811050000000 1.0
C      1  0.5356980000000  0.3798670000000  0.4606840000000 1.0
C      1  0.5790650000000  0.6022650000000  0.4594670000000 1.0
C      1  0.3799400000000  0.5087790000000  0.4778880000000 1.0
C      1  0.4440290000000  0.2923700000000  0.4056620000000 1.0
C      1  0.3414090000000  0.6670520000000  0.4074940000000 1.0
C      1  0.7001770000000  0.5630150000000  0.4206760000000 1.0
C      1  0.5572460000000  0.2841630000000  0.4067710000000 1.0
C      1  0.6521350000000  0.6637450000000  0.4038710000000 1.0
C      1  0.2985920000000  0.5629820000000  0.4219330000000 1.0
C      1  0.2513050000000  0.5086810000000  0.5106800000000 1.0
C      1  0.6209930000000  0.7233740000000  0.4953010000000 1.0
C      1  0.6266520000000  0.2901220000000  0.4972490000000 1.0
C      1  0.7524680000000  0.5106940000000  0.5070540000000 1.0
C      1  0.3721960000000  0.7272370000000  0.4992720000000 1.0
C      1  0.3723410000000  0.2847450000000  0.4941430000000 1.0
C      1  0.3976820000000  0.4986760000000  0.5848370000000 1.0
C      1  0.5500050000000  0.5859740000000  0.5570090000000 1.0
C      1  0.5466810000000  0.3971490000000  0.5669670000000 1.0
C      1  0.5978590000000  0.4879990000000  0.5844770000000 1.0
C      1  0.4475890000000  0.5911670000000  0.5571100000000 1.0
C      1  0.4413920000000  0.4100110000000  0.5487610000000 1.0
C      1  0.3787350000000  0.3342620000000  0.6398700000000 1.0
C      1  0.4190480000000  0.6866160000000  0.6452930000000 1.0
C      1  0.7103700000000  0.4739600000000  0.6546070000000 1.0
C      1  0.6332380000000  0.3343480000000  0.6464410000000 1.0
C      1  0.5797040000000  0.6844960000000  0.6416010000000 1.0
C      1  0.2928940000000  0.4668290000000  0.6600530000000 1.0
C      1  0.6125630000000  0.4962070000000  0.6959690000000 1.0
C      1  0.4549520000000  0.4075660000000  0.6630860000000 1.0
C      1  0.4477610000000  0.5853670000000  0.6722590000000 1.0
C      1  0.3952060000000  0.4947960000000  0.6943690000000 1.0
C      1  0.5592160000000  0.4043210000000  0.6805420000000 1.0
C      1  0.5587220000000  0.5819540000000  0.6704460000000 1.0
C      1  0.5600130000000  0.5684500000000  0.2761270000000 1.0
C      1  0.5495100000000  0.4035120000000  0.2672140000000 1.0
C      1  0.4124570000000  0.4947560000000  0.2892690000000 1.0
C      1  0.4604810000000  0.5741940000000  0.2875100000000 1.0
C      1  0.4568980000000  0.4087780000000  0.2609900000000 1.0
C      1  0.6032250000000  0.4868850000000  0.2853870000000 1.0
C      1  0.2413070000000  0.6058790000000  0.5342450000000 1.0
C      1  0.7097430000000  0.6841420000000  0.5223060000000 1.0
C      1  0.5459190000000  0.2388970000000  0.5313400000000 1.0
C      1  0.7590780000000  0.6084090000000  0.5311040000000 1.0
C      1  0.2853220000000  0.6848290000000  0.5270620000000 1.0
C      1  0.4553930000000  0.2372080000000  0.5263610000000 1.0
END
