TITL C-986974-580-191 5.70852338968276e-08 3375 -354.32998224522 0 0 60 (D6d) n - 1
REM
REM in /home/bkarasulu/work/CARBON/AIRSS/Generating-Clusters/REBO/Higher-Symm/Only-C60
REM
REM
REM
REM
REM
REM ./C.cell (a2850807a9bf4ad07a5b6933b78d9264)
REM AIRSS Version 0.9.1 bugfix July 2018 build 013d7b7c2542+ Fri, 06 Jul 2018 19:26:36 +0100
REM compiler GCC version 9.2.1 20190827 (Red Hat 9.2.1-1)
REM options -cpp -mtune=generic -march=x86-64 -g -O0 -fpre-include=/usr/include/finclude/math-vector-fortran.h
REM seed -722629853 1382188434 -672851331 1638903676 1193095579 -1012570967 750656651 -2061030411 1488091946 -1845193765 1136617155 946202570 811934458 -1137759018 -411626664 -1596047620 829073467 -1110435782 642315119 -2068557652 14470994 989169868 1888722826 -1776325475 -261704982 1571897304 733224142 -582336811 1046280299 36000288 -168987080 1935842643 -322720739
REM
CELL 1.54180   15.00000   15.00000   15.00000   90.00000   90.00000   90.00000
LATT -1
SFAC C  
C      1  0.6051580000000  0.5451660000000  0.7148410000000 1.0
C      1  0.3665210000000  0.5451660000000  0.6984900000000 1.0
C      1  0.2613630000000  0.5451660000000  0.4836490000000 1.0
C      1  0.3948420000000  0.5451660000000  0.2851590000000 1.0
C      1  0.6334790000000  0.5451660000000  0.3015100000000 1.0
C      1  0.7386370000000  0.5451660000000  0.5163510000000 1.0
C      1  0.3948420000000  0.4548340000000  0.7148410000000 1.0
C      1  0.6334790000000  0.4548340000000  0.6984900000000 1.0
C      1  0.7386370000000  0.4548340000000  0.4836490000000 1.0
C      1  0.6051580000000  0.4548340000000  0.2851590000000 1.0
C      1  0.3665210000000  0.4548340000000  0.3015100000000 1.0
C      1  0.2613630000000  0.4548340000000  0.5163510000000 1.0
C      1  0.3551380000000  0.3923120000000  0.6448620000000 1.0
C      1  0.3021150000000  0.3923120000000  0.4469770000000 1.0
C      1  0.4469770000000  0.3923120000000  0.3021150000000 1.0
C      1  0.6448620000000  0.3923120000000  0.3551380000000 1.0
C      1  0.6978850000000  0.3923120000000  0.5530230000000 1.0
C      1  0.5530230000000  0.3923120000000  0.6978850000000 1.0
C      1  0.6448620000000  0.6076880000000  0.6448620000000 1.0
C      1  0.6978850000000  0.6076880000000  0.4469770000000 1.0
C      1  0.5530230000000  0.6076880000000  0.3021150000000 1.0
C      1  0.3551380000000  0.6076880000000  0.3551380000000 1.0
C      1  0.3021150000000  0.6076880000000  0.5530230000000 1.0
C      1  0.4469770000000  0.6076880000000  0.6978850000000 1.0
C      1  0.7148410000000  0.4548340000000  0.3948420000000 1.0
C      1  0.6984900000000  0.4548340000000  0.6334790000000 1.0
C      1  0.4836490000000  0.4548340000000  0.7386370000000 1.0
C      1  0.2851590000000  0.4548340000000  0.6051580000000 1.0
C      1  0.3015100000000  0.4548340000000  0.3665210000000 1.0
C      1  0.5163510000000  0.4548340000000  0.2613630000000 1.0
C      1  0.2851590000000  0.5451660000000  0.3948420000000 1.0
C      1  0.3015100000000  0.5451660000000  0.6334790000000 1.0
C      1  0.5163510000000  0.5451660000000  0.7386370000000 1.0
C      1  0.7148410000000  0.5451660000000  0.6051580000000 1.0
C      1  0.6984900000000  0.5451660000000  0.3665210000000 1.0
C      1  0.4836490000000  0.5451660000000  0.2613630000000 1.0
C      1  0.6839800000000  0.7190300000000  0.4507030000000 1.0
C      1  0.6346830000000  0.7190300000000  0.6346830000000 1.0
C      1  0.4507030000000  0.7190300000000  0.6839800000000 1.0
C      1  0.3160200000000  0.7190300000000  0.5492970000000 1.0
C      1  0.3653170000000  0.7190300000000  0.3653170000000 1.0
C      1  0.5492970000000  0.7190300000000  0.3160200000000 1.0
C      1  0.3160200000000  0.2809700000000  0.4507030000000 1.0
C      1  0.3653170000000  0.2809700000000  0.6346830000000 1.0
C      1  0.5492970000000  0.2809700000000  0.6839800000000 1.0
C      1  0.6839800000000  0.2809700000000  0.5492970000000 1.0
C      1  0.6346830000000  0.2809700000000  0.3653170000000 1.0
C      1  0.4507030000000  0.2809700000000  0.3160200000000 1.0
C      1  0.4020270000000  0.6555650000000  0.5262520000000 1.0
C      1  0.4282790000000  0.6555650000000  0.4282790000000 1.0
C      1  0.5262520000000  0.6555650000000  0.4020270000000 1.0
C      1  0.5979730000000  0.6555650000000  0.4737480000000 1.0
C      1  0.5717210000000  0.6555650000000  0.5717210000000 1.0
C      1  0.4737480000000  0.6555650000000  0.5979730000000 1.0
C      1  0.5979730000000  0.3444350000000  0.5262520000000 1.0
C      1  0.5717210000000  0.3444350000000  0.4282790000000 1.0
C      1  0.4737480000000  0.3444350000000  0.4020270000000 1.0
C      1  0.4020270000000  0.3444350000000  0.4737480000000 1.0
C      1  0.4282790000000  0.3444350000000  0.5717210000000 1.0
C      1  0.5262520000000  0.3444350000000  0.5979730000000 1.0
END
