TITL C-986976-6631-509 2.30816689592732e-06 3375 -339.224995332985 0 0 60 (C1) n - 1
REM
REM in /home/bkarasulu/work/CARBON/AIRSS/Generating-Clusters/REBO/Higher-Symm/Only-C60
REM
REM
REM
REM
REM
REM ./C.cell (a2850807a9bf4ad07a5b6933b78d9264)
REM AIRSS Version 0.9.1 bugfix July 2018 build 013d7b7c2542+ Fri, 06 Jul 2018 19:26:36 +0100
REM compiler GCC version 9.2.1 20190827 (Red Hat 9.2.1-1)
REM options -cpp -mtune=generic -march=x86-64 -g -O0 -fpre-include=/usr/include/finclude/math-vector-fortran.h
REM seed -1048646556 -609856638 -2099118606 178974058 1708418983 -1929808497 -594625063 1634369031 -2093579013 -1927500878 -1646931431 27335835 1294691063 1485245937 1491948222 889849097 -1027999166 1929730852 1763270125 -1524221811 -1599843634 1309999603 2007296298 -10395776 -1308768869 1918917393 -1147795123 -1189675261 1622477817 -445418678 -596142209 1694510490 502538223
REM
CELL 1.54180   15.00000   15.00000   15.00000   90.00000   90.00000   90.00000
LATT -1
SFAC C  
C      1  0.3091080000000  0.3603160000000  0.3898660000000 1.0
C      1  0.6983220000000  0.6169660000000  0.3920090000000 1.0
C      1  0.3015960000000  0.6518130000000  0.4045520000000 1.0
C      1  0.7034050000000  0.3457900000000  0.3862920000000 1.0
C      1  0.5554230000000  0.5609820000000  0.7758920000000 1.0
C      1  0.4383950000000  0.4454810000000  0.7662180000000 1.0
C      1  0.5444090000000  0.4573110000000  0.7682650000000 1.0
C      1  0.4492780000000  0.5495390000000  0.7733120000000 1.0
C      1  0.6518090000000  0.5522920000000  0.5677650000000 1.0
C      1  0.3483340000000  0.4658050000000  0.5526110000000 1.0
C      1  0.6657050000000  0.4436580000000  0.5561340000000 1.0
C      1  0.3330180000000  0.5719970000000  0.5680880000000 1.0
C      1  0.4576050000000  0.7028150000000  0.4902160000000 1.0
C      1  0.5519390000000  0.2856210000000  0.4909510000000 1.0
C      1  0.4593110000000  0.2759770000000  0.4907080000000 1.0
C      1  0.5502180000000  0.7091240000000  0.4950040000000 1.0
C      1  0.4028970000000  0.5429760000000  0.2192650000000 1.0
C      1  0.5845070000000  0.4667540000000  0.2032130000000 1.0
C      1  0.4130830000000  0.4607030000000  0.2101580000000 1.0
C      1  0.5714350000000  0.5492190000000  0.2073130000000 1.0
C      1  0.3865900000000  0.3955940000000  0.7052200000000 1.0
C      1  0.6093560000000  0.6139960000000  0.7192940000000 1.0
C      1  0.3964270000000  0.6051420000000  0.7179540000000 1.0
C      1  0.5994060000000  0.4076060000000  0.7097340000000 1.0
C      1  0.3197330000000  0.4315820000000  0.6530140000000 1.0
C      1  0.6783850000000  0.5795140000000  0.6686590000000 1.0
C      1  0.3168090000000  0.5892180000000  0.6729830000000 1.0
C      1  0.6781040000000  0.4285200000000  0.6653570000000 1.0
C      1  0.4433840000000  0.3349000000000  0.6433590000000 1.0
C      1  0.5541450000000  0.6747390000000  0.6558530000000 1.0
C      1  0.4532300000000  0.6551000000000  0.6471260000000 1.0
C      1  0.5444130000000  0.3558850000000  0.6387820000000 1.0
C      1  0.5848320000000  0.7335570000000  0.5765670000000 1.0
C      1  0.4197110000000  0.2647040000000  0.5728400000000 1.0
C      1  0.5894680000000  0.2896740000000  0.5742090000000 1.0
C      1  0.4144520000000  0.7126370000000  0.5703390000000 1.0
C      1  0.4385000000000  0.5960130000000  0.3010270000000 1.0
C      1  0.5551690000000  0.4053940000000  0.2797010000000 1.0
C      1  0.4546620000000  0.4005800000000  0.2823130000000 1.0
C      1  0.5404400000000  0.5981120000000  0.2928300000000 1.0
C      1  0.5961210000000  0.4417390000000  0.3791520000000 1.0
C      1  0.4134670000000  0.5374010000000  0.3948520000000 1.0
C      1  0.5827280000000  0.5511250000000  0.3848840000000 1.0
C      1  0.4215770000000  0.4309700000000  0.3836320000000 1.0
C      1  0.3244870000000  0.5607760000000  0.4624620000000 1.0
C      1  0.6819430000000  0.4281720000000  0.4535310000000 1.0
C      1  0.3309380000000  0.4489890000000  0.4497540000000 1.0
C      1  0.6646830000000  0.5375730000000  0.4622850000000 1.0
C      1  0.6212250000000  0.6629720000000  0.3253160000000 1.0
C      1  0.3840110000000  0.3251030000000  0.3136930000000 1.0
C      1  0.6256930000000  0.3316630000000  0.3103780000000 1.0
C      1  0.3691700000000  0.6787620000000  0.3224330000000 1.0
C      1  0.5992590000000  0.6521780000000  0.4362490000000 1.0
C      1  0.4117790000000  0.3241080000000  0.4236930000000 1.0
C      1  0.5940590000000  0.3342940000000  0.4197200000000 1.0
C      1  0.4158040000000  0.6480750000000  0.4213380000000 1.0
C      1  0.5492830000000  0.5719040000000  0.6081740000000 1.0
C      1  0.4487420000000  0.4372510000000  0.5951540000000 1.0
C      1  0.5597930000000  0.4598880000000  0.5939390000000 1.0
C      1  0.4382250000000  0.5494520000000  0.6043710000000 1.0
END
