TITL C-986975-4297-152 6.42609039988564e-06 3375 -371.907922079457 0 0 60 (D3h) n - 1
REM
REM in /home/bkarasulu/work/CARBON/AIRSS/Generating-Clusters/REBO/Higher-Symm/Only-C60
REM
REM
REM
REM
REM
REM ./C.cell (a2850807a9bf4ad07a5b6933b78d9264)
REM AIRSS Version 0.9.1 bugfix July 2018 build 013d7b7c2542+ Fri, 06 Jul 2018 19:26:36 +0100
REM compiler GCC version 9.2.1 20190827 (Red Hat 9.2.1-1)
REM options -cpp -mtune=generic -march=x86-64 -g -O0 -fpre-include=/usr/include/finclude/math-vector-fortran.h
REM seed 839481408 -137336026 -1276034423 -801747854 -1495937928 -2045561273 -192340506 -1606691556 -1705777690 -659553887 1995040187 -1831555803 -1702862928 -1248405916 -1418684607 -662673013 39992597 510198137 -1408323235 1936502965 1966188738 819635423 1976956633 -817187968 -613125992 1951754791 -1783401708 1468435252 -776525644 1139831913 577103470 467718573 -1021338750
REM
CELL 1.54180   15.00000   15.00000   15.00000   90.00000   90.00000   90.00000
LATT -1
SFAC C  
C      1  0.4185350000000  0.4534130000000  0.5730490000000 1.0
C      1  0.5810770000000  0.4527430000000  0.5730490000000 1.0
C      1  0.5003870000000  0.5938440000000  0.5730490000000 1.0
C      1  0.4185350000000  0.4534130000000  0.4269510000000 1.0
C      1  0.5810770000000  0.4527430000000  0.4269510000000 1.0
C      1  0.5003870000000  0.5938440000000  0.4269510000000 1.0
C      1  0.4185350000000  0.5465870000000  0.5730490000000 1.0
C      1  0.5810770000000  0.5472570000000  0.5730490000000 1.0
C      1  0.5003870000000  0.4061560000000  0.5730490000000 1.0
C      1  0.4185350000000  0.5465870000000  0.4269510000000 1.0
C      1  0.5810770000000  0.5472570000000  0.4269510000000 1.0
C      1  0.5003870000000  0.4061560000000  0.4269510000000 1.0
C      1  0.7201280000000  0.5904960000000  0.6279630000000 1.0
C      1  0.3115640000000  0.6453900000000  0.6279630000000 1.0
C      1  0.4683080000000  0.2641150000000  0.6279630000000 1.0
C      1  0.7201280000000  0.5904960000000  0.3720370000000 1.0
C      1  0.3115640000000  0.6453900000000  0.3720370000000 1.0
C      1  0.4683080000000  0.2641150000000  0.3720370000000 1.0
C      1  0.7201280000000  0.4095040000000  0.6279630000000 1.0
C      1  0.3115640000000  0.3546100000000  0.6279630000000 1.0
C      1  0.4683080000000  0.7358850000000  0.6279630000000 1.0
C      1  0.7201280000000  0.4095040000000  0.3720370000000 1.0
C      1  0.3115640000000  0.3546100000000  0.3720370000000 1.0
C      1  0.4683080000000  0.7358850000000  0.3720370000000 1.0
C      1  0.5289520000000  0.6406100000000  0.2546390000000 1.0
C      1  0.3637530000000  0.4547680000000  0.2546400000000 1.0
C      1  0.6072960000000  0.4046220000000  0.2546390000000 1.0
C      1  0.5289520000000  0.6406100000000  0.7453610000000 1.0
C      1  0.3637530000000  0.4547680000000  0.7453600000000 1.0
C      1  0.6072960000000  0.4046220000000  0.7453610000000 1.0
C      1  0.5289520000000  0.3593900000000  0.2546390000000 1.0
C      1  0.3637530000000  0.5452320000000  0.2546400000000 1.0
C      1  0.6072960000000  0.5953780000000  0.2546390000000 1.0
C      1  0.5289520000000  0.3593900000000  0.7453610000000 1.0
C      1  0.3637530000000  0.5452320000000  0.7453600000000 1.0
C      1  0.6072960000000  0.5953780000000  0.7453610000000 1.0
C      1  0.6674890000000  0.5882820000000  0.5484120000000 1.0
C      1  0.3398000000000  0.6009090000000  0.5484120000000 1.0
C      1  0.4927100000000  0.3108090000000  0.5484120000000 1.0
C      1  0.6674890000000  0.5882820000000  0.4515880000000 1.0
C      1  0.3398000000000  0.6009090000000  0.4515880000000 1.0
C      1  0.4927100000000  0.3108090000000  0.4515880000000 1.0
C      1  0.6674890000000  0.4117180000000  0.5484120000000 1.0
C      1  0.3398000000000  0.3990910000000  0.5484120000000 1.0
C      1  0.4927100000000  0.6891910000000  0.5484120000000 1.0
C      1  0.6674890000000  0.4117180000000  0.4515880000000 1.0
C      1  0.3398000000000  0.3990910000000  0.4515880000000 1.0
C      1  0.4927100000000  0.6891910000000  0.4515880000000 1.0
C      1  0.3680560000000  0.6314110000000  0.7054940000000 1.0
C      1  0.4521680000000  0.3200260000000  0.7054940000000 1.0
C      1  0.6797780000000  0.5485620000000  0.7054940000000 1.0
C      1  0.3680560000000  0.6314110000000  0.2945060000000 1.0
C      1  0.4521680000000  0.3200260000000  0.2945060000000 1.0
C      1  0.6797780000000  0.5485620000000  0.2945060000000 1.0
C      1  0.3680560000000  0.3685890000000  0.7054940000000 1.0
C      1  0.4521680000000  0.6799740000000  0.7054940000000 1.0
C      1  0.6797780000000  0.4514380000000  0.7054940000000 1.0
C      1  0.3680560000000  0.3685890000000  0.2945060000000 1.0
C      1  0.4521680000000  0.6799740000000  0.2945060000000 1.0
C      1  0.6797780000000  0.4514380000000  0.2945060000000 1.0
END
