TITL C-986979-5873-511 0.712436214187583 3375 -302.307313454206 0 0 60 (C1) n - 1
REM
REM in /home/bkarasulu/work/CARBON/AIRSS/Generating-Clusters/REBO/Higher-Symm/Only-C60
REM
REM
REM
REM
REM
REM ./C.cell (a2850807a9bf4ad07a5b6933b78d9264)
REM AIRSS Version 0.9.1 bugfix July 2018 build 013d7b7c2542+ Fri, 06 Jul 2018 19:26:36 +0100
REM compiler GCC version 9.2.1 20190827 (Red Hat 9.2.1-1)
REM options -cpp -mtune=generic -march=x86-64 -g -O0 -fpre-include=/usr/include/finclude/math-vector-fortran.h
REM seed 266143856 -1404426128 1438609784 -827434781 339751061 1486348483 -909025802 -337033103 1017610763 -1887965401 -2123103675 -446964152 340545966 1365360968 261801250 -2133845328 1959012501 409014890 -2140252641 -308926598 -1362442867 1887565907 -1854675120 -697432370 -550568982 -2077511279 -726888616 926396148 -248497825 67164822 1740220643 877683046 1112308633
REM
CELL 1.54180   15.00000   15.00000   15.00000   90.00000   90.00000   90.00000
LATT -1
SFAC C  
C      1  0.4377120000000  0.4413020000000  0.2708770000000 1.0
C      1  0.7024550000000  0.4509080000000  0.3667400000000 1.0
C      1  0.6843360000000  0.4371100000000  0.6537500000000 1.0
C      1  0.4113940000000  0.4468720000000  0.7293510000000 1.0
C      1  0.2542190000000  0.4477900000000  0.4901690000000 1.0
C      1  0.5278480000000  0.4956450000000  0.6879690000000 1.0
C      1  0.3291440000000  0.5004380000000  0.5865170000000 1.0
C      1  0.3672440000000  0.4960580000000  0.3692250000000 1.0
C      1  0.5815360000000  0.4968130000000  0.3365000000000 1.0
C      1  0.6839910000000  0.4981120000000  0.5357000000000 1.0
C      1  0.7405400000000  0.5122240000000  0.6158540000000 1.0
C      1  0.4722780000000  0.5182820000000  0.7674420000000 1.0
C      1  0.2370440000000  0.5219140000000  0.5569030000000 1.0
C      1  0.3687260000000  0.5152710000000  0.2719160000000 1.0
C      1  0.6716060000000  0.5230950000000  0.3026260000000 1.0
C      1  0.6920650000000  0.4099670000000  0.4723630000000 1.0
C      1  0.5794810000000  0.3973890000000  0.6721970000000 1.0
C      1  0.3569300000000  0.4078960000000  0.6374470000000 1.0
C      1  0.3267300000000  0.4049760000000  0.4135060000000 1.0
C      1  0.5339930000000  0.3986460000000  0.3135550000000 1.0
C      1  0.5523680000000  0.6874110000000  0.6014550000000 1.0
C      1  0.4212370000000  0.6870360000000  0.5835820000000 1.0
C      1  0.3972380000000  0.6872490000000  0.4535070000000 1.0
C      1  0.5136920000000  0.6849260000000  0.3908530000000 1.0
C      1  0.6094260000000  0.6850670000000  0.4821110000000 1.0
C      1  0.3679970000000  0.6096090000000  0.4647660000000 1.0
C      1  0.4937380000000  0.6068550000000  0.3680530000000 1.0
C      1  0.6258170000000  0.6076050000000  0.4550960000000 1.0
C      1  0.5836570000000  0.6103160000000  0.6099580000000 1.0
C      1  0.4233890000000  0.6106360000000  0.6177100000000 1.0
C      1  0.5910560000000  0.3048810000000  0.6063490000000 1.0
C      1  0.4170770000000  0.3114300000000  0.6319700000000 1.0
C      1  0.3452910000000  0.3100120000000  0.4734240000000 1.0
C      1  0.4875310000000  0.3013780000000  0.3503530000000 1.0
C      1  0.6496590000000  0.3104530000000  0.4370910000000 1.0
C      1  0.6019820000000  0.2422450000000  0.5125080000000 1.0
C      1  0.5033280000000  0.2491530000000  0.6039550000000 1.0
C      1  0.4061900000000  0.2467510000000  0.5429980000000 1.0
C      1  0.4265880000000  0.2504170000000  0.4309490000000 1.0
C      1  0.5676670000000  0.2404810000000  0.4020100000000 1.0
C      1  0.3922380000000  0.5281260000000  0.5179880000000 1.0
C      1  0.4526120000000  0.5240090000000  0.4076710000000 1.0
C      1  0.5760010000000  0.5232890000000  0.4307080000000 1.0
C      1  0.5924980000000  0.5266850000000  0.5555680000000 1.0
C      1  0.4789630000000  0.5281090000000  0.6096550000000 1.0
C      1  0.6345180000000  0.3768670000000  0.3574730000000 1.0
C      1  0.6679400000000  0.3726830000000  0.5767420000000 1.0
C      1  0.4724150000000  0.3750440000000  0.6939250000000 1.0
C      1  0.3051730000000  0.3776650000000  0.5416030000000 1.0
C      1  0.4067300000000  0.3725340000000  0.3397850000000 1.0
C      1  0.5117770000000  0.2989430000000  0.4807390000000 1.0
C      1  0.4990290000000  0.7194280000000  0.5020920000000 1.0
C      1  0.4992880000000  0.6061380000000  0.5016900000000 1.0
C      1  0.4986150000000  0.9089630000000  0.4997250000000 1.0
C      1  0.4994090000000  0.8224360000000  0.5020040000000 1.0
C      1  0.5037870000000  0.1654390000000  0.5363540000000 1.0
C      1  0.4958210000000  0.3795760000000  0.5167740000000 1.0
C      1  0.4987000000000  0.9964510000000  0.4967410000000 1.0
C      1  0.4977230000000  0.4798050000000  0.5060490000000 1.0
C      1  0.5005810000000  0.0837466000000  0.5062200000000 1.0
END
