TITL C-986978-6805-1066 -2.14914556433096e-06 3375 -357.89767700522 0 0 60 (C4) n - 1
REM
REM in /home/bkarasulu/work/CARBON/AIRSS/Generating-Clusters/REBO/Higher-Symm/Only-C60
REM
REM
REM
REM
REM
REM ./C.cell (a2850807a9bf4ad07a5b6933b78d9264)
REM AIRSS Version 0.9.1 bugfix July 2018 build 013d7b7c2542+ Fri, 06 Jul 2018 19:26:36 +0100
REM compiler GCC version 9.2.1 20190827 (Red Hat 9.2.1-1)
REM options -cpp -mtune=generic -march=x86-64 -g -O0 -fpre-include=/usr/include/finclude/math-vector-fortran.h
REM seed 684740804 -954166572 -1930047594 413471521 -931228372 517441992 1827565086 -1719437323 1102537005 5808356 157333088 -1346597385 -263219142 -335330242 -1895024243 2121565075 -344748650 1047900550 1051617723 395962684 1936246059 -394889588 -1669782487 2046955520 693998237 2045099881 492297702 -26860209 2052876921 -1246595943 1638812671 -803662928 -89997566
REM
CELL 1.54180   15.00000   15.00000   15.00000   90.00000   90.00000   90.00000
LATT -1
SFAC C  
C      1  0.5485240000000  0.2851130000000  0.6224030000000 1.0
C      1  0.3776010000000  0.2851110000000  0.5485250000000 1.0
C      1  0.4514790000000  0.2851100000000  0.3776010000000 1.0
C      1  0.6224010000000  0.2851120000000  0.4514790000000 1.0
C      1  0.5565840000000  0.2794160000000  0.3849700000000 1.0
C      1  0.3849700000000  0.2794150000000  0.4434200000000 1.0
C      1  0.4434190000000  0.2794170000000  0.6150340000000 1.0
C      1  0.6150330000000  0.2794180000000  0.5565840000000 1.0
C      1  0.7126410000000  0.5955390000000  0.5990930000000 1.0
C      1  0.4009060000000  0.5955390000000  0.7126420000000 1.0
C      1  0.2873570000000  0.5955340000000  0.4009050000000 1.0
C      1  0.5990930000000  0.5955350000000  0.2873570000000 1.0
C      1  0.7184310000000  0.6032330000000  0.3986690000000 1.0
C      1  0.3986690000000  0.6032290000000  0.2815660000000 1.0
C      1  0.2815680000000  0.6032310000000  0.6013290000000 1.0
C      1  0.6013300000000  0.6032360000000  0.7184320000000 1.0
C      1  0.6738220000000  0.4559740000000  0.3998940000000 1.0
C      1  0.6001070000000  0.4559760000000  0.6738220000000 1.0
C      1  0.3261790000000  0.4559730000000  0.6001070000000 1.0
C      1  0.3998930000000  0.4559710000000  0.3261780000000 1.0
C      1  0.6827670000000  0.4421570000000  0.5966340000000 1.0
C      1  0.5966340000000  0.4421530000000  0.3172330000000 1.0
C      1  0.3172330000000  0.4421520000000  0.4033660000000 1.0
C      1  0.4033660000000  0.4421560000000  0.6827680000000 1.0
C      1  0.6325980000000  0.6487030000000  0.4483640000000 1.0
C      1  0.5516340000000  0.6487040000000  0.6325990000000 1.0
C      1  0.3674000000000  0.6487000000000  0.5516340000000 1.0
C      1  0.4483640000000  0.6487000000000  0.3673980000000 1.0
C      1  0.6255330000000  0.6333860000000  0.5523240000000 1.0
C      1  0.5523240000000  0.6333840000000  0.3744640000000 1.0
C      1  0.3744640000000  0.6333830000000  0.4476730000000 1.0
C      1  0.4476740000000  0.6333870000000  0.6255350000000 1.0
C      1  0.5456940000000  0.3560940000000  0.3170900000000 1.0
C      1  0.6829120000000  0.3560980000000  0.5456940000000 1.0
C      1  0.4543080000000  0.3560980000000  0.6829120000000 1.0
C      1  0.3170900000000  0.3560940000000  0.4543080000000 1.0
C      1  0.5556490000000  0.3655800000000  0.6881550000000 1.0
C      1  0.6881540000000  0.3655780000000  0.4443540000000 1.0
C      1  0.4443530000000  0.3655740000000  0.3118470000000 1.0
C      1  0.3118470000000  0.3655760000000  0.5556490000000 1.0
C      1  0.5473370000000  0.5201930000000  0.2512640000000 1.0
C      1  0.7487350000000  0.5201980000000  0.5473370000000 1.0
C      1  0.4526630000000  0.5201980000000  0.7487350000000 1.0
C      1  0.2512650000000  0.5201930000000  0.4526620000000 1.0
C      1  0.5502640000000  0.5236660000000  0.7507160000000 1.0
C      1  0.7507160000000  0.5236640000000  0.4497360000000 1.0
C      1  0.4497360000000  0.5236590000000  0.2492830000000 1.0
C      1  0.2492840000000  0.5236610000000  0.5502630000000 1.0
C      1  0.3804190000000  0.5379900000000  0.5405280000000 1.0
C      1  0.4594700000000  0.5379900000000  0.3804180000000 1.0
C      1  0.6195800000000  0.5379930000000  0.4594700000000 1.0
C      1  0.5405290000000  0.5379940000000  0.6195810000000 1.0
C      1  0.3835230000000  0.5142290000000  0.4441750000000 1.0
C      1  0.4441750000000  0.5142330000000  0.6164780000000 1.0
C      1  0.6164770000000  0.5142320000000  0.5558240000000 1.0
C      1  0.5558240000000  0.5142290000000  0.3835220000000 1.0
C      1  0.3058810000000  0.5950510000000  0.6950140000000 1.0
C      1  0.3049850000000  0.5950470000000  0.3058800000000 1.0
C      1  0.6941180000000  0.5950500000000  0.3049850000000 1.0
C      1  0.6950140000000  0.5950540000000  0.6941180000000 1.0
END
