TITL C-986978-6805-956 -9.686421353232e-06 3375 -352.925946184901 0 0 60 (C2) n - 1
REM
REM in /home/bkarasulu/work/CARBON/AIRSS/Generating-Clusters/REBO/Higher-Symm/Only-C60
REM
REM
REM
REM
REM
REM ./C.cell (a2850807a9bf4ad07a5b6933b78d9264)
REM AIRSS Version 0.9.1 bugfix July 2018 build 013d7b7c2542+ Fri, 06 Jul 2018 19:26:36 +0100
REM compiler GCC version 9.2.1 20190827 (Red Hat 9.2.1-1)
REM options -cpp -mtune=generic -march=x86-64 -g -O0 -fpre-include=/usr/include/finclude/math-vector-fortran.h
REM seed 799018809 -1681853889 1151378591 -2088826789 -1739447285 -807745686 -1430179748 -508390262 779045874 -1305424760 -448111187 -313613700 -424086807 45546164 -1391917701 1044955472 -726562190 1703069115 1784051645 901559749 1072486187 1147280663 528977627 -1249321070 406596342 -583996675 1118168675 -1106332077 2023074310 -767674988 1418582813 -642863058 -8952814
REM
CELL 1.54180   15.00000   15.00000   15.00000   90.00000   90.00000   90.00000
LATT -1
SFAC C  
C      1  0.7000810000000  0.4490460000000  0.3656180000000 1.0
C      1  0.6930790000000  0.5492020000000  0.6316240000000 1.0
C      1  0.2999190000000  0.4490460000000  0.6343820000000 1.0
C      1  0.3069210000000  0.5492010000000  0.3683760000000 1.0
C      1  0.6086720000000  0.5748690000000  0.6011600000000 1.0
C      1  0.6143450000000  0.4244440000000  0.3932350000000 1.0
C      1  0.3913280000000  0.5748690000000  0.3988400000000 1.0
C      1  0.3856550000000  0.4244430000000  0.6067650000000 1.0
C      1  0.2619730000000  0.4906700000000  0.4359100000000 1.0
C      1  0.2586720000000  0.5095070000000  0.5655530000000 1.0
C      1  0.7380270000000  0.4906700000000  0.5640900000000 1.0
C      1  0.7413280000000  0.5095080000000  0.4344470000000 1.0
C      1  0.4035730000000  0.4487870000000  0.3589250000000 1.0
C      1  0.4011210000000  0.5505420000000  0.6468090000000 1.0
C      1  0.5964270000000  0.4487870000000  0.6410750000000 1.0
C      1  0.5988790000000  0.5505430000000  0.3531910000000 1.0
C      1  0.3870870000000  0.7003220000000  0.5751690000000 1.0
C      1  0.3869180000000  0.2993510000000  0.4269830000000 1.0
C      1  0.6129130000000  0.7003230000000  0.4248310000000 1.0
C      1  0.6130820000000  0.2993520000000  0.5730170000000 1.0
C      1  0.5156420000000  0.4177870000000  0.2559010000000 1.0
C      1  0.5183170000000  0.5831710000000  0.7438850000000 1.0
C      1  0.4843580000000  0.4177870000000  0.7440990000000 1.0
C      1  0.4816830000000  0.5831710000000  0.2561150000000 1.0
C      1  0.5487740000000  0.7003930000000  0.5136950000000 1.0
C      1  0.5485610000000  0.3023810000000  0.4853050000000 1.0
C      1  0.4512260000000  0.7003930000000  0.4863050000000 1.0
C      1  0.4514390000000  0.3023810000000  0.5146950000000 1.0
C      1  0.3433030000000  0.6555310000000  0.4932410000000 1.0
C      1  0.3429300000000  0.3453850000000  0.5084810000000 1.0
C      1  0.6566970000000  0.6555320000000  0.5067590000000 1.0
C      1  0.6570700000000  0.3453860000000  0.4915190000000 1.0
C      1  0.4130680000000  0.6479810000000  0.6477140000000 1.0
C      1  0.4137640000000  0.3513960000000  0.3546790000000 1.0
C      1  0.5869310000000  0.6479810000000  0.3522860000000 1.0
C      1  0.5862370000000  0.3513960000000  0.6453210000000 1.0
C      1  0.2830640000000  0.5852300000000  0.4944810000000 1.0
C      1  0.2822370000000  0.4150800000000  0.5067510000000 1.0
C      1  0.7169360000000  0.5852300000000  0.5055190000000 1.0
C      1  0.7177630000000  0.4150800000000  0.4932490000000 1.0
C      1  0.4952080000000  0.6581600000000  0.3188020000000 1.0
C      1  0.4953590000000  0.3422970000000  0.6815590000000 1.0
C      1  0.5047920000000  0.6581600000000  0.6811970000000 1.0
C      1  0.5046410000000  0.3422970000000  0.3184420000000 1.0
C      1  0.5512580000000  0.4999950000000  0.5505940000000 1.0
C      1  0.5599440000000  0.5000260000000  0.4420940000000 1.0
C      1  0.4487420000000  0.4999950000000  0.4494060000000 1.0
C      1  0.4400560000000  0.5000260000000  0.5579060000000 1.0
C      1  0.2638030000000  0.5804640000000  0.2953900000000 1.0
C      1  0.2533410000000  0.4163640000000  0.7044970000000 1.0
C      1  0.7361970000000  0.5804640000000  0.7046100000000 1.0
C      1  0.7466600000000  0.4163650000000  0.2955030000000 1.0
C      1  0.4340730000000  0.4900430000000  0.2728970000000 1.0
C      1  0.4356970000000  0.5110910000000  0.7319360000000 1.0
C      1  0.5659270000000  0.4900430000000  0.7271030000000 1.0
C      1  0.5643030000000  0.5110910000000  0.2680640000000 1.0
C      1  0.4328000000000  0.6584770000000  0.3911930000000 1.0
C      1  0.4305400000000  0.3420050000000  0.6112700000000 1.0
C      1  0.5672000000000  0.6584770000000  0.6088070000000 1.0
C      1  0.5694610000000  0.3420050000000  0.3887300000000 1.0
END
