TITL C-986979-5873-957 0.00629614146406534 3375 -354.566811946012 0 0 60 (C1) n - 1
REM
REM in /home/bkarasulu/work/CARBON/AIRSS/Generating-Clusters/REBO/Higher-Symm/Only-C60
REM
REM
REM
REM
REM
REM ./C.cell (a2850807a9bf4ad07a5b6933b78d9264)
REM AIRSS Version 0.9.1 bugfix July 2018 build 013d7b7c2542+ Fri, 06 Jul 2018 19:26:36 +0100
REM compiler GCC version 9.2.1 20190827 (Red Hat 9.2.1-1)
REM options -cpp -mtune=generic -march=x86-64 -g -O0 -fpre-include=/usr/include/finclude/math-vector-fortran.h
REM seed -684605992 -1987344712 -22694829 185817870 -1357195070 2028857307 1057785501 -730370237 -1366528300 484208193 -523423834 -2015069658 1623674610 1154770197 -788123806 392457022 -62287430 -1147640864 -842613924 1827223481 46390792 1420595018 622666283 -2062116348 1015599423 -1013381259 -188321418 -1868348242 1760881011 1715456775 -1546162387 -1324747065 55736415
REM
CELL 1.54180   15.00000   15.00000   15.00000   90.00000   90.00000   90.00000
LATT -1
SFAC C  
C      1  0.5879580000000  0.4557310000000  0.4558970000000 1.0
C      1  0.4889210000000  0.4828120000000  0.5832090000000 1.0
C      1  0.4208840000000  0.4497780000000  0.4419440000000 1.0
C      1  0.2754770000000  0.4807600000000  0.3603270000000 1.0
C      1  0.7332120000000  0.4794360000000  0.3823220000000 1.0
C      1  0.4834080000000  0.4850470000000  0.7529170000000 1.0
C      1  0.5207870000000  0.2484570000000  0.5618660000000 1.0
C      1  0.4357770000000  0.2506960000000  0.4874010000000 1.0
C      1  0.5427310000000  0.2472530000000  0.4510760000000 1.0
C      1  0.5362930000000  0.3018770000000  0.3560820000000 1.0
C      1  0.6018290000000  0.3109640000000  0.5997450000000 1.0
C      1  0.3575550000000  0.3053700000000  0.5394600000000 1.0
C      1  0.7336680000000  0.5541310000000  0.4437820000000 1.0
C      1  0.4270100000000  0.5570660000000  0.7219950000000 1.0
C      1  0.3342440000000  0.5471290000000  0.3220870000000 1.0
C      1  0.5921830000000  0.6869520000000  0.5715330000000 1.0
C      1  0.4034060000000  0.6731270000000  0.5327760000000 1.0
C      1  0.5210840000000  0.6959360000000  0.4066240000000 1.0
C      1  0.4254220000000  0.6499280000000  0.4305770000000 1.0
C      1  0.6082550000000  0.6674260000000  0.4663180000000 1.0
C      1  0.4908950000000  0.6721360000000  0.6056870000000 1.0
C      1  0.3168540000000  0.3714960000000  0.4703270000000 1.0
C      1  0.6202110000000  0.3645640000000  0.3556200000000 1.0
C      1  0.5602980000000  0.3740520000000  0.6681160000000 1.0
C      1  0.6826920000000  0.4425080000000  0.5485770000000 1.0
C      1  0.3635170000000  0.4364490000000  0.6341340000000 1.0
C      1  0.4567680000000  0.4356310000000  0.3080630000000 1.0
C      1  0.3563680000000  0.5269680000000  0.6641230000000 1.0
C      1  0.4090050000000  0.5099640000000  0.2782710000000 1.0
C      1  0.7183280000000  0.5309430000000  0.5350460000000 1.0
C      1  0.5758760000000  0.4516130000000  0.5608060000000 1.0
C      1  0.4147040000000  0.4334650000000  0.5359360000000 1.0
C      1  0.5174680000000  0.4379550000000  0.3978920000000 1.0
C      1  0.4824280000000  0.6359390000000  0.7063000000000 1.0
C      1  0.3355980000000  0.6251620000000  0.3780580000000 1.0
C      1  0.6869420000000  0.6305440000000  0.4081540000000 1.0
C      1  0.3479120000000  0.5844250000000  0.5749870000000 1.0
C      1  0.5346960000000  0.5834040000000  0.3940860000000 1.0
C      1  0.6402300000000  0.5860990000000  0.5863500000000 1.0
C      1  0.4353110000000  0.5421980000000  0.4087660000000 1.0
C      1  0.5987060000000  0.5581680000000  0.4841120000000 1.0
C      1  0.4595640000000  0.5701520000000  0.5930140000000 1.0
C      1  0.2846090000000  0.4603030000000  0.4551380000000 1.0
C      1  0.6507230000000  0.4529690000000  0.3384140000000 1.0
C      1  0.5622400000000  0.4626150000000  0.7005550000000 1.0
C      1  0.3869530000000  0.3382730000000  0.6243890000000 1.0
C      1  0.4493120000000  0.3391160000000  0.3410530000000 1.0
C      1  0.6565410000000  0.3471300000000  0.5316740000000 1.0
C      1  0.2837760000000  0.5456080000000  0.5050840000000 1.0
C      1  0.5978940000000  0.5323840000000  0.3169810000000 1.0
C      1  0.6102270000000  0.5453150000000  0.6774040000000 1.0
C      1  0.5452350000000  0.7828420000000  0.5562650000000 1.0
C      1  0.4393880000000  0.7742770000000  0.5379300000000 1.0
C      1  0.5076220000000  0.7881130000000  0.4555070000000 1.0
C      1  0.4772420000000  0.3135880000000  0.6429080000000 1.0
C      1  0.3883650000000  0.3187590000000  0.4119470000000 1.0
C      1  0.6315720000000  0.3153440000000  0.4462090000000 1.0
C      1  0.6548760000000  0.6145890000000  0.3190980000000 1.0
C      1  0.5739170000000  0.6170270000000  0.7318840000000 1.0
C      1  0.2650320000000  0.6180390000000  0.4431960000000 1.0
END
