TITL C-986978-6805-521 -0.00344181454690014 3375 -327.009204060216 0 0 60 (C2) n - 1
REM
REM in /home/bkarasulu/work/CARBON/AIRSS/Generating-Clusters/REBO/Higher-Symm/Only-C60
REM
REM
REM
REM
REM
REM ./C.cell (a2850807a9bf4ad07a5b6933b78d9264)
REM AIRSS Version 0.9.1 bugfix July 2018 build 013d7b7c2542+ Fri, 06 Jul 2018 19:26:36 +0100
REM compiler GCC version 9.2.1 20190827 (Red Hat 9.2.1-1)
REM options -cpp -mtune=generic -march=x86-64 -g -O0 -fpre-include=/usr/include/finclude/math-vector-fortran.h
REM seed 2043282225 998672616 -72290205 1472070768 -151111272 905252939 649114564 1425647754 1520193185 -1725252051 -2038610404 -783062186 1305669835 -1968013392 446810215 -1706008811 -1787732102 1302088430 1377806742 -1705788048 58101191 -1616150066 -542932561 -1195648594 -88057750 1222377695 -457766393 67113355 1148197974 -1791063232 432108641 1705332748 1520437826
REM
CELL 1.54180   15.00000   15.00000   15.00000   90.00000   90.00000   90.00000
LATT -1
SFAC C  
C      1  0.4741860000000  0.5960960000000  0.4333720000000 1.0
C      1  0.6055380000000  0.5091760000000  0.4464770000000 1.0
C      1  0.5258150000000  0.4039030000000  0.4333720000000 1.0
C      1  0.3944620000000  0.4908230000000  0.4464780000000 1.0
C      1  0.4727510000000  0.5798520000000  0.6158920000000 1.0
C      1  0.5622140000000  0.5228160000000  0.6243760000000 1.0
C      1  0.5272490000000  0.4201480000000  0.6158920000000 1.0
C      1  0.4377700000000  0.4771840000000  0.6243770000000 1.0
C      1  0.6043850000000  0.6908480000000  0.6767640000000 1.0
C      1  0.6918260000000  0.3757420000000  0.6816680000000 1.0
C      1  0.3956140000000  0.3091540000000  0.6767640000000 1.0
C      1  0.3081750000000  0.6242600000000  0.6816670000000 1.0
C      1  0.6369580000000  0.3323580000000  0.4235580000000 1.0
C      1  0.3394980000000  0.3742330000000  0.4151700000000 1.0
C      1  0.3630440000000  0.6676410000000  0.4235560000000 1.0
C      1  0.6605020000000  0.6257670000000  0.4151700000000 1.0
C      1  0.2946320000000  0.5769810000000  0.4288280000000 1.0
C      1  0.5666970000000  0.6900650000000  0.4177840000000 1.0
C      1  0.7053680000000  0.4230190000000  0.4288280000000 1.0
C      1  0.4333030000000  0.3099350000000  0.4177850000000 1.0
C      1  0.4934260000000  0.3659070000000  0.5244960000000 1.0
C      1  0.3774330000000  0.5227190000000  0.5396700000000 1.0
C      1  0.5065740000000  0.6340930000000  0.5244960000000 1.0
C      1  0.6225660000000  0.4772800000000  0.5396710000000 1.0
C      1  0.5858270000000  0.3688810000000  0.2749510000000 1.0
C      1  0.3734090000000  0.4022410000000  0.2937600000000 1.0
C      1  0.4141730000000  0.6311180000000  0.2749510000000 1.0
C      1  0.6265920000000  0.5977580000000  0.2937600000000 1.0
C      1  0.2936240000000  0.4716780000000  0.4065340000000 1.0
C      1  0.4614730000000  0.7038240000000  0.4126540000000 1.0
C      1  0.7063760000000  0.5283220000000  0.4065340000000 1.0
C      1  0.5385260000000  0.2961770000000  0.4126550000000 1.0
C      1  0.3386230000000  0.3656940000000  0.5965680000000 1.0
C      1  0.3614330000000  0.6818080000000  0.5998110000000 1.0
C      1  0.6613780000000  0.6343090000000  0.5965660000000 1.0
C      1  0.6385670000000  0.3181930000000  0.5998120000000 1.0
C      1  0.3059160000000  0.4736220000000  0.6092430000000 1.0
C      1  0.4661940000000  0.7101730000000  0.5909310000000 1.0
C      1  0.6941120000000  0.5263710000000  0.6092250000000 1.0
C      1  0.5338050000000  0.2898280000000  0.5909320000000 1.0
C      1  0.6220860000000  0.5829100000000  0.6900670000000 1.0
C      1  0.5839080000000  0.3663690000000  0.6867140000000 1.0
C      1  0.3779010000000  0.4171010000000  0.6900500000000 1.0
C      1  0.4160920000000  0.6336320000000  0.6867150000000 1.0
C      1  0.5276920000000  0.7347100000000  0.6543620000000 1.0
C      1  0.7366270000000  0.4533200000000  0.6631320000000 1.0
C      1  0.4723090000000  0.2652900000000  0.6543620000000 1.0
C      1  0.2633740000000  0.5466740000000  0.6631300000000 1.0
C      1  0.4082610000000  0.4997170000000  0.2622930000000 1.0
C      1  0.5007340000000  0.5663690000000  0.2677700000000 1.0
C      1  0.5917390000000  0.5002830000000  0.2622950000000 1.0
C      1  0.4992660000000  0.4336300000000  0.2677710000000 1.0
C      1  0.3425730000000  0.6219330000000  0.5219360000000 1.0
C      1  0.6126410000000  0.6484370000000  0.5131440000000 1.0
C      1  0.6574270000000  0.3780660000000  0.5219360000000 1.0
C      1  0.3873580000000  0.3515620000000  0.5131440000000 1.0
C      1  0.5508600000000  0.5650510000000  0.3704120000000 1.0
C      1  0.5962380000000  0.4403630000000  0.3576790000000 1.0
C      1  0.4491400000000  0.4349500000000  0.3704120000000 1.0
C      1  0.4037620000000  0.5596350000000  0.3576810000000 1.0
END
