TITL C-986978-6805-222 8.40426281991404e-06 3375 -336.265296152498 0 0 60 (C1) n - 1
REM
REM in /home/bkarasulu/work/CARBON/AIRSS/Generating-Clusters/REBO/Higher-Symm/Only-C60
REM
REM
REM
REM
REM
REM ./C.cell (a2850807a9bf4ad07a5b6933b78d9264)
REM AIRSS Version 0.9.1 bugfix July 2018 build 013d7b7c2542+ Fri, 06 Jul 2018 19:26:36 +0100
REM compiler GCC version 9.2.1 20190827 (Red Hat 9.2.1-1)
REM options -cpp -mtune=generic -march=x86-64 -g -O0 -fpre-include=/usr/include/finclude/math-vector-fortran.h
REM seed 505083615 -1436940824 897624295 173193108 -818426201 -1265348434 1176724924 -851965953 799188112 -961474586 47966602 33062504 1445080939 -1304444212 214503596 -2018294389 536663765 1953527419 -1740958545 1039358899 168517233 614450265 1609965603 -2131990256 630026805 -392022274 1988487576 1148214941 -1167569659 -628012535 -1534167571 -331865891 304235463
REM
CELL 1.54180   15.00000   15.00000   15.00000   90.00000   90.00000   90.00000
LATT -1
SFAC C  
C      1  0.7073550000000  0.4211720000000  0.4404940000000 1.0
C      1  0.7097400000000  0.5019810000000  0.5945870000000 1.0
C      1  0.7007560000000  0.5948240000000  0.4487370000000 1.0
C      1  0.5677970000000  0.3255380000000  0.4030460000000 1.0
C      1  0.5593910000000  0.5161270000000  0.6864240000000 1.0
C      1  0.5594040000000  0.6701580000000  0.3840090000000 1.0
C      1  0.7100920000000  0.6135340000000  0.6063390000000 1.0
C      1  0.7079020000000  0.5501850000000  0.3464260000000 1.0
C      1  0.7120480000000  0.3555650000000  0.5317490000000 1.0
C      1  0.5440830000000  0.4249820000000  0.7070210000000 1.0
C      1  0.5371560000000  0.7274960000000  0.4575910000000 1.0
C      1  0.5455760000000  0.3611480000000  0.3179390000000 1.0
C      1  0.4478410000000  0.5040870000000  0.6144590000000 1.0
C      1  0.4419330000000  0.6120950000000  0.4337500000000 1.0
C      1  0.4351910000000  0.4040150000000  0.4460420000000 1.0
C      1  0.3519060000000  0.5408060000000  0.6628500000000 1.0
C      1  0.3452620000000  0.6345930000000  0.3777290000000 1.0
C      1  0.3387760000000  0.3442970000000  0.4433500000000 1.0
C      1  0.2567060000000  0.5860560000000  0.4307480000000 1.0
C      1  0.2565570000000  0.4218850000000  0.4591010000000 1.0
C      1  0.2679410000000  0.5230730000000  0.5874230000000 1.0
C      1  0.3821760000000  0.6748260000000  0.5812030000000 1.0
C      1  0.3822350000000  0.4982280000000  0.3023080000000 1.0
C      1  0.3733510000000  0.3381710000000  0.5987810000000 1.0
C      1  0.3619880000000  0.7144400000000  0.4570330000000 1.0
C      1  0.3695020000000  0.3707230000000  0.3366720000000 1.0
C      1  0.3701690000000  0.4320300000000  0.6924160000000 1.0
C      1  0.6089190000000  0.7201700000000  0.5218460000000 1.0
C      1  0.6177030000000  0.4195380000000  0.2918820000000 1.0
C      1  0.6195250000000  0.3753760000000  0.6723040000000 1.0
C      1  0.5396070000000  0.6816980000000  0.2950970000000 1.0
C      1  0.5209940000000  0.2635120000000  0.4656400000000 1.0
C      1  0.4993220000000  0.5937310000000  0.6985320000000 1.0
C      1  0.3671040000000  0.6430530000000  0.6660820000000 1.0
C      1  0.3623450000000  0.5870410000000  0.2873220000000 1.0
C      1  0.3487220000000  0.2849950000000  0.5275610000000 1.0
C      1  0.4512660000000  0.4066810000000  0.7290530000000 1.0
C      1  0.4444040000000  0.7568660000000  0.4599580000000 1.0
C      1  0.4513740000000  0.3577910000000  0.2984070000000 1.0
C      1  0.4595930000000  0.4735380000000  0.3637410000000 1.0
C      1  0.4601300000000  0.3931720000000  0.5972350000000 1.0
C      1  0.4595390000000  0.6409650000000  0.5232930000000 1.0
C      1  0.5006560000000  0.5515690000000  0.3932310000000 1.0
C      1  0.5124730000000  0.3654820000000  0.5159080000000 1.0
C      1  0.5151150000000  0.5881660000000  0.5847830000000 1.0
C      1  0.6068800000000  0.4050080000000  0.4671530000000 1.0
C      1  0.6091280000000  0.5283160000000  0.5911090000000 1.0
C      1  0.6004200000000  0.5752880000000  0.4206050000000 1.0
C      1  0.6880110000000  0.4593510000000  0.3437570000000 1.0
C      1  0.6900840000000  0.3992080000000  0.6112170000000 1.0
C      1  0.6824330000000  0.6588080000000  0.5297970000000 1.0
C      1  0.3305820000000  0.6149470000000  0.5068660000000 1.0
C      1  0.3301340000000  0.4640630000000  0.3904120000000 1.0
C      1  0.3365260000000  0.4382160000000  0.5826320000000 1.0
C      1  0.2272050000000  0.5116030000000  0.4962970000000 1.0
C      1  0.3597590000000  0.5055090000000  0.4925490000000 1.0
C      1  0.8498080000000  0.5108250000000  0.4894130000000 1.0
C      1  0.4684680000000  0.4907350000000  0.5071290000000 1.0
C      1  0.5680400000000  0.5007050000000  0.4959590000000 1.0
C      1  0.7481420000000  0.5069350000000  0.4931110000000 1.0
END
