TITL C-986973-6940-730 -2.81854396923002e-05 3375 -340.552860151813 0 0 60 (C2) n - 1
REM
REM in /home/bkarasulu/work/CARBON/AIRSS/Generating-Clusters/REBO/Higher-Symm/Only-C60
REM
REM
REM
REM
REM
REM ./C.cell (a2850807a9bf4ad07a5b6933b78d9264)
REM AIRSS Version 0.9.1 bugfix July 2018 build 013d7b7c2542+ Fri, 06 Jul 2018 19:26:36 +0100
REM compiler GCC version 9.2.1 20190827 (Red Hat 9.2.1-1)
REM options -cpp -mtune=generic -march=x86-64 -g -O0 -fpre-include=/usr/include/finclude/math-vector-fortran.h
REM seed -1308725592 -1757726493 1428678162 1100536601 136721293 -2093122464 145793336 -271685055 -1447022552 -634103033 -340716324 -1636247479 -269262066 -2120810013 816130372 -1931551280 -991216367 -1374697559 -1683801006 -128249423 1717488967 1007488757 349479144 189347367 -2135241781 337465821 989569566 -1887138430 1141954044 1258303183 -1401208632 1353852063 -179840201
REM
CELL 1.54180   15.00000   15.00000   15.00000   90.00000   90.00000   90.00000
LATT -1
SFAC C  
C      1  0.7273650000000  0.4825550000000  0.4698420000000 1.0
C      1  0.2726350000000  0.5174450000000  0.4698420000000 1.0
C      1  0.5615940000000  0.5838260000000  0.4951520000000 1.0
C      1  0.4384060000000  0.4161740000000  0.4951520000000 1.0
C      1  0.2341510000000  0.4159450000000  0.3303310000000 1.0
C      1  0.7658490000000  0.5840550000000  0.3303310000000 1.0
C      1  0.6058600000000  0.7103160000000  0.3270130000000 1.0
C      1  0.3941400000000  0.2896840000000  0.3270130000000 1.0
C      1  0.2731370000000  0.4533120000000  0.5462330000000 1.0
C      1  0.7268630000000  0.5466880000000  0.5462330000000 1.0
C      1  0.6216690000000  0.7253130000000  0.5176220000000 1.0
C      1  0.3783310000000  0.2746870000000  0.5176220000000 1.0
C      1  0.5489240000000  0.2925220000000  0.5821940000000 1.0
C      1  0.4510760000000  0.7074780000000  0.5821940000000 1.0
C      1  0.3363520000000  0.6960300000000  0.4173730000000 1.0
C      1  0.6636480000000  0.3039700000000  0.4173730000000 1.0
C      1  0.4856320000000  0.2421250000000  0.5148250000000 1.0
C      1  0.5143680000000  0.7578750000000  0.5148250000000 1.0
C      1  0.5148550000000  0.6658840000000  0.6670010000000 1.0
C      1  0.4851450000000  0.3341160000000  0.6670010000000 1.0
C      1  0.4360290000000  0.5175520000000  0.4632380000000 1.0
C      1  0.5639710000000  0.4824480000000  0.4632380000000 1.0
C      1  0.4338880000000  0.2732530000000  0.4186670000000 1.0
C      1  0.5661120000000  0.7267470000000  0.4186670000000 1.0
C      1  0.3382220000000  0.3791850000000  0.5329900000000 1.0
C      1  0.6617780000000  0.6208150000000  0.5329900000000 1.0
C      1  0.2903020000000  0.5195820000000  0.7091260000000 1.0
C      1  0.7096980000000  0.4804180000000  0.7091260000000 1.0
C      1  0.4013280000000  0.3717640000000  0.2873910000000 1.0
C      1  0.5986720000000  0.6282360000000  0.2873910000000 1.0
C      1  0.5609520000000  0.5796600000000  0.6091360000000 1.0
C      1  0.4390480000000  0.4203400000000  0.6091360000000 1.0
C      1  0.4138980000000  0.6050430000000  0.6090440000000 1.0
C      1  0.5861020000000  0.3949570000000  0.6090440000000 1.0
C      1  0.4982520000000  0.6465680000000  0.4414970000000 1.0
C      1  0.5017480000000  0.3534320000000  0.4414970000000 1.0
C      1  0.2989020000000  0.6039430000000  0.3887270000000 1.0
C      1  0.7010980000000  0.3960570000000  0.3887270000000 1.0
C      1  0.5210180000000  0.4368700000000  0.3738870000000 1.0
C      1  0.4789820000000  0.5631300000000  0.3738870000000 1.0
C      1  0.4219040000000  0.6163260000000  0.7105810000000 1.0
C      1  0.5780960000000  0.3836740000000  0.7105810000000 1.0
C      1  0.4390860000000  0.4494490000000  0.3173270000000 1.0
C      1  0.5609140000000  0.5505510000000  0.3173270000000 1.0
C      1  0.5686740000000  0.4786250000000  0.5742280000000 1.0
C      1  0.4313260000000  0.5213750000000  0.5742280000000 1.0
C      1  0.6171590000000  0.6778890000000  0.6206180000000 1.0
C      1  0.3828410000000  0.3221110000000  0.6206180000000 1.0
C      1  0.6260080000000  0.4701730000000  0.3459880000000 1.0
C      1  0.3739920000000  0.5298270000000  0.3459880000000 1.0
C      1  0.7381860000000  0.5172450000000  0.6314120000000 1.0
C      1  0.2618140000000  0.4827550000000  0.6314120000000 1.0
C      1  0.7191390000000  0.5247780000000  0.3734930000000 1.0
C      1  0.2808610000000  0.4752220000000  0.3734930000000 1.0
C      1  0.3557240000000  0.5838850000000  0.4847990000000 1.0
C      1  0.6442760000000  0.4161150000000  0.4847990000000 1.0
C      1  0.6469200000000  0.4302180000000  0.7534740000000 1.0
C      1  0.3530800000000  0.5697820000000  0.7534740000000 1.0
C      1  0.4113880000000  0.6783350000000  0.4867930000000 1.0
C      1  0.5886120000000  0.3216650000000  0.4867930000000 1.0
END
