TITL C-986978-6805-40 0.000530945743161113 3375 -348.763685588209 0 0 60 (C2) n - 1
REM
REM in /home/bkarasulu/work/CARBON/AIRSS/Generating-Clusters/REBO/Higher-Symm/Only-C60
REM
REM
REM
REM
REM
REM ./C.cell (a2850807a9bf4ad07a5b6933b78d9264)
REM AIRSS Version 0.9.1 bugfix July 2018 build 013d7b7c2542+ Fri, 06 Jul 2018 19:26:36 +0100
REM compiler GCC version 9.2.1 20190827 (Red Hat 9.2.1-1)
REM options -cpp -mtune=generic -march=x86-64 -g -O0 -fpre-include=/usr/include/finclude/math-vector-fortran.h
REM seed -1186653638 1485963569 1079504924 2092636713 -326560245 -1512648575 1128815671 -1189073297 -642429984 2080939344 -1264247285 -1730907202 845051231 -136340316 -1238690392 -1614794611 -89889408 -1340678277 -1418182526 628889222 705682331 -1294787554 -196790447 1322002750 -1893904090 -514004714 1286368979 -1969746487 1256151627 995553145 -527677781 -1299468006 540762743
REM
CELL 1.54180   15.00000   15.00000   15.00000   90.00000   90.00000   90.00000
LATT -1
SFAC C  
C      1  0.3455490000000  0.4751010000000  0.3157060000000 1.0
C      1  0.6544510000000  0.4751010000000  0.6842940000000 1.0
C      1  0.3392990000000  0.4744640000000  0.6888530000000 1.0
C      1  0.6607030000000  0.4744630000000  0.3111460000000 1.0
C      1  0.6494220000000  0.3834180000000  0.6892550000000 1.0
C      1  0.3505780000000  0.3834180000000  0.3107450000000 1.0
C      1  0.6556810000000  0.3831700000000  0.3036310000000 1.0
C      1  0.3443180000000  0.3831690000000  0.6963700000000 1.0
C      1  0.2806520000000  0.5313830000000  0.6145070000000 1.0
C      1  0.7193470000000  0.5313840000000  0.3854930000000 1.0
C      1  0.2857610000000  0.5321470000000  0.3880010000000 1.0
C      1  0.7142380000000  0.5321470000000  0.6119990000000 1.0
C      1  0.4524180000000  0.5911750000000  0.5692940000000 1.0
C      1  0.5475840000000  0.5911760000000  0.4306970000000 1.0
C      1  0.4579110000000  0.5910860000000  0.4361160000000 1.0
C      1  0.5420910000000  0.5910870000000  0.5638950000000 1.0
C      1  0.5597720000000  0.5256830000000  0.3154490000000 1.0
C      1  0.4402270000000  0.5256830000000  0.6845560000000 1.0
C      1  0.5536120000000  0.5259870000000  0.6795280000000 1.0
C      1  0.4463880000000  0.5259850000000  0.3204680000000 1.0
C      1  0.5825860000000  0.5063780000000  0.5443860000000 1.0
C      1  0.4174150000000  0.5063800000000  0.4556110000000 1.0
C      1  0.5892340000000  0.5055850000000  0.4492280000000 1.0
C      1  0.4107660000000  0.5055870000000  0.5507740000000 1.0
C      1  0.2306380000000  0.4802400000000  0.4582940000000 1.0
C      1  0.7693620000000  0.4802410000000  0.5417070000000 1.0
C      1  0.2289260000000  0.4796900000000  0.5413990000000 1.0
C      1  0.7710740000000  0.4796900000000  0.4586010000000 1.0
C      1  0.6751550000000  0.3082770000000  0.5380850000000 1.0
C      1  0.3248450000000  0.3082780000000  0.4619150000000 1.0
C      1  0.6798070000000  0.3101230000000  0.4560750000000 1.0
C      1  0.3201920000000  0.3101230000000  0.5439250000000 1.0
C      1  0.3647140000000  0.6018960000000  0.3434380000000 1.0
C      1  0.6352860000000  0.6018960000000  0.6565600000000 1.0
C      1  0.3582460000000  0.6009810000000  0.6612370000000 1.0
C      1  0.6417510000000  0.6009800000000  0.3387650000000 1.0
C      1  0.3228460000000  0.6152790000000  0.5513140000000 1.0
C      1  0.6771540000000  0.6152780000000  0.4486860000000 1.0
C      1  0.3277270000000  0.6142290000000  0.4529010000000 1.0
C      1  0.6722750000000  0.6142290000000  0.5470980000000 1.0
C      1  0.4002640000000  0.6837880000000  0.5967080000000 1.0
C      1  0.5997360000000  0.6837880000000  0.4032920000000 1.0
C      1  0.4062830000000  0.6832270000000  0.4112540000000 1.0
C      1  0.5937160000000  0.6832260000000  0.5887460000000 1.0
C      1  0.5564940000000  0.4308540000000  0.3816070000000 1.0
C      1  0.4435040000000  0.4308500000000  0.6183920000000 1.0
C      1  0.5514190000000  0.4311070000000  0.6125190000000 1.0
C      1  0.4485810000000  0.4311080000000  0.3874810000000 1.0
C      1  0.5539470000000  0.2689270000000  0.4422750000000 1.0
C      1  0.4460520000000  0.2689280000000  0.5577250000000 1.0
C      1  0.5473680000000  0.2714120000000  0.5462320000000 1.0
C      1  0.4526330000000  0.2714120000000  0.4537680000000 1.0
C      1  0.5473070000000  0.7596550000000  0.5462670000000 1.0
C      1  0.4526930000000  0.7596550000000  0.4537330000000 1.0
C      1  0.5561140000000  0.7621040000000  0.4427900000000 1.0
C      1  0.4438860000000  0.7621040000000  0.5572100000000 1.0
C      1  0.3987490000000  0.3365920000000  0.3919930000000 1.0
C      1  0.6012500000000  0.3365920000000  0.6080070000000 1.0
C      1  0.3930950000000  0.3360420000000  0.6165780000000 1.0
C      1  0.6069070000000  0.3360420000000  0.3834210000000 1.0
END
