TITL C-986979-5873-838 0.0958054983553469 3375 -331.24885954198 0 0 60 (Ci) n - 1
REM
REM in /home/bkarasulu/work/CARBON/AIRSS/Generating-Clusters/REBO/Higher-Symm/Only-C60
REM
REM
REM
REM
REM
REM ./C.cell (a2850807a9bf4ad07a5b6933b78d9264)
REM AIRSS Version 0.9.1 bugfix July 2018 build 013d7b7c2542+ Fri, 06 Jul 2018 19:26:36 +0100
REM compiler GCC version 9.2.1 20190827 (Red Hat 9.2.1-1)
REM options -cpp -mtune=generic -march=x86-64 -g -O0 -fpre-include=/usr/include/finclude/math-vector-fortran.h
REM seed -945648554 -15102150 -1977386400 1768028911 -1995110100 1942120832 356645767 -194033555 2134301948 22155851 487251283 -1241137617 -575183659 1523543395 -246510552 -764516608 -44420602 -2097260089 733135148 1587509134 -1721882333 -10049514 1703707435 2144209150 636729111 1788714046 -1550605367 1912019023 -297282962 -123576269 -1650966570 464090708 509741448
REM
CELL 1.54180   15.00000   15.00000   15.00000   90.00000   90.00000   90.00000
LATT -1
SFAC C  
C      1  0.4906710000000  0.2762760000000  0.4383620000000 1.0
C      1  0.5093170000000  0.7237370000000  0.5615470000000 1.0
C      1  0.3628910000000  0.4603270000000  0.6643590000000 1.0
C      1  0.6370860000000  0.5398350000000  0.3357410000000 1.0
C      1  0.2764140000000  0.4002060000000  0.5368870000000 1.0
C      1  0.7238060000000  0.5997140000000  0.4632110000000 1.0
C      1  0.6940950000000  0.4273160000000  0.4984110000000 1.0
C      1  0.3058430000000  0.5726890000000  0.5016480000000 1.0
C      1  0.5034190000000  0.3841170000000  0.7258780000000 1.0
C      1  0.4965130000000  0.6159510000000  0.2740360000000 1.0
C      1  0.4026640000000  0.2823890000000  0.5063930000000 1.0
C      1  0.5973370000000  0.7176410000000  0.4935040000000 1.0
C      1  0.7148050000000  0.3819980000000  0.5762080000000 1.0
C      1  0.2850970000000  0.6179530000000  0.4238240000000 1.0
C      1  0.5373890000000  0.3868490000000  0.5536240000000 1.0
C      1  0.4625310000000  0.6131290000000  0.4463160000000 1.0
C      1  0.2511770000000  0.3688770000000  0.4418220000000 1.0
C      1  0.7493130000000  0.6308540000000  0.5582820000000 1.0
C      1  0.6758590000000  0.5260490000000  0.5251210000000 1.0
C      1  0.3241820000000  0.4739630000000  0.4749680000000 1.0
C      1  0.3110700000000  0.4957810000000  0.3079800000000 1.0
C      1  0.6888140000000  0.5041000000000  0.6919500000000 1.0
C      1  0.7095660000000  0.5859180000000  0.3728750000000 1.0
C      1  0.2904770000000  0.4141260000000  0.6272370000000 1.0
C      1  0.3867090000000  0.3283800000000  0.5934370000000 1.0
C      1  0.6132310000000  0.6716380000000  0.4064340000000 1.0
C      1  0.4950100000000  0.5050940000000  0.2566000000000 1.0
C      1  0.5050490000000  0.4949550000000  0.7434050000000 1.0
C      1  0.4190830000000  0.5198010000000  0.6035410000000 1.0
C      1  0.5808950000000  0.4803130000000  0.3965080000000 1.0
C      1  0.5796660000000  0.3311980000000  0.6729880000000 1.0
C      1  0.4201920000000  0.6687020000000  0.3269840000000 1.0
C      1  0.4686380000000  0.3820820000000  0.6195730000000 1.0
C      1  0.5312890000000  0.6179340000000  0.3803630000000 1.0
C      1  0.2906870000000  0.4355730000000  0.3731030000000 1.0
C      1  0.7095410000000  0.5642660000000  0.6269900000000 1.0
C      1  0.5175270000000  0.5447500000000  0.6529830000000 1.0
C      1  0.4825050000000  0.4553150000000  0.3470280000000 1.0
C      1  0.4105270000000  0.4422330000000  0.7428890000000 1.0
C      1  0.5894940000000  0.5579020000000  0.2571820000000 1.0
C      1  0.5066960000000  0.6475830000000  0.6429250000000 1.0
C      1  0.4932970000000  0.3524890000000  0.3570370000000 1.0
C      1  0.4953360000000  0.2384750000000  0.5428030000000 1.0
C      1  0.5046200000000  0.7614390000000  0.4570830000000 1.0
C      1  0.5811710000000  0.7274980000000  0.3233370000000 1.0
C      1  0.4187240000000  0.2724620000000  0.6764800000000 1.0
C      1  0.4538570000000  0.5233090000000  0.5005130000000 1.0
C      1  0.5461220000000  0.4767750000000  0.4995170000000 1.0
C      1  0.6349070000000  0.3986350000000  0.4325680000000 1.0
C      1  0.3650440000000  0.6014490000000  0.5674530000000 1.0
C      1  0.4908330000000  0.7443920000000  0.3644970000000 1.0
C      1  0.5090870000000  0.2554840000000  0.6354220000000 1.0
C      1  0.3977150000000  0.6847690000000  0.4388240000000 1.0
C      1  0.6021650000000  0.3152290000000  0.5611440000000 1.0
C      1  0.5941080000000  0.4985920000000  0.5989650000000 1.0
C      1  0.4060760000000  0.5014550000000  0.4012110000000 1.0
C      1  0.4147390000000  0.6763990000000  0.5928820000000 1.0
C      1  0.5852350000000  0.3236870000000  0.4071080000000 1.0
C      1  0.6456530000000  0.4115430000000  0.6516350000000 1.0
C      1  0.3542350000000  0.5884070000000  0.3484040000000 1.0
END
