TITL C-986973-6940-242 -0.0270830120888986 3375 -344.949328365059 0 0 60 (C3) n - 1
REM
REM in /home/bkarasulu/work/CARBON/AIRSS/Generating-Clusters/REBO/Higher-Symm/Only-C60
REM
REM
REM
REM
REM
REM ./C.cell (a2850807a9bf4ad07a5b6933b78d9264)
REM AIRSS Version 0.9.1 bugfix July 2018 build 013d7b7c2542+ Fri, 06 Jul 2018 19:26:36 +0100
REM compiler GCC version 9.2.1 20190827 (Red Hat 9.2.1-1)
REM options -cpp -mtune=generic -march=x86-64 -g -O0 -fpre-include=/usr/include/finclude/math-vector-fortran.h
REM seed 1424699550 1013073044 -1481784285 -1754054969 1140902596 887068444 -971185289 -592181364 1270079286 -863529821 1042548489 2035424655 1218995263 1335502989 1506107764 384422976 444431493 -1795729691 1613514126 71219057 787564082 -630424178 1901290480 -2009414275 448368747 1599465135 319325204 -1375500114 1207444177 -153332068 -1344334550 -622597771 -1389443628
REM
CELL 1.54180   15.00000   15.00000   15.00000   90.00000   90.00000   90.00000
LATT -1
SFAC C  
C      1  0.6347760000000  0.6881790000000  0.6095030000000 1.0
C      1  0.5148370000000  0.7293070000000  0.4025860000000 1.0
C      1  0.3890060000000  0.7468460000000  0.5610030000000 1.0
C      1  0.2743480000000  0.6561370000000  0.4316600000000 1.0
C      1  0.2696160000000  0.5226070000000  0.6095140000000 1.0
C      1  0.2940520000000  0.3981850000000  0.4025360000000 1.0
C      1  0.3417060000000  0.2804840000000  0.5609940000000 1.0
C      1  0.4775790000000  0.2265320000000  0.4316360000000 1.0
C      1  0.5956100000000  0.2891820000000  0.6095340000000 1.0
C      1  0.6911700000000  0.3725260000000  0.4025770000000 1.0
C      1  0.7692610000000  0.4726990000000  0.5610220000000 1.0
C      1  0.7479990000000  0.6173760000000  0.4317020000000 1.0
C      1  0.5638000000000  0.3455000000000  0.3683470000000 1.0
C      1  0.6595370000000  0.4363750000000  0.6264780000000 1.0
C      1  0.6699980000000  0.5314020000000  0.3672100000000 1.0
C      1  0.6554050000000  0.5582620000000  0.6302280000000 1.0
C      1  0.6019290000000  0.6325390000000  0.3683530000000 1.0
C      1  0.4753470000000  0.6699130000000  0.6265110000000 1.0
C      1  0.3878120000000  0.6315500000000  0.3671950000000 1.0
C      1  0.3718790000000  0.6054250000000  0.6302410000000 1.0
C      1  0.3342760000000  0.5220250000000  0.3683300000000 1.0
C      1  0.3651500000000  0.3936400000000  0.6264490000000 1.0
C      1  0.4421870000000  0.3371080000000  0.3671420000000 1.0
C      1  0.4727520000000  0.3362650000000  0.6302210000000 1.0
C      1  0.4370880000000  0.7226500000000  0.3713270000000 1.0
C      1  0.3472160000000  0.7063410000000  0.6238470000000 1.0
C      1  0.2596650000000  0.5958620000000  0.3723960000000 1.0
C      1  0.2769490000000  0.4444720000000  0.6411130000000 1.0
C      1  0.3386500000000  0.3341600000000  0.3712590000000 1.0
C      1  0.3976300000000  0.2645380000000  0.6238730000000 1.0
C      1  0.5371550000000  0.2439430000000  0.3723930000000 1.0
C      1  0.6596090000000  0.3345900000000  0.6411070000000 1.0
C      1  0.7242650000000  0.4431770000000  0.3712750000000 1.0
C      1  0.7551400000000  0.5291010000000  0.6238260000000 1.0
C      1  0.7031710000000  0.6602240000000  0.3724300000000 1.0
C      1  0.5634190000000  0.7209130000000  0.6411410000000 1.0
C      1  0.5306920000000  0.3327010000000  0.5343640000000 1.0
C      1  0.6013120000000  0.3707590000000  0.4680990000000 1.0
C      1  0.6723680000000  0.4387130000000  0.5164750000000 1.0
C      1  0.6869650000000  0.5373970000000  0.4786740000000 1.0
C      1  0.6294930000000  0.6102160000000  0.5343850000000 1.0
C      1  0.5612700000000  0.6523660000000  0.4680970000000 1.0
C      1  0.4668990000000  0.6799190000000  0.5164640000000 1.0
C      1  0.3741210000000  0.6432210000000  0.4786570000000 1.0
C      1  0.3397840000000  0.5570260000000  0.5343780000000 1.0
C      1  0.3374220000000  0.4768710000000  0.4680910000000 1.0
C      1  0.3607290000000  0.3813820000000  0.5164610000000 1.0
C      1  0.4388860000000  0.3193560000000  0.4786400000000 1.0
C      1  0.4891660000000  0.5938180000000  0.6922860000000 1.0
C      1  0.4406380000000  0.5736320000000  0.3051660000000 1.0
C      1  0.4114930000000  0.5352650000000  0.6977510000000 1.0
C      1  0.4063010000000  0.4825590000000  0.3016230000000 1.0
C      1  0.4241740000000  0.4437230000000  0.6922550000000 1.0
C      1  0.4659560000000  0.4117710000000  0.3051120000000 1.0
C      1  0.5137000000000  0.4057210000000  0.6976950000000 1.0
C      1  0.5619840000000  0.4275780000000  0.3015810000000 1.0
C      1  0.5866510000000  0.4624360000000  0.6922490000000 1.0
C      1  0.5934700000000  0.5146370000000  0.3051620000000 1.0
C      1  0.5747980000000  0.5589880000000  0.6977390000000 1.0
C      1  0.5317400000000  0.5899120000000  0.3016350000000 1.0
END
