TITL C-986973-6940-1086 -0.0061414537263618 3375 -345.378177893914 0 0 60 (Ci) n - 1
REM
REM in /home/bkarasulu/work/CARBON/AIRSS/Generating-Clusters/REBO/Higher-Symm/Only-C60
REM
REM
REM
REM
REM
REM ./C.cell (a2850807a9bf4ad07a5b6933b78d9264)
REM AIRSS Version 0.9.1 bugfix July 2018 build 013d7b7c2542+ Fri, 06 Jul 2018 19:26:36 +0100
REM compiler GCC version 9.2.1 20190827 (Red Hat 9.2.1-1)
REM options -cpp -mtune=generic -march=x86-64 -g -O0 -fpre-include=/usr/include/finclude/math-vector-fortran.h
REM seed -1572329801 1827601264 812079476 -247687295 495518397 514544632 1471304060 977342248 -395207043 -1663877252 712043898 -1801606016 -1578537855 888563323 -1069922550 1758372671 -1226502805 -1786863288 741369713 1713029650 -2100908022 1765795551 -364453632 1613342304 981113315 1085981662 1932114398 -605767646 -1187485077 -1176689601 -1679011804 -367709373 -566837447
REM
CELL 1.54180   15.00000   15.00000   15.00000   90.00000   90.00000   90.00000
LATT -1
SFAC C  
C      1  0.4869890000000  0.4457750000000  0.5435900000000 1.0
C      1  0.5164740000000  0.5422220000000  0.5682440000000 1.0
C      1  0.4840510000000  0.4578290000000  0.4320060000000 1.0
C      1  0.5133550000000  0.5540340000000  0.4566370000000 1.0
C      1  0.7473660000000  0.6066020000000  0.5399830000000 1.0
C      1  0.2391250000000  0.3852510000000  0.5611750000000 1.0
C      1  0.7608250000000  0.6147180000000  0.4387820000000 1.0
C      1  0.2525460000000  0.3933670000000  0.4599160000000 1.0
C      1  0.5672240000000  0.5201660000000  0.7270230000000 1.0
C      1  0.4242740000000  0.4714330000000  0.7238780000000 1.0
C      1  0.5758050000000  0.5285610000000  0.2759780000000 1.0
C      1  0.4326370000000  0.4796170000000  0.2731830000000 1.0
C      1  0.5866010000000  0.5959330000000  0.3883530000000 1.0
C      1  0.4170390000000  0.3944220000000  0.3712300000000 1.0
C      1  0.5828800000000  0.6057110000000  0.6291580000000 1.0
C      1  0.4132510000000  0.4040720000000  0.6115630000000 1.0
C      1  0.6222780000000  0.3286910000000  0.6186020000000 1.0
C      1  0.3720480000000  0.6687880000000  0.6210910000000 1.0
C      1  0.6279880000000  0.3312320000000  0.3787700000000 1.0
C      1  0.3778220000000  0.6712030000000  0.3813480000000 1.0
C      1  0.6995920000000  0.5146780000000  0.5547600000000 1.0
C      1  0.2909120000000  0.4782510000000  0.5542510000000 1.0
C      1  0.7090130000000  0.5217060000000  0.4456390000000 1.0
C      1  0.3001980000000  0.4853660000000  0.4451570000000 1.0
C      1  0.4918690000000  0.5816250000000  0.6931960000000 1.0
C      1  0.4990100000000  0.4141050000000  0.6853120000000 1.0
C      1  0.5009780000000  0.5857200000000  0.3144050000000 1.0
C      1  0.5080240000000  0.4184900000000  0.3069760000000 1.0
C      1  0.4516670000000  0.2547870000000  0.4503840000000 1.0
C      1  0.5521620000000  0.7530470000000  0.4393480000000 1.0
C      1  0.4478920000000  0.2468130000000  0.5607270000000 1.0
C      1  0.5482740000000  0.7451800000000  0.5496050000000 1.0
C      1  0.6872470000000  0.3349570000000  0.4537880000000 1.0
C      1  0.3176020000000  0.6672940000000  0.4550940000000 1.0
C      1  0.6824580000000  0.3326710000000  0.5448260000000 1.0
C      1  0.3127710000000  0.6650150000000  0.5461900000000 1.0
C      1  0.5882620000000  0.4100550000000  0.6557980000000 1.0
C      1  0.4031850000000  0.5875470000000  0.6621750000000 1.0
C      1  0.5968120000000  0.4125650000000  0.3378550000000 1.0
C      1  0.4116480000000  0.5900020000000  0.3440720000000 1.0
C      1  0.6251140000000  0.6879000000000  0.3984070000000 1.0
C      1  0.3801180000000  0.3108710000000  0.4062450000000 1.0
C      1  0.6199820000000  0.6894370000000  0.5938650000000 1.0
C      1  0.3748440000000  0.3120680000000  0.6015020000000 1.0
C      1  0.7161510000000  0.6880980000000  0.3975490000000 1.0
C      1  0.2896640000000  0.3160060000000  0.4185580000000 1.0
C      1  0.7104170000000  0.6841470000000  0.5813190000000 1.0
C      1  0.2837720000000  0.3117800000000  0.6023200000000 1.0
C      1  0.3531010000000  0.4955940000000  0.6377130000000 1.0
C      1  0.6362680000000  0.5053490000000  0.6363910000000 1.0
C      1  0.3634770000000  0.4948870000000  0.3634660000000 1.0
C      1  0.6468420000000  0.5043830000000  0.3622030000000 1.0
C      1  0.5185850000000  0.3586300000000  0.4487490000000 1.0
C      1  0.4902390000000  0.6617190000000  0.4514590000000 1.0
C      1  0.5097670000000  0.3382840000000  0.5486670000000 1.0
C      1  0.4814850000000  0.6414030000000  0.5513460000000 1.0
C      1  0.5485470000000  0.2670050000000  0.3956530000000 1.0
C      1  0.4504300000000  0.7450990000000  0.3888230000000 1.0
C      1  0.5496180000000  0.2547730000000  0.6112540000000 1.0
C      1  0.4514260000000  0.7330680000000  0.6044430000000 1.0
END
