TITL C-986973-6940-138 -6.33580145619638e-06 3375 -352.975921800995 0 0 60 (C5) n - 1
REM
REM in /home/bkarasulu/work/CARBON/AIRSS/Generating-Clusters/REBO/Higher-Symm/Only-C60
REM
REM
REM
REM
REM
REM ./C.cell (a2850807a9bf4ad07a5b6933b78d9264)
REM AIRSS Version 0.9.1 bugfix July 2018 build 013d7b7c2542+ Fri, 06 Jul 2018 19:26:36 +0100
REM compiler GCC version 9.2.1 20190827 (Red Hat 9.2.1-1)
REM options -cpp -mtune=generic -march=x86-64 -g -O0 -fpre-include=/usr/include/finclude/math-vector-fortran.h
REM seed -2028133958 2042790767 -1236475418 2032885762 944943045 23601472 1934161852 207046155 1323250788 829623290 25510591 577400452 741364767 601793105 -307525129 -134422696 -1647737428 1796821342 798050602 653577505 1300054135 -969871815 -1402483118 -30727798 896357390 152719002 1683042979 -2132966404 -299244381 1906089946 -1050089486 337662851 839377112
REM
CELL 1.54180   15.00000   15.00000   15.00000   90.00000   90.00000   90.00000
LATT -1
SFAC C  
C      1  0.5994640000000  0.3736030000000  0.2928850000000 1.0
C      1  0.6509510000000  0.5555370000000  0.2928880000000 1.0
C      1  0.4938320000000  0.6607250000000  0.2928880000000 1.0
C      1  0.3452400000000  0.5438010000000  0.2928850000000 1.0
C      1  0.4105240000000  0.3663490000000  0.2928830000000 1.0
C      1  0.5838580000000  0.5822440000000  0.5349600000000 1.0
C      1  0.4476940000000  0.6051680000000  0.5349590000000 1.0
C      1  0.3838150000000  0.4827530000000  0.5349570000000 1.0
C      1  0.4804990000000  0.3841720000000  0.5349560000000 1.0
C      1  0.6041320000000  0.4456600000000  0.5349590000000 1.0
C      1  0.4611050000000  0.3166800000000  0.6618060000000 1.0
C      1  0.6623250000000  0.4063590000000  0.6618100000000 1.0
C      1  0.6392160000000  0.6254440000000  0.6618130000000 1.0
C      1  0.4237130000000  0.6711660000000  0.6618110000000 1.0
C      1  0.3136340000000  0.4803400000000  0.6618070000000 1.0
C      1  0.6727770000000  0.3387110000000  0.5742010000000 1.0
C      1  0.7067840000000  0.6144800000000  0.5742060000000 1.0
C      1  0.4550210000000  0.7320400000000  0.5742050000000 1.0
C      1  0.2654170000000  0.5289270000000  0.5742000000000 1.0
C      1  0.3999970000000  0.2858370000000  0.5741980000000 1.0
C      1  0.3294550000000  0.3194430000000  0.4357970000000 1.0
C      1  0.6190200000000  0.2820070000000  0.4357990000000 1.0
C      1  0.7441040000000  0.5458320000000  0.4358040000000 1.0
C      1  0.5318450000000  0.7463200000000  0.4358050000000 1.0
C      1  0.2755780000000  0.6064030000000  0.4358010000000 1.0
C      1  0.5143780000000  0.2814960000000  0.5664740000000 1.0
C      1  0.7122510000000  0.4461530000000  0.5664780000000 1.0
C      1  0.6168000000000  0.6852230000000  0.5664800000000 1.0
C      1  0.3599340000000  0.6683200000000  0.5664780000000 1.0
C      1  0.2966340000000  0.4188030000000  0.5664730000000 1.0
C      1  0.5914290000000  0.4745260000000  0.7190000000000 1.0
C      1  0.5524760000000  0.5790820000000  0.7190010000000 1.0
C      1  0.4410000000000  0.5743450000000  0.7190000000000 1.0
C      1  0.4110570000000  0.4668610000000  0.7189980000000 1.0
C      1  0.5040280000000  0.4051700000000  0.7189980000000 1.0
C      1  0.3273180000000  0.3273860000000  0.5305600000000 1.0
C      1  0.6108040000000  0.2824290000000  0.5305620000000 1.0
C      1  0.7411620000000  0.5381470000000  0.5305670000000 1.0
C      1  0.5382420000000  0.7411470000000  0.5305680000000 1.0
C      1  0.2824720000000  0.6108890000000  0.5305640000000 1.0
C      1  0.5516270000000  0.4347800000000  0.2392920000000 1.0
C      1  0.5779860000000  0.5289460000000  0.2392940000000 1.0
C      1  0.4965750000000  0.5831140000000  0.2392930000000 1.0
C      1  0.4199000000000  0.5224270000000  0.2392920000000 1.0
C      1  0.4539240000000  0.4307510000000  0.2392910000000 1.0
C      1  0.6020740000000  0.3599630000000  0.3853130000000 1.0
C      1  0.6647280000000  0.5538050000000  0.3853170000000 1.0
C      1  0.4997350000000  0.6732920000000  0.3853170000000 1.0
C      1  0.3351090000000  0.5532980000000  0.3853140000000 1.0
C      1  0.3983590000000  0.3596500000000  0.3853110000000 1.0
C      1  0.6159120000000  0.5215970000000  0.6185890000000 1.0
C      1  0.5152770000000  0.6169120000000  0.6185890000000 1.0
C      1  0.3935280000000  0.5506570000000  0.6185870000000 1.0
C      1  0.4189190000000  0.4143930000000  0.6185860000000 1.0
C      1  0.5563590000000  0.3964330000000  0.6185870000000 1.0
C      1  0.5822220000000  0.5374610000000  0.4411100000000 1.0
C      1  0.4897820000000  0.5897740000000  0.4411100000000 1.0
C      1  0.4114640000000  0.5180230000000  0.4411080000000 1.0
C      1  0.4555010000000  0.4213670000000  0.4411070000000 1.0
C      1  0.5610350000000  0.4333800000000  0.4411080000000 1.0
END
