TITL C-986976-6631-899 4.34594034549098e-06 3375 -334.458071276416 0 0 60 (S12) n - 1
REM
REM in /home/bkarasulu/work/CARBON/AIRSS/Generating-Clusters/REBO/Higher-Symm/Only-C60
REM
REM
REM
REM
REM
REM ./C.cell (a2850807a9bf4ad07a5b6933b78d9264)
REM AIRSS Version 0.9.1 bugfix July 2018 build 013d7b7c2542+ Fri, 06 Jul 2018 19:26:36 +0100
REM compiler GCC version 9.2.1 20190827 (Red Hat 9.2.1-1)
REM options -cpp -mtune=generic -march=x86-64 -g -O0 -fpre-include=/usr/include/finclude/math-vector-fortran.h
REM seed 831288066 1070322697 -1757367831 -1731890834 933991536 655455273 -1039870132 970990804 -543500553 267319553 998372919 -1344436252 1948802781 717018772 669580862 132750762 636416175 -276321922 -1731639698 1002588309 -1920939063 -430879958 -86535840 1262116852 -1873157048 -1307848697 1536820220 401078864 -1831760807 -1246850942 -311341177 1189346215 546615497
REM
CELL 1.54180   15.00000   15.00000   15.00000   90.00000   90.00000   90.00000
LATT -1
SFAC C  
C      1  0.6570510000000  0.4716980000000  0.5688260000000 1.0
C      1  0.6704230000000  0.5283000000000  0.4810790000000 1.0
C      1  0.6381300000000  0.4716990000000  0.3984020000000 1.0
C      1  0.5688260000000  0.5283010000000  0.3429490000000 1.0
C      1  0.4810790000000  0.4717000000000  0.3295770000000 1.0
C      1  0.3984030000000  0.5283010000000  0.3618690000000 1.0
C      1  0.3429490000000  0.4717000000000  0.4311740000000 1.0
C      1  0.3295770000000  0.5283010000000  0.5189210000000 1.0
C      1  0.3618690000000  0.4717000000000  0.6015970000000 1.0
C      1  0.4311740000000  0.5283010000000  0.6570510000000 1.0
C      1  0.5189210000000  0.4716990000000  0.6704230000000 1.0
C      1  0.6015980000000  0.5282990000000  0.6381310000000 1.0
C      1  0.5869830000000  0.3924830000000  0.4360520000000 1.0
C      1  0.5433560000000  0.6075160000000  0.4011290000000 1.0
C      1  0.4881110000000  0.3924840000000  0.3926970000000 1.0
C      1  0.4360530000000  0.6075170000000  0.4130170000000 1.0
C      1  0.4011280000000  0.3924840000000  0.4566440000000 1.0
C      1  0.3926970000000  0.6075170000000  0.5118880000000 1.0
C      1  0.4130160000000  0.3924840000000  0.5639470000000 1.0
C      1  0.4566450000000  0.6075170000000  0.5988720000000 1.0
C      1  0.5118880000000  0.3924830000000  0.6073030000000 1.0
C      1  0.5639480000000  0.6075160000000  0.5869830000000 1.0
C      1  0.5988710000000  0.3924830000000  0.5433560000000 1.0
C      1  0.6073040000000  0.6075160000000  0.4881120000000 1.0
C      1  0.7828780000000  0.4189560000000  0.2919310000000 1.0
C      1  0.6409450000000  0.5810460000000  0.1783690000000 1.0
C      1  0.4612470000000  0.4189560000000  0.1509860000000 1.0
C      1  0.2919320000000  0.5810440000000  0.2171220000000 1.0
C      1  0.1783680000000  0.4189560000000  0.3590550000000 1.0
C      1  0.1509860000000  0.5810470000000  0.5387520000000 1.0
C      1  0.2171210000000  0.4189590000000  0.7080690000000 1.0
C      1  0.3590550000000  0.5810460000000  0.8216310000000 1.0
C      1  0.5387520000000  0.4189540000000  0.8490140000000 1.0
C      1  0.7080690000000  0.5810410000000  0.7828790000000 1.0
C      1  0.8216310000000  0.4189520000000  0.6409450000000 1.0
C      1  0.8490140000000  0.5810430000000  0.4612480000000 1.0
C      1  0.3991220000000  0.2837070000000  0.4889300000000 1.0
C      1  0.4071050000000  0.7162940000000  0.5408520000000 1.0
C      1  0.4399740000000  0.2837060000000  0.5818270000000 1.0
C      1  0.4889320000000  0.7162940000000  0.6008770000000 1.0
C      1  0.5408500000000  0.2837060000000  0.5928960000000 1.0
C      1  0.5818280000000  0.7162930000000  0.5600250000000 1.0
C      1  0.6008750000000  0.2837060000000  0.5110690000000 1.0
C      1  0.5928980000000  0.7162930000000  0.4591490000000 1.0
C      1  0.5600240000000  0.2837060000000  0.4181730000000 1.0
C      1  0.5110710000000  0.7162940000000  0.3991240000000 1.0
C      1  0.4591470000000  0.2837070000000  0.4071030000000 1.0
C      1  0.4181740000000  0.7162940000000  0.4399750000000 1.0
C      1  0.6597050000000  0.5570840000000  0.7171290000000 1.0
C      1  0.7468720000000  0.4429120000000  0.6081860000000 1.0
C      1  0.7678910000000  0.5570850000000  0.4702560000000 1.0
C      1  0.7171280000000  0.4429130000000  0.3402950000000 1.0
C      1  0.6081860000000  0.5570870000000  0.2531280000000 1.0
C      1  0.4702560000000  0.4429140000000  0.2321090000000 1.0
C      1  0.3402950000000  0.5570870000000  0.2828710000000 1.0
C      1  0.2531270000000  0.4429140000000  0.3918140000000 1.0
C      1  0.2321090000000  0.5570880000000  0.5297440000000 1.0
C      1  0.2828710000000  0.4429150000000  0.6597050000000 1.0
C      1  0.3918140000000  0.5570870000000  0.7468730000000 1.0
C      1  0.5297440000000  0.4429130000000  0.7678910000000 1.0
END
