TITL C-986976-6631-554 0.0327734879890642 3375 -319.208648060929 0 0 60 (Cs) n - 1
REM
REM in /home/bkarasulu/work/CARBON/AIRSS/Generating-Clusters/REBO/Higher-Symm/Only-C60
REM
REM
REM
REM
REM
REM ./C.cell (a2850807a9bf4ad07a5b6933b78d9264)
REM AIRSS Version 0.9.1 bugfix July 2018 build 013d7b7c2542+ Fri, 06 Jul 2018 19:26:36 +0100
REM compiler GCC version 9.2.1 20190827 (Red Hat 9.2.1-1)
REM options -cpp -mtune=generic -march=x86-64 -g -O0 -fpre-include=/usr/include/finclude/math-vector-fortran.h
REM seed 820702861 1403803205 1945484799 -2037749970 310260645 694321279 -700429442 458262035 1096899924 735066915 -1452090717 -1754944168 422906058 -993384968 1977832512 630750550 -503722490 -1107289127 793521363 1184918092 -842858694 96147638 -183951758 1799450198 54348386 1479830933 -531628153 -571280845 -1708436221 1246785527 240631970 1577601224 -1966469702
REM
CELL 1.54180   15.00000   15.00000   15.00000   90.00000   90.00000   90.00000
LATT -1
SFAC C  
C      1  0.6576340000000  0.3768430000000  0.3972180000000 1.0
C      1  0.6576420000000  0.6187410000000  0.6084070000000 1.0
C      1  0.6576290000000  0.6187390000000  0.3971960000000 1.0
C      1  0.6576350000000  0.3768470000000  0.6083700000000 1.0
C      1  0.5349170000000  0.4454930000000  0.2539020000000 1.0
C      1  0.5348010000000  0.5501460000000  0.7517130000000 1.0
C      1  0.5348040000000  0.5501480000000  0.2538730000000 1.0
C      1  0.5349190000000  0.4454900000000  0.7516890000000 1.0
C      1  0.3879760000000  0.4416050000000  0.6462990000000 1.0
C      1  0.3876050000000  0.5537870000000  0.3592420000000 1.0
C      1  0.3876000000000  0.5537770000000  0.6463460000000 1.0
C      1  0.3879720000000  0.4416150000000  0.3592910000000 1.0
C      1  0.4188370000000  0.3356380000000  0.7218620000000 1.0
C      1  0.4188200000000  0.6600170000000  0.2837160000000 1.0
C      1  0.4188250000000  0.6600230000000  0.7218720000000 1.0
C      1  0.4188360000000  0.3356350000000  0.2837250000000 1.0
C      1  0.4244290000000  0.5546690000000  0.7496510000000 1.0
C      1  0.4245900000000  0.4410100000000  0.2559630000000 1.0
C      1  0.4245910000000  0.4410140000000  0.7496300000000 1.0
C      1  0.4244320000000  0.5546650000000  0.2559330000000 1.0
C      1  0.5789640000000  0.5439530000000  0.3788040000000 1.0
C      1  0.5788690000000  0.4515590000000  0.6266710000000 1.0
C      1  0.5788690000000  0.4515560000000  0.3789220000000 1.0
C      1  0.5789780000000  0.5439460000000  0.6267900000000 1.0
C      1  0.7334160000000  0.5549990000000  0.5598540000000 1.0
C      1  0.7335200000000  0.4404400000000  0.4457430000000 1.0
C      1  0.7335310000000  0.4404370000000  0.5598530000000 1.0
C      1  0.7334030000000  0.5550010000000  0.4457440000000 1.0
C      1  0.2864110000000  0.4408230000000  0.4064120000000 1.0
C      1  0.2861110000000  0.5549460000000  0.5991010000000 1.0
C      1  0.2861140000000  0.5549430000000  0.4064880000000 1.0
C      1  0.2864060000000  0.4408280000000  0.5991810000000 1.0
C      1  0.4885310000000  0.6882120000000  0.6641550000000 1.0
C      1  0.4885420000000  0.3073570000000  0.3414110000000 1.0
C      1  0.4885420000000  0.3073600000000  0.6641730000000 1.0
C      1  0.4885260000000  0.6882120000000  0.3414300000000 1.0
C      1  0.4555970000000  0.6952620000000  0.4458640000000 1.0
C      1  0.4556190000000  0.3002530000000  0.5597210000000 1.0
C      1  0.4556230000000  0.3002530000000  0.4458610000000 1.0
C      1  0.4555990000000  0.6952630000000  0.5597140000000 1.0
C      1  0.4900340000000  0.4258390000000  0.4335630000000 1.0
C      1  0.4899230000000  0.5697220000000  0.5725080000000 1.0
C      1  0.4899180000000  0.5697190000000  0.4330850000000 1.0
C      1  0.4900180000000  0.4258520000000  0.5720330000000 1.0
C      1  0.5631250000000  0.3397960000000  0.4484830000000 1.0
C      1  0.5630930000000  0.6556390000000  0.5571080000000 1.0
C      1  0.5630820000000  0.6556220000000  0.4485070000000 1.0
C      1  0.5631220000000  0.3397930000000  0.5571080000000 1.0
C      1  0.3690860000000  0.6215280000000  0.5570260000000 1.0
C      1  0.3691270000000  0.3740000000000  0.4486130000000 1.0
C      1  0.3691220000000  0.3739980000000  0.5569830000000 1.0
C      1  0.3690830000000  0.6215280000000  0.4485650000000 1.0
C      1  0.5765810000000  0.6344020000000  0.3173020000000 1.0
C      1  0.5766180000000  0.3611890000000  0.6882850000000 1.0
C      1  0.5766180000000  0.3611890000000  0.3173040000000 1.0
C      1  0.5765820000000  0.6344000000000  0.6882900000000 1.0
C      1  0.3295690000000  0.4979310000000  0.5027960000000 1.0
C      1  0.4237630000000  0.4979500000000  0.5028130000000 1.0
C      1  0.5564070000000  0.4980670000000  0.5028120000000 1.0
C      1  0.6445940000000  0.4976270000000  0.5028080000000 1.0
END
