TITL C-986978-6805-1184 -0.000171759679249882 3375 -346.16873060761 0 0 60 (C3) n - 1
REM
REM in /home/bkarasulu/work/CARBON/AIRSS/Generating-Clusters/REBO/Higher-Symm/Only-C60
REM
REM
REM
REM
REM
REM ./C.cell (a2850807a9bf4ad07a5b6933b78d9264)
REM AIRSS Version 0.9.1 bugfix July 2018 build 013d7b7c2542+ Fri, 06 Jul 2018 19:26:36 +0100
REM compiler GCC version 9.2.1 20190827 (Red Hat 9.2.1-1)
REM options -cpp -mtune=generic -march=x86-64 -g -O0 -fpre-include=/usr/include/finclude/math-vector-fortran.h
REM seed -1663057188 -1170745087 -883604502 -1394327799 -1521277633 -1641419315 809225279 608239295 1369205029 1474464634 -1571039497 1706138636 347236777 675660464 -1086719044 -1227216063 -521869736 -1853310665 1564846148 -1090038765 660771257 1071605040 943820712 1636859054 -22521847 -495243762 -1300637812 1069148800 -564683805 -737786769 1087863638 1621787167 363311198
REM
CELL 1.54180   15.00000   15.00000   15.00000   90.00000   90.00000   90.00000
LATT -1
SFAC C  
C      1  0.5604290000000  0.2958230000000  0.4658170000000 1.0
C      1  0.6466110000000  0.6544920000000  0.4658420000000 1.0
C      1  0.2929820000000  0.5497790000000  0.4658060000000 1.0
C      1  0.3587660000000  0.6658380000000  0.3945520000000 1.0
C      1  0.4269550000000  0.2947420000000  0.3945450000000 1.0
C      1  0.7143270000000  0.5393620000000  0.3945600000000 1.0
C      1  0.6602110000000  0.3207700000000  0.4798600000000 1.0
C      1  0.5751030000000  0.7284140000000  0.4798580000000 1.0
C      1  0.2646660000000  0.4508840000000  0.4798360000000 1.0
C      1  0.3738810000000  0.7421980000000  0.5480080000000 1.0
C      1  0.3532610000000  0.2696870000000  0.5480050000000 1.0
C      1  0.7728180000000  0.4880890000000  0.5480550000000 1.0
C      1  0.6446700000000  0.4523450000000  0.4673880000000 1.0
C      1  0.4689590000000  0.6491210000000  0.4673900000000 1.0
C      1  0.3863810000000  0.3985400000000  0.4673970000000 1.0
C      1  0.7588970000000  0.5593480000000  0.4842540000000 1.0
C      1  0.3191510000000  0.6944660000000  0.4842190000000 1.0
C      1  0.4219560000000  0.2461350000000  0.4842180000000 1.0
C      1  0.2901490000000  0.4303890000000  0.5880650000000 1.0
C      1  0.6651980000000  0.3530780000000  0.5880950000000 1.0
C      1  0.5446150000000  0.7165670000000  0.5880830000000 1.0
C      1  0.7249970000000  0.6382870000000  0.5288280000000 1.0
C      1  0.2676580000000  0.6256900000000  0.5288720000000 1.0
C      1  0.5072660000000  0.2359840000000  0.5288340000000 1.0
C      1  0.4841230000000  0.6478980000000  0.6518360000000 1.0
C      1  0.3798440000000  0.4123080000000  0.6518350000000 1.0
C      1  0.6359670000000  0.4398140000000  0.6518270000000 1.0
C      1  0.2965700000000  0.3472940000000  0.5161600000000 1.0
C      1  0.7339410000000  0.4002100000000  0.5161990000000 1.0
C      1  0.4694270000000  0.7525170000000  0.5161700000000 1.0
C      1  0.6998720000000  0.3808530000000  0.3922300000000 1.0
C      1  0.5032510000000  0.7326650000000  0.3922120000000 1.0
C      1  0.2968910000000  0.3865070000000  0.3922030000000 1.0
C      1  0.4897660000000  0.3672590000000  0.3713550000000 1.0
C      1  0.6201190000000  0.5574850000000  0.3713260000000 1.0
C      1  0.3902090000000  0.5752070000000  0.3713450000000 1.0
C      1  0.3969860000000  0.5880470000000  0.5037390000000 1.0
C      1  0.4752520000000  0.3667270000000  0.5037480000000 1.0
C      1  0.6277990000000  0.5452500000000  0.5037260000000 1.0
C      1  0.5700980000000  0.3486700000000  0.6443070000000 1.0
C      1  0.5959870000000  0.6364080000000  0.6442920000000 1.0
C      1  0.3338970000000  0.5149340000000  0.6442950000000 1.0
C      1  0.5301980000000  0.2487240000000  0.6169450000000 1.0
C      1  0.7025040000000  0.6517950000000  0.6169390000000 1.0
C      1  0.2672920000000  0.5994510000000  0.6169760000000 1.0
C      1  0.3994350000000  0.5873840000000  0.6067300000000 1.0
C      1  0.4745870000000  0.3692030000000  0.6067350000000 1.0
C      1  0.6259440000000  0.5434170000000  0.6067190000000 1.0
C      1  0.3914350000000  0.3010580000000  0.6332300000000 1.0
C      1  0.7265230000000  0.5054770000000  0.6332540000000 1.0
C      1  0.3819700000000  0.6934580000000  0.6332350000000 1.0
C      1  0.3404550000000  0.3111270000000  0.3554960000000 1.0
C      1  0.7434040000000  0.4562520000000  0.3555320000000 1.0
C      1  0.4161810000000  0.7325900000000  0.3555140000000 1.0
C      1  0.5530810000000  0.6016660000000  0.4454080000000 1.0
C      1  0.3854870000000  0.4951160000000  0.4454630000000 1.0
C      1  0.5614780000000  0.4032680000000  0.4454840000000 1.0
C      1  0.4860780000000  0.4375340000000  0.3057110000000 1.0
C      1  0.5611000000000  0.5191070000000  0.3057130000000 1.0
C      1  0.4529420000000  0.5432920000000  0.3057230000000 1.0
END
