TITL C-986973-6940-1153 -6.83146521727915e-06 3375 -333.927905634231 0 0 60 (C1) n - 1
REM
REM in /home/bkarasulu/work/CARBON/AIRSS/Generating-Clusters/REBO/Higher-Symm/Only-C60
REM
REM
REM
REM
REM
REM ./C.cell (a2850807a9bf4ad07a5b6933b78d9264)
REM AIRSS Version 0.9.1 bugfix July 2018 build 013d7b7c2542+ Fri, 06 Jul 2018 19:26:36 +0100
REM compiler GCC version 9.2.1 20190827 (Red Hat 9.2.1-1)
REM options -cpp -mtune=generic -march=x86-64 -g -O0 -fpre-include=/usr/include/finclude/math-vector-fortran.h
REM seed -992385751 -955154428 -1453689688 -1995783338 -437932456 -1526709986 231889556 511402580 1926863693 2121748119 -22945332 1554001357 1153996398 1886233002 -923242555 195023817 -700596159 1460802077 -1344053731 697387616 2054823025 -1624660505 132196244 -1588736724 -857434155 -1765828147 940125663 376520495 345499192 -1897111809 1309576911 -438718886 -1997874435
REM
CELL 1.54180   15.00000   15.00000   15.00000   90.00000   90.00000   90.00000
LATT -1
SFAC C  
C      1  0.4202520000000  0.4847160000000  0.6669750000000 1.0
C      1  0.3982320000000  0.4841860000000  0.3489670000000 1.0
C      1  0.6823820000000  0.4849720000000  0.4858890000000 1.0
C      1  0.6228120000000  0.3253520000000  0.6388650000000 1.0
C      1  0.3173970000000  0.3248070000000  0.5370790000000 1.0
C      1  0.5591570000000  0.3369510000000  0.3259090000000 1.0
C      1  0.5174300000000  0.3273500000000  0.5961870000000 1.0
C      1  0.4066610000000  0.3267210000000  0.4665790000000 1.0
C      1  0.5718780000000  0.3273710000000  0.4373300000000 1.0
C      1  0.4073790000000  0.5887120000000  0.3381540000000 1.0
C      1  0.6875470000000  0.5896460000000  0.4982690000000 1.0
C      1  0.4070920000000  0.5895030000000  0.6638770000000 1.0
C      1  0.5950770000000  0.6848400000000  0.3969720000000 1.0
C      1  0.5403890000000  0.6856770000000  0.6354910000000 1.0
C      1  0.3632030000000  0.6848780000000  0.4679240000000 1.0
C      1  0.3991280000000  0.3515750000000  0.1949720000000 1.0
C      1  0.8130890000000  0.3476540000000  0.5589380000000 1.0
C      1  0.2886720000000  0.3487800000000  0.7410730000000 1.0
C      1  0.3409690000000  0.3261670000000  0.6432830000000 1.0
C      1  0.4575080000000  0.3289830000000  0.2892810000000 1.0
C      1  0.7023850000000  0.3249260000000  0.5646520000000 1.0
C      1  0.5530630000000  0.4366490000000  0.4133430000000 1.0
C      1  0.5583550000000  0.4335730000000  0.5977540000000 1.0
C      1  0.3867640000000  0.4326770000000  0.5036510000000 1.0
C      1  0.6881430000000  0.6082700000000  0.5902350000000 1.0
C      1  0.3271270000000  0.6072470000000  0.6178140000000 1.0
C      1  0.4854090000000  0.6069390000000  0.2890450000000 1.0
C      1  0.6347620000000  0.5965560000000  0.6637310000000 1.0
C      1  0.2913420000000  0.5952260000000  0.5343680000000 1.0
C      1  0.5758200000000  0.5960050000000  0.2999200000000 1.0
C      1  0.5164310000000  0.6005310000000  0.4181630000000 1.0
C      1  0.5602090000000  0.6018510000000  0.5543500000000 1.0
C      1  0.4234250000000  0.6013130000000  0.5262440000000 1.0
C      1  0.3507390000000  0.4229600000000  0.6968430000000 1.0
C      1  0.4055070000000  0.4248070000000  0.2718670000000 1.0
C      1  0.7431580000000  0.4220230000000  0.5290690000000 1.0
C      1  0.6292610000000  0.7381810000000  0.4748530000000 1.0
C      1  0.4551930000000  0.7378580000000  0.6267920000000 1.0
C      1  0.4122710000000  0.7376720000000  0.3983700000000 1.0
C      1  0.4177120000000  0.5104630000000  0.5578520000000 1.0
C      1  0.4937050000000  0.5097600000000  0.4013750000000 1.0
C      1  0.5904540000000  0.5113010000000  0.5437720000000 1.0
C      1  0.6034390000000  0.7035560000000  0.5524460000000 1.0
C      1  0.4021450000000  0.7032010000000  0.5644780000000 1.0
C      1  0.4919380000000  0.7026400000000  0.3810320000000 1.0
C      1  0.5931180000000  0.5205940000000  0.7311280000000 1.0
C      1  0.2545620000000  0.5199500000000  0.4635630000000 1.0
C      1  0.6546220000000  0.5198460000000  0.3044920000000 1.0
C      1  0.6478140000000  0.5930760000000  0.3914170000000 1.0
C      1  0.5197600000000  0.5922420000000  0.6815290000000 1.0
C      1  0.3352300000000  0.5912640000000  0.4264920000000 1.0
C      1  0.4706590000000  0.3123030000000  0.3972130000000 1.0
C      1  0.6006240000000  0.3079650000000  0.5262250000000 1.0
C      1  0.4260460000000  0.3113000000000  0.5750690000000 1.0
C      1  0.5090750000000  0.4595540000000  0.6915680000000 1.0
C      1  0.3322380000000  0.4586820000000  0.4127660000000 1.0
C      1  0.6555720000000  0.4601510000000  0.3966100000000 1.0
C      1  0.6129980000000  0.4135290000000  0.6988500000000 1.0
C      1  0.2717270000000  0.4130320000000  0.4976540000000 1.0
C      1  0.6209480000000  0.4114910000000  0.3013900000000 1.0
END
