TITL C-986979-5873-424 -2.09301221924258e-05 3375 -355.036233940594 0 0 60 (C6) n - 1
REM
REM in /home/bkarasulu/work/CARBON/AIRSS/Generating-Clusters/REBO/Higher-Symm/Only-C60
REM
REM
REM
REM
REM
REM ./C.cell (a2850807a9bf4ad07a5b6933b78d9264)
REM AIRSS Version 0.9.1 bugfix July 2018 build 013d7b7c2542+ Fri, 06 Jul 2018 19:26:36 +0100
REM compiler GCC version 9.2.1 20190827 (Red Hat 9.2.1-1)
REM options -cpp -mtune=generic -march=x86-64 -g -O0 -fpre-include=/usr/include/finclude/math-vector-fortran.h
REM seed -407501745 2133846193 -1352873011 -1698389028 -1423790365 -1860106882 1080899624 -1124590676 2025957977 261601319 726228363 561612501 1555133621 1675390414 1264235076 -894913673 -1671405601 -1830527369 49954238 1763889078 1799806952 -29904903 1328584711 -1024774613 -1406134307 -1699571743 -1660156548 -1199232963 -2029464096 -1990938597 1861807410 -959299646 346624872
REM
CELL 1.54180   15.00000   15.00000   15.00000   90.00000   90.00000   90.00000
LATT -1
SFAC C  
C      1  0.3748940000000  0.5866030000000  0.6648620000000 1.0
C      1  0.3748940000000  0.6860760000000  0.5074310000000 1.0
C      1  0.3748940000000  0.5994730000000  0.3425680000000 1.0
C      1  0.3748940000000  0.4133970000000  0.3351380000000 1.0
C      1  0.3748940000000  0.3139240000000  0.4925690000000 1.0
C      1  0.3748940000000  0.4005270000000  0.6574320000000 1.0
C      1  0.3245610000000  0.4478580000000  0.5855160000000 1.0
C      1  0.3245610000000  0.5479880000000  0.5879150000000 1.0
C      1  0.3245610000000  0.6001300000000  0.5023990000000 1.0
C      1  0.3245610000000  0.5521420000000  0.4144840000000 1.0
C      1  0.3245610000000  0.4520120000000  0.4120850000000 1.0
C      1  0.3245610000000  0.3998700000000  0.4976010000000 1.0
C      1  0.6446840000000  0.3469390000000  0.5920980000000 1.0
C      1  0.6446840000000  0.5032290000000  0.6786030000000 1.0
C      1  0.6446840000000  0.6562890000000  0.5865050000000 1.0
C      1  0.6446840000000  0.6530610000000  0.4079020000000 1.0
C      1  0.6446840000000  0.4967710000000  0.3213970000000 1.0
C      1  0.6446840000000  0.3437110000000  0.4134940000000 1.0
C      1  0.4997920000000  0.7802870000000  0.4129590000000 1.0
C      1  0.4997920000000  0.5647640000000  0.2137430000000 1.0
C      1  0.4997920000000  0.2844760000000  0.3007850000000 1.0
C      1  0.4997920000000  0.2197130000000  0.5870410000000 1.0
C      1  0.4997920000000  0.4352360000000  0.7862570000000 1.0
C      1  0.4997920000000  0.7155240000000  0.6992150000000 1.0
C      1  0.4538190000000  0.6784030000000  0.5806290000000 1.0
C      1  0.4538190000000  0.6590280000000  0.3858130000000 1.0
C      1  0.4538190000000  0.4806250000000  0.3051840000000 1.0
C      1  0.4538190000000  0.3215970000000  0.4193710000000 1.0
C      1  0.4538190000000  0.3409720000000  0.6141870000000 1.0
C      1  0.4538190000000  0.5193750000000  0.6948160000000 1.0
C      1  0.4054490000000  0.3207050000000  0.3195010000000 1.0
C      1  0.4054490000000  0.2540350000000  0.5650240000000 1.0
C      1  0.4054490000000  0.4333310000000  0.7455240000000 1.0
C      1  0.4054490000000  0.6792950000000  0.6804990000000 1.0
C      1  0.4054490000000  0.7459650000000  0.4349760000000 1.0
C      1  0.4054490000000  0.5666690000000  0.2544760000000 1.0
C      1  0.5578800000000  0.7049970000000  0.3827940000000 1.0
C      1  0.5578800000000  0.5009950000000  0.2638640000000 1.0
C      1  0.5578800000000  0.2959980000000  0.3810700000000 1.0
C      1  0.5578800000000  0.2950030000000  0.6172060000000 1.0
C      1  0.5578800000000  0.4990050000000  0.7361360000000 1.0
C      1  0.5578800000000  0.7040020000000  0.6189300000000 1.0
C      1  0.4511120000000  0.5820050000000  0.5395040000000 1.0
C      1  0.4511120000000  0.5752130000000  0.4487340000000 1.0
C      1  0.4511120000000  0.4932090000000  0.4092300000000 1.0
C      1  0.4511120000000  0.4179950000000  0.4604960000000 1.0
C      1  0.4511120000000  0.4247860000000  0.5512660000000 1.0
C      1  0.4511120000000  0.5067910000000  0.5907700000000 1.0
C      1  0.7038730000000  0.5551470000000  0.4004020000000 1.0
C      1  0.7038730000000  0.4413190000000  0.4024420000000 1.0
C      1  0.7038730000000  0.3861720000000  0.5020400000000 1.0
C      1  0.7038730000000  0.4448530000000  0.5995980000000 1.0
C      1  0.7038730000000  0.5586810000000  0.5975580000000 1.0
C      1  0.7038730000000  0.6138280000000  0.4979600000000 1.0
C      1  0.5839360000000  0.5016180000000  0.5907640000000 1.0
C      1  0.5839360000000  0.5794130000000  0.5439810000000 1.0
C      1  0.5839360000000  0.5777950000000  0.4532170000000 1.0
C      1  0.5839360000000  0.4983820000000  0.4092360000000 1.0
C      1  0.5839360000000  0.4205870000000  0.4560190000000 1.0
C      1  0.5839360000000  0.4222050000000  0.5467830000000 1.0
END
