TITL C-986975-4297-996 -0.0747885720286089 3375 -322.219395222121 0 0 60 (C5) n - 1
REM
REM in /home/bkarasulu/work/CARBON/AIRSS/Generating-Clusters/REBO/Higher-Symm/Only-C60
REM
REM
REM
REM
REM
REM ./C.cell (a2850807a9bf4ad07a5b6933b78d9264)
REM AIRSS Version 0.9.1 bugfix July 2018 build 013d7b7c2542+ Fri, 06 Jul 2018 19:26:36 +0100
REM compiler GCC version 9.2.1 20190827 (Red Hat 9.2.1-1)
REM options -cpp -mtune=generic -march=x86-64 -g -O0 -fpre-include=/usr/include/finclude/math-vector-fortran.h
REM seed -2125885709 1234315834 -313479061 1994628909 -1003311571 -1140197044 -671486650 -474845443 -512238986 1699214104 332159045 450587309 -1474917675 2041154941 -112457967 2099127711 -1018422273 -886117581 417378637 1161424637 576868201 38209947 1514676193 973538058 -839276490 -1725225704 -1764931262 -713829458 183471301 1389875584 -225120820 -193648374 2067241359
REM
CELL 1.54180   15.00000   15.00000   15.00000   90.00000   90.00000   90.00000
LATT -1
SFAC C  
C      1  0.4802340000000  0.4547980000000  0.7770100000000 1.0
C      1  0.7573240000000  0.4548020000000  0.6043940000000 1.0
C      1  0.6788050000000  0.4548030000000  0.2875270000000 1.0
C      1  0.3531120000000  0.4547840000000  0.2642010000000 1.0
C      1  0.2304590000000  0.4548020000000  0.5667940000000 1.0
C      1  0.4802340000000  0.5452020000000  0.7770100000000 1.0
C      1  0.7573240000000  0.5451980000000  0.6043940000000 1.0
C      1  0.6788050000000  0.5451970000000  0.2875270000000 1.0
C      1  0.3531120000000  0.5452160000000  0.2642010000000 1.0
C      1  0.2304590000000  0.5451980000000  0.5667940000000 1.0
C      1  0.5640360000000  0.4083830000000  0.4359740000000 1.0
C      1  0.4589170000000  0.4083820000000  0.4193540000000 1.0
C      1  0.4105650000000  0.4083850000000  0.5141630000000 1.0
C      1  0.4858340000000  0.4083860000000  0.5894330000000 1.0
C      1  0.5806840000000  0.4083830000000  0.5411150000000 1.0
C      1  0.5640360000000  0.5916170000000  0.4359740000000 1.0
C      1  0.4589170000000  0.5916180000000  0.4193540000000 1.0
C      1  0.4105650000000  0.5916150000000  0.5141630000000 1.0
C      1  0.4858340000000  0.5916140000000  0.5894330000000 1.0
C      1  0.5806840000000  0.5916170000000  0.5411150000000 1.0
C      1  0.3184510000000  0.4406260000000  0.5059830000000 1.0
C      1  0.4495960000000  0.4406400000000  0.6745100000000 1.0
C      1  0.6503940000000  0.4406190000000  0.6018730000000 1.0
C      1  0.6433640000000  0.4406520000000  0.3884430000000 1.0
C      1  0.4381730000000  0.4405870000000  0.3292320000000 1.0
C      1  0.3184510000000  0.5593740000000  0.5059830000000 1.0
C      1  0.4495960000000  0.5593600000000  0.6745100000000 1.0
C      1  0.6503940000000  0.5593810000000  0.6018730000000 1.0
C      1  0.6433640000000  0.5593480000000  0.3884430000000 1.0
C      1  0.4381730000000  0.5594130000000  0.3292320000000 1.0
C      1  0.5966050000000  0.6997280000000  0.5049320000000 1.0
C      1  0.5345390000000  0.6997340000000  0.4096530000000 1.0
C      1  0.4247510000000  0.6997260000000  0.4392360000000 1.0
C      1  0.4189560000000  0.6997300000000  0.5527860000000 1.0
C      1  0.5251600000000  0.6997220000000  0.5933910000000 1.0
C      1  0.5966050000000  0.3002720000000  0.5049320000000 1.0
C      1  0.5345390000000  0.3002660000000  0.4096530000000 1.0
C      1  0.4247510000000  0.3002740000000  0.4392360000000 1.0
C      1  0.4189560000000  0.3002700000000  0.5527860000000 1.0
C      1  0.5251600000000  0.3002780000000  0.5933910000000 1.0
C      1  0.3392000000000  0.6421320000000  0.3918100000000 1.0
C      1  0.3474100000000  0.6421480000000  0.6195070000000 1.0
C      1  0.5665000000000  0.6421400000000  0.6820380000000 1.0
C      1  0.6936790000000  0.6421460000000  0.4930070000000 1.0
C      1  0.5532290000000  0.6421540000000  0.3136310000000 1.0
C      1  0.3392000000000  0.3578680000000  0.3918100000000 1.0
C      1  0.3474100000000  0.3578520000000  0.6195070000000 1.0
C      1  0.5665000000000  0.3578600000000  0.6820380000000 1.0
C      1  0.6936790000000  0.3578540000000  0.4930070000000 1.0
C      1  0.5532290000000  0.3578460000000  0.3136310000000 1.0
C      1  0.7193020000000  0.4488800000000  0.4652790000000 1.0
C      1  0.5347750000000  0.4488550000000  0.2807090000000 1.0
C      1  0.3021710000000  0.4488810000000  0.3991880000000 1.0
C      1  0.3429840000000  0.4488740000000  0.6569890000000 1.0
C      1  0.6007900000000  0.4488790000000  0.6978400000000 1.0
C      1  0.7193020000000  0.5511200000000  0.4652790000000 1.0
C      1  0.5347750000000  0.5511450000000  0.2807090000000 1.0
C      1  0.3021710000000  0.5511190000000  0.3991880000000 1.0
C      1  0.3429840000000  0.5511260000000  0.6569890000000 1.0
C      1  0.6007900000000  0.5511210000000  0.6978400000000 1.0
END
