TITL C-986975-4297-1149 1.24825307941783e-05 3375 -333.829056954008 0 0 60 (C1) n - 1
REM
REM in /home/bkarasulu/work/CARBON/AIRSS/Generating-Clusters/REBO/Higher-Symm/Only-C60
REM
REM
REM
REM
REM
REM ./C.cell (a2850807a9bf4ad07a5b6933b78d9264)
REM AIRSS Version 0.9.1 bugfix July 2018 build 013d7b7c2542+ Fri, 06 Jul 2018 19:26:36 +0100
REM compiler GCC version 9.2.1 20190827 (Red Hat 9.2.1-1)
REM options -cpp -mtune=generic -march=x86-64 -g -O0 -fpre-include=/usr/include/finclude/math-vector-fortran.h
REM seed 402762232 984314450 -1123360517 943245965 -1221584014 -869956734 174594033 2045589039 901458536 2059290178 -690007666 -596584706 -482605139 542272041 4305713 -1145926469 -1997766398 1297215837 1636136253 1325510144 509074545 2033415409 1516478769 199292918 456694498 212069627 -1635444609 1536400793 -2062794705 708953357 1854022625 1222122340 206477819
REM
CELL 1.54180   15.00000   15.00000   15.00000   90.00000   90.00000   90.00000
LATT -1
SFAC C  
C      1  0.6099070000000  0.2612170000000  0.5378570000000 1.0
C      1  0.4257440000000  0.2624460000000  0.5531650000000 1.0
C      1  0.5003740000000  0.2536450000000  0.3640630000000 1.0
C      1  0.3425820000000  0.7761570000000  0.3931140000000 1.0
C      1  0.6671930000000  0.7846750000000  0.4203210000000 1.0
C      1  0.4900230000000  0.7915420000000  0.6701800000000 1.0
C      1  0.7093900000000  0.4332710000000  0.6240910000000 1.0
C      1  0.2939360000000  0.4363110000000  0.6307230000000 1.0
C      1  0.4900810000000  0.4499950000000  0.2569700000000 1.0
C      1  0.4726020000000  0.5405670000000  0.6125550000000 1.0
C      1  0.4104650000000  0.5372490000000  0.4286260000000 1.0
C      1  0.6109450000000  0.5365460000000  0.4709830000000 1.0
C      1  0.4338510000000  0.2977650000000  0.4249050000000 1.0
C      1  0.5331920000000  0.3141630000000  0.4778520000000 1.0
C      1  0.5007040000000  0.3179650000000  0.5880240000000 1.0
C      1  0.5261980000000  0.6527240000000  0.5584620000000 1.0
C      1  0.4374070000000  0.6533820000000  0.4871070000000 1.0
C      1  0.5437210000000  0.6550820000000  0.4463060000000 1.0
C      1  0.5285840000000  0.4643410000000  0.4444890000000 1.0
C      1  0.5312280000000  0.4664560000000  0.5594280000000 1.0
C      1  0.4309450000000  0.4639740000000  0.5050280000000 1.0
C      1  0.5448460000000  0.4131280000000  0.7272740000000 1.0
C      1  0.2906630000000  0.4017610000000  0.4297100000000 1.0
C      1  0.6620080000000  0.4008410000000  0.3647730000000 1.0
C      1  0.3764530000000  0.6577400000000  0.6339070000000 1.0
C      1  0.4530970000000  0.6695570000000  0.3174940000000 1.0
C      1  0.6839720000000  0.6537270000000  0.5402090000000 1.0
C      1  0.6455630000000  0.5230220000000  0.6510400000000 1.0
C      1  0.2979990000000  0.5197360000000  0.5537550000000 1.0
C      1  0.5566080000000  0.5261290000000  0.3055810000000 1.0
C      1  0.4502980000000  0.5107440000000  0.3440790000000 1.0
C      1  0.6671660000000  0.5001310000000  0.5418240000000 1.0
C      1  0.3840290000000  0.5039390000000  0.6258450000000 1.0
C      1  0.5300020000000  0.4055160000000  0.3537810000000 1.0
C      1  0.5988350000000  0.4066790000000  0.6063450000000 1.0
C      1  0.3584760000000  0.4021030000000  0.5440440000000 1.0
C      1  0.6316310000000  0.3048870000000  0.6078340000000 1.0
C      1  0.3526910000000  0.3123640000000  0.5292310000000 1.0
C      1  0.5597820000000  0.3193930000000  0.3385290000000 1.0
C      1  0.5356010000000  0.5734060000000  0.7534210000000 1.0
C      1  0.2567010000000  0.5612260000000  0.4095870000000 1.0
C      1  0.7042880000000  0.5585470000000  0.3476810000000 1.0
C      1  0.3407140000000  0.6022440000000  0.4119440000000 1.0
C      1  0.6620100000000  0.6005260000000  0.4199740000000 1.0
C      1  0.4916270000000  0.6077200000000  0.6785490000000 1.0
C      1  0.3628390000000  0.6125460000000  0.5517640000000 1.0
C      1  0.5273840000000  0.6211290000000  0.3491860000000 1.0
C      1  0.6171730000000  0.6126170000000  0.5926760000000 1.0
C      1  0.4745910000000  0.7063730000000  0.6432620000000 1.0
C      1  0.3852420000000  0.6949040000000  0.3952330000000 1.0
C      1  0.6459330000000  0.7014230000000  0.4494220000000 1.0
C      1  0.6317540000000  0.3595500000000  0.4430760000000 1.0
C      1  0.4829090000000  0.3687780000000  0.6681020000000 1.0
C      1  0.3690320000000  0.3615280000000  0.3901080000000 1.0
C      1  0.3950440000000  0.4043460000000  0.6718520000000 1.0
C      1  0.4025520000000  0.4125670000000  0.3178630000000 1.0
C      1  0.6845590000000  0.3909360000000  0.5212410000000 1.0
C      1  0.6499720000000  0.4855180000000  0.3194240000000 1.0
C      1  0.5878990000000  0.4984400000000  0.7297960000000 1.0
C      1  0.2589830000000  0.4848020000000  0.4663370000000 1.0
END
