TITL C-986974-580-65 0.0164463297363466 3375 -340.767732606381 0 0 60 (C1) n - 1
REM
REM in /home/bkarasulu/work/CARBON/AIRSS/Generating-Clusters/REBO/Higher-Symm/Only-C60
REM
REM
REM
REM
REM
REM ./C.cell (a2850807a9bf4ad07a5b6933b78d9264)
REM AIRSS Version 0.9.1 bugfix July 2018 build 013d7b7c2542+ Fri, 06 Jul 2018 19:26:36 +0100
REM compiler GCC version 9.2.1 20190827 (Red Hat 9.2.1-1)
REM options -cpp -mtune=generic -march=x86-64 -g -O0 -fpre-include=/usr/include/finclude/math-vector-fortran.h
REM seed 1514017495 -540009193 -1932504090 1622619448 1952199329 1397248030 1208855575 75640573 1946983469 43853543 1925714841 26281907 1245053361 802162780 -1877565713 1749063133 1439176986 -543588363 -183632207 1186121719 339437252 -1782633337 -1782162182 -270567932 1886329038 -509023496 587265950 2120994702 39468995 80694703 1081665462 -1530477193 -1593426203
REM
CELL 1.54180   15.00000   15.00000   15.00000   90.00000   90.00000   90.00000
LATT -1
SFAC C  
C      1  0.4284100000000  0.4883820000000  0.7429320000000 1.0
C      1  0.3592830000000  0.3984230000000  0.3147350000000 1.0
C      1  0.6911030000000  0.4861640000000  0.5948780000000 1.0
C      1  0.6197580000000  0.6057710000000  0.5780940000000 1.0
C      1  0.6302600000000  0.4022670000000  0.5484100000000 1.0
C      1  0.7143320000000  0.6941720000000  0.6034430000000 1.0
C      1  0.4538850000000  0.5431400000000  0.3262310000000 1.0
C      1  0.4867180000000  0.5249930000000  0.5207000000000 1.0
C      1  0.6179870000000  0.7123500000000  0.5668890000000 1.0
C      1  0.3412420000000  0.3284220000000  0.4230830000000 1.0
C      1  0.5825420000000  0.6728250000000  0.3253180000000 1.0
C      1  0.6341200000000  0.5805020000000  0.3671010000000 1.0
C      1  0.2866170000000  0.5043530000000  0.6278760000000 1.0
C      1  0.4519500000000  0.2776940000000  0.5508370000000 1.0
C      1  0.5300520000000  0.3760550000000  0.5957420000000 1.0
C      1  0.5993280000000  0.2355870000000  0.5205180000000 1.0
C      1  0.3643230000000  0.3451550000000  0.5241280000000 1.0
C      1  0.5031250000000  0.2999620000000  0.4036500000000 1.0
C      1  0.3600940000000  0.6672700000000  0.5981270000000 1.0
C      1  0.5404580000000  0.4882090000000  0.2781340000000 1.0
C      1  0.2993470000000  0.5898270000000  0.4785240000000 1.0
C      1  0.3944770000000  0.5817250000000  0.6407780000000 1.0
C      1  0.4477380000000  0.6959730000000  0.5426380000000 1.0
C      1  0.4184440000000  0.3853480000000  0.6155950000000 1.0
C      1  0.5351280000000  0.6372850000000  0.6888360000000 1.0
C      1  0.6478180000000  0.4783960000000  0.3553970000000 1.0
C      1  0.6394010000000  0.4396590000000  0.4475220000000 1.0
C      1  0.3935500000000  0.4805240000000  0.3789450000000 1.0
C      1  0.5499100000000  0.5928520000000  0.2508730000000 1.0
C      1  0.4959370000000  0.4269140000000  0.7704970000000 1.0
C      1  0.4150640000000  0.3099690000000  0.3383260000000 1.0
C      1  0.5170400000000  0.3410550000000  0.2978550000000 1.0
C      1  0.2804410000000  0.5968330000000  0.5750820000000 1.0
C      1  0.6304560000000  0.3131370000000  0.4839540000000 1.0
C      1  0.5664050000000  0.5305980000000  0.5806810000000 1.0
C      1  0.7107820000000  0.5877640000000  0.6424780000000 1.0
C      1  0.7237040000000  0.5514420000000  0.5150780000000 1.0
C      1  0.4606080000000  0.5802610000000  0.7118850000000 1.0
C      1  0.5983880000000  0.4729090000000  0.6557330000000 1.0
C      1  0.5176560000000  0.2154060000000  0.5595580000000 1.0
C      1  0.7002420000000  0.5910460000000  0.4470680000000 1.0
C      1  0.4918450000000  0.3599500000000  0.4898800000000 1.0
C      1  0.6166540000000  0.3528860000000  0.3834980000000 1.0
C      1  0.5538300000000  0.4001500000000  0.7018640000000 1.0
C      1  0.3061620000000  0.4942000000000  0.4478610000000 1.0
C      1  0.4836460000000  0.7215980000000  0.3545690000000 1.0
C      1  0.4063620000000  0.5155850000000  0.5740260000000 1.0
C      1  0.4333360000000  0.7300060000000  0.4340970000000 1.0
C      1  0.5274500000000  0.6961760000000  0.6101530000000 1.0
C      1  0.3682600000000  0.6452580000000  0.4497450000000 1.0
C      1  0.4710620000000  0.4529740000000  0.4530680000000 1.0
C      1  0.2819220000000  0.4093490000000  0.3881400000000 1.0
C      1  0.3303440000000  0.4483240000000  0.5392590000000 1.0
C      1  0.3663960000000  0.4446170000000  0.6779880000000 1.0
C      1  0.4755820000000  0.6108690000000  0.4723070000000 1.0
C      1  0.6247070000000  0.6117310000000  0.7111280000000 1.0
C      1  0.5272080000000  0.4268110000000  0.3733580000000 1.0
C      1  0.5245330000000  0.5993070000000  0.3881880000000 1.0
C      1  0.4591110000000  0.6487120000000  0.2840740000000 1.0
C      1  0.6134650000000  0.4008760000000  0.2786710000000 1.0
END
