TITL C-986979-5873-1119 -6.94988616498212e-05 3375 -367.909256571711 0 0 60 (C1) n - 1
REM
REM in /home/bkarasulu/work/CARBON/AIRSS/Generating-Clusters/REBO/Higher-Symm/Only-C60
REM
REM
REM
REM
REM
REM ./C.cell (a2850807a9bf4ad07a5b6933b78d9264)
REM AIRSS Version 0.9.1 bugfix July 2018 build 013d7b7c2542+ Fri, 06 Jul 2018 19:26:36 +0100
REM compiler GCC version 9.2.1 20190827 (Red Hat 9.2.1-1)
REM options -cpp -mtune=generic -march=x86-64 -g -O0 -fpre-include=/usr/include/finclude/math-vector-fortran.h
REM seed 1778842610 -662528369 383152917 -1760316071 -454905385 -1672815270 1389754209 310148995 -977097868 334619149 1128230285 -921589516 1712647922 970886726 448107068 1000243038 -837065074 -354425009 -1607400290 272101840 637440342 2116897085 556842499 -753156784 1037348539 -385405939 179792557 -1069126325 1158575375 -1533034723 -12439329 132382148 1848398406
REM
CELL 1.54180   15.00000   15.00000   15.00000   90.00000   90.00000   90.00000
LATT -1
SFAC C  
C      1  0.6767860000000  0.4608720000000  0.6559940000000 1.0
C      1  0.6301600000000  0.3644300000000  0.3397250000000 1.0
C      1  0.5542890000000  0.3244220000000  0.6560090000000 1.0
C      1  0.4493210000000  0.3257090000000  0.3405040000000 1.0
C      1  0.3743610000000  0.3610760000000  0.6591650000000 1.0
C      1  0.3267680000000  0.4587150000000  0.3429950000000 1.0
C      1  0.3172840000000  0.5370910000000  0.6606610000000 1.0
C      1  0.3783490000000  0.6321530000000  0.3414310000000 1.0
C      1  0.4425440000000  0.6734910000000  0.6583420000000 1.0
C      1  0.5573270000000  0.6761220000000  0.3432870000000 1.0
C      1  0.6215610000000  0.6336110000000  0.6543860000000 1.0
C      1  0.6852780000000  0.5437780000000  0.3398930000000 1.0
C      1  0.4761970000000  0.4090240000000  0.3034770000000 1.0
C      1  0.4328730000000  0.4274690000000  0.6954960000000 1.0
C      1  0.4113990000000  0.4791440000000  0.3043520000000 1.0
C      1  0.4042540000000  0.5192770000000  0.6959650000000 1.0
C      1  0.4401340000000  0.5702290000000  0.3045560000000 1.0
C      1  0.4695520000000  0.5898800000000  0.6950000000000 1.0
C      1  0.5335540000000  0.5916470000000  0.3059410000000 1.0
C      1  0.5630520000000  0.5691710000000  0.6933630000000 1.0
C      1  0.5991110000000  0.5213500000000  0.3049080000000 1.0
C      1  0.5913550000000  0.4778330000000  0.6940160000000 1.0
C      1  0.5700820000000  0.4295030000000  0.3038340000000 1.0
C      1  0.5267490000000  0.4069670000000  0.6947190000000 1.0
C      1  0.4327030000000  0.5640860000000  0.5672120000000 1.0
C      1  0.4578180000000  0.5871590000000  0.4384930000000 1.0
C      1  0.5196380000000  0.5988930000000  0.5634170000000 1.0
C      1  0.5494650000000  0.5674700000000  0.4374180000000 1.0
C      1  0.5952940000000  0.5399140000000  0.5611970000000 1.0
C      1  0.5797030000000  0.4798360000000  0.4349120000000 1.0
C      1  0.5818590000000  0.4456030000000  0.5636560000000 1.0
C      1  0.5210750000000  0.4070720000000  0.4358540000000 1.0
C      1  0.4933580000000  0.4142980000000  0.5658820000000 1.0
C      1  0.4282840000000  0.4251180000000  0.4414080000000 1.0
C      1  0.4211920000000  0.4721990000000  0.5659410000000 1.0
C      1  0.3947970000000  0.5161250000000  0.4422310000000 1.0
C      1  0.6771430000000  0.4594410000000  0.4716000000000 1.0
C      1  0.6593440000000  0.3684750000000  0.5324670000000 1.0
C      1  0.5613080000000  0.3058780000000  0.4692320000000 1.0
C      1  0.4693050000000  0.3175970000000  0.5304030000000 1.0
C      1  0.3539180000000  0.3439670000000  0.4715140000000 1.0
C      1  0.3291780000000  0.4347350000000  0.5298200000000 1.0
C      1  0.2889740000000  0.5464350000000  0.4720790000000 1.0
C      1  0.3479220000000  0.6194190000000  0.5305420000000 1.0
C      1  0.4433670000000  0.6878720000000  0.4700500000000 1.0
C      1  0.5331140000000  0.7074600000000  0.5318960000000 1.0
C      1  0.6237000000000  0.6331420000000  0.4704690000000 1.0
C      1  0.6987780000000  0.5762380000000  0.5299870000000 1.0
C      1  0.5922200000000  0.2999260000000  0.5782020000000 1.0
C      1  0.4631710000000  0.2882350000000  0.4206410000000 1.0
C      1  0.3752300000000  0.3179370000000  0.5797360000000 1.0
C      1  0.2970060000000  0.4248860000000  0.4207660000000 1.0
C      1  0.2810760000000  0.5156350000000  0.5809080000000 1.0
C      1  0.3340680000000  0.6325700000000  0.4184810000000 1.0
C      1  0.4087050000000  0.6946840000000  0.5777530000000 1.0
C      1  0.5360620000000  0.7194300000000  0.4189740000000 1.0
C      1  0.6261720000000  0.6774030000000  0.5753420000000 1.0
C      1  0.7076200000000  0.5844170000000  0.4171700000000 1.0
C      1  0.7138140000000  0.4811960000000  0.5767220000000 1.0
C      1  0.6712830000000  0.3622840000000  0.4196050000000 1.0
END
