TITL C-986974-580-46 6.28579511426335e-07 3375 -340.507166958887 0 0 60 (C1) n - 1
REM
REM in /home/bkarasulu/work/CARBON/AIRSS/Generating-Clusters/REBO/Higher-Symm/Only-C60
REM
REM
REM
REM
REM
REM ./C.cell (a2850807a9bf4ad07a5b6933b78d9264)
REM AIRSS Version 0.9.1 bugfix July 2018 build 013d7b7c2542+ Fri, 06 Jul 2018 19:26:36 +0100
REM compiler GCC version 9.2.1 20190827 (Red Hat 9.2.1-1)
REM options -cpp -mtune=generic -march=x86-64 -g -O0 -fpre-include=/usr/include/finclude/math-vector-fortran.h
REM seed 1403474733 1598995126 -534535829 -1725224778 1930149056 -1999910778 752095573 -1824459719 867346005 2075024155 333420294 -1584148185 516823472 1829515308 -1422836696 -1120511791 -1117368936 -1366442952 1209024177 1242067837 1255580464 345237273 1660391882 -914181172 -1347936126 1707770552 1547097961 981952202 770345583 -1795826148 1560981537 1849356633 -1924123549
REM
CELL 1.54180   15.00000   15.00000   15.00000   90.00000   90.00000   90.00000
LATT -1
SFAC C  
C      1  0.3236830000000  0.3892080000000  0.3854920000000 1.0
C      1  0.6904780000000  0.3817040000000  0.3974660000000 1.0
C      1  0.4926780000000  0.3824030000000  0.7127220000000 1.0
C      1  0.4260440000000  0.2553860000000  0.6008490000000 1.0
C      1  0.4492170000000  0.2532490000000  0.3908040000000 1.0
C      1  0.6363280000000  0.2508400000000  0.5141190000000 1.0
C      1  0.4533040000000  0.5344340000000  0.4528250000000 1.0
C      1  0.5593890000000  0.5352080000000  0.4805250000000 1.0
C      1  0.4821790000000  0.5322930000000  0.5597240000000 1.0
C      1  0.5361890000000  0.2539980000000  0.3693800000000 1.0
C      1  0.6116370000000  0.2608270000000  0.5993890000000 1.0
C      1  0.3615860000000  0.2663340000000  0.5401440000000 1.0
C      1  0.3159140000000  0.6802440000000  0.4554100000000 1.0
C      1  0.6272390000000  0.6839520000000  0.3651360000000 1.0
C      1  0.5518270000000  0.6750040000000  0.6824340000000 1.0
C      1  0.2730890000000  0.5047890000000  0.4957590000000 1.0
C      1  0.5956680000000  0.4889620000000  0.3054500000000 1.0
C      1  0.6118140000000  0.5003930000000  0.6948630000000 1.0
C      1  0.5825270000000  0.7136480000000  0.4836490000000 1.0
C      1  0.4741120000000  0.7103010000000  0.5841290000000 1.0
C      1  0.4405150000000  0.7143320000000  0.4416980000000 1.0
C      1  0.4660750000000  0.4015710000000  0.2756510000000 1.0
C      1  0.7217530000000  0.4431580000000  0.5842770000000 1.0
C      1  0.3083890000000  0.4429160000000  0.6467130000000 1.0
C      1  0.6726860000000  0.5424170000000  0.6148680000000 1.0
C      1  0.3097450000000  0.5435790000000  0.5908800000000 1.0
C      1  0.5322420000000  0.5566930000000  0.3083700000000 1.0
C      1  0.6464450000000  0.6394740000000  0.5717760000000 1.0
C      1  0.3629720000000  0.6395910000000  0.5929990000000 1.0
C      1  0.4877160000000  0.6532220000000  0.3351640000000 1.0
C      1  0.4434270000000  0.5294980000000  0.3568230000000 1.0
C      1  0.6485720000000  0.5222080000000  0.5090160000000 1.0
C      1  0.4121580000000  0.5195040000000  0.6220670000000 1.0
C      1  0.5268420000000  0.4854550000000  0.7323770000000 1.0
C      1  0.2890490000000  0.4918980000000  0.4035440000000 1.0
C      1  0.6755980000000  0.4839030000000  0.3563610000000 1.0
C      1  0.4053030000000  0.6159920000000  0.4903670000000 1.0
C      1  0.5508590000000  0.6202570000000  0.4239660000000 1.0
C      1  0.5368100000000  0.6136920000000  0.5854950000000 1.0
C      1  0.3795760000000  0.6511950000000  0.3652720000000 1.0
C      1  0.6747790000000  0.6468170000000  0.4621200000000 1.0
C      1  0.4425020000000  0.6436130000000  0.6734960000000 1.0
C      1  0.6039430000000  0.3320280000000  0.3431620000000 1.0
C      1  0.5870460000000  0.3413320000000  0.6639880000000 1.0
C      1  0.3117730000000  0.3455950000000  0.4896590000000 1.0
C      1  0.4397690000000  0.5497800000000  0.7256360000000 1.0
C      1  0.3398430000000  0.5559610000000  0.3313440000000 1.0
C      1  0.7209010000000  0.5531100000000  0.4307850000000 1.0
C      1  0.5558620000000  0.4033400000000  0.2917210000000 1.0
C      1  0.6520940000000  0.4174890000000  0.6550490000000 1.0
C      1  0.2832420000000  0.4201230000000  0.5499150000000 1.0
C      1  0.7243740000000  0.4468510000000  0.4738420000000 1.0
C      1  0.4047460000000  0.4427980000000  0.7033400000000 1.0
C      1  0.3797680000000  0.4489160000000  0.3168420000000 1.0
C      1  0.5855110000000  0.7354070000000  0.5912310000000 1.0
C      1  0.3774410000000  0.7368160000000  0.5339250000000 1.0
C      1  0.5326580000000  0.7451360000000  0.3863360000000 1.0
C      1  0.3749160000000  0.2945270000000  0.4105770000000 1.0
C      1  0.6508290000000  0.2863180000000  0.4356160000000 1.0
C      1  0.4863720000000  0.2903110000000  0.6534650000000 1.0
END
