TITL C-986974-580-452 1.53217889472809e-06 3375 -318.4564578141 0 0 60 (D3) n - 1
REM
REM in /home/bkarasulu/work/CARBON/AIRSS/Generating-Clusters/REBO/Higher-Symm/Only-C60
REM
REM
REM
REM
REM
REM ./C.cell (a2850807a9bf4ad07a5b6933b78d9264)
REM AIRSS Version 0.9.1 bugfix July 2018 build 013d7b7c2542+ Fri, 06 Jul 2018 19:26:36 +0100
REM compiler GCC version 9.2.1 20190827 (Red Hat 9.2.1-1)
REM options -cpp -mtune=generic -march=x86-64 -g -O0 -fpre-include=/usr/include/finclude/math-vector-fortran.h
REM seed 1796755530 -831155151 -332004228 1281162109 -1685443299 2028216324 -558157328 -660273304 877488920 918898060 -1017881339 1017488912 1447156946 -367112537 142025255 -1080163900 -1883343525 -2137633499 -1343681714 -2039360138 -1752035101 154951896 -745435103 339648273 1091463866 -1155719219 1238280437 761932188 -952393090 -1773220334 -831363835 -1151317093 -430324280
REM
CELL 1.54180   15.00000   15.00000   15.00000   90.00000   90.00000   90.00000
LATT -1
SFAC C  
C      1  0.4596870000000  0.4528240000000  0.7284640000000 1.0
C      1  0.7180130000000  0.4528270000000  0.4206800000000 1.0
C      1  0.3223010000000  0.4528270000000  0.3508550000000 1.0
C      1  0.4596870000000  0.5471760000000  0.2715360000000 1.0
C      1  0.7180130000000  0.5471730000000  0.5793200000000 1.0
C      1  0.3223010000000  0.5471730000000  0.6491450000000 1.0
C      1  0.4991240000000  0.3209000000000  0.3934850000000 1.0
C      1  0.4081950000000  0.3208980000000  0.5540140000000 1.0
C      1  0.5926820000000  0.3208980000000  0.5524960000000 1.0
C      1  0.4991240000000  0.6791000000000  0.6065150000000 1.0
C      1  0.4081950000000  0.6791020000000  0.4459860000000 1.0
C      1  0.5926820000000  0.6791020000000  0.4475040000000 1.0
C      1  0.4753480000000  0.3707980000000  0.5903570000000 1.0
C      1  0.5905780000000  0.3707990000000  0.4761690000000 1.0
C      1  0.4340740000000  0.3708000000000  0.4334710000000 1.0
C      1  0.4753480000000  0.6292020000000  0.4096430000000 1.0
C      1  0.5905780000000  0.6292010000000  0.5238310000000 1.0
C      1  0.4340740000000  0.6292000000000  0.5665290000000 1.0
C      1  0.3816100000000  0.6002260000000  0.3195230000000 1.0
C      1  0.4028960000000  0.6002230000000  0.6927680000000 1.0
C      1  0.7154930000000  0.6002250000000  0.4877110000000 1.0
C      1  0.3816100000000  0.3997740000000  0.6804770000000 1.0
C      1  0.4028960000000  0.3997770000000  0.3072320000000 1.0
C      1  0.7154930000000  0.3997750000000  0.5122890000000 1.0
C      1  0.2380770000000  0.4324990000000  0.5497840000000 1.0
C      1  0.6740770000000  0.4324980000000  0.7019390000000 1.0
C      1  0.5878470000000  0.4325010000000  0.2482750000000 1.0
C      1  0.2380770000000  0.5675010000000  0.4502160000000 1.0
C      1  0.6740770000000  0.5675020000000  0.2980610000000 1.0
C      1  0.5878470000000  0.5674990000000  0.7517250000000 1.0
C      1  0.3380310000000  0.4244450000000  0.5087440000000 1.0
C      1  0.5885570000000  0.4244440000000  0.6358960000000 1.0
C      1  0.5734120000000  0.4244470000000  0.3553580000000 1.0
C      1  0.3380310000000  0.5755550000000  0.4912560000000 1.0
C      1  0.5885570000000  0.5755560000000  0.3641040000000 1.0
C      1  0.5734120000000  0.5755530000000  0.6446420000000 1.0
C      1  0.6894550000000  0.4531520000000  0.5917900000000 1.0
C      1  0.4847650000000  0.4531550000000  0.2900310000000 1.0
C      1  0.3257790000000  0.4531520000000  0.6181770000000 1.0
C      1  0.6894550000000  0.5468480000000  0.4082100000000 1.0
C      1  0.4847650000000  0.5468450000000  0.7099690000000 1.0
C      1  0.3257790000000  0.5468480000000  0.3818230000000 1.0
C      1  0.3245760000000  0.6530160000000  0.6375870000000 1.0
C      1  0.7068650000000  0.6530160000000  0.5831300000000 1.0
C      1  0.4685590000000  0.6530190000000  0.2792870000000 1.0
C      1  0.3245760000000  0.3469840000000  0.3624130000000 1.0
C      1  0.7068650000000  0.3469840000000  0.4168700000000 1.0
C      1  0.4685590000000  0.3469810000000  0.7207130000000 1.0
C      1  0.3411470000000  0.6795540000000  0.5349550000000 1.0
C      1  0.6096970000000  0.6795530000000  0.6200950000000 1.0
C      1  0.5491560000000  0.6795560000000  0.3449540000000 1.0
C      1  0.3411470000000  0.3204460000000  0.4650450000000 1.0
C      1  0.6096970000000  0.3204470000000  0.3799050000000 1.0
C      1  0.5491560000000  0.3204440000000  0.6550460000000 1.0
C      1  0.5813810000000  0.5256910000000  0.5437400000000 1.0
C      1  0.4971900000000  0.5256920000000  0.4076520000000 1.0
C      1  0.4214290000000  0.5256910000000  0.5486080000000 1.0
C      1  0.5813810000000  0.4743090000000  0.4562600000000 1.0
C      1  0.4971900000000  0.4743080000000  0.5923480000000 1.0
C      1  0.4214290000000  0.4743090000000  0.4513920000000 1.0
END
