TITL C-986979-5873-601 0.0131631414649951 3375 -348.242511644384 0 0 60 (C2) n - 1
REM
REM in /home/bkarasulu/work/CARBON/AIRSS/Generating-Clusters/REBO/Higher-Symm/Only-C60
REM
REM
REM
REM
REM
REM ./C.cell (a2850807a9bf4ad07a5b6933b78d9264)
REM AIRSS Version 0.9.1 bugfix July 2018 build 013d7b7c2542+ Fri, 06 Jul 2018 19:26:36 +0100
REM compiler GCC version 9.2.1 20190827 (Red Hat 9.2.1-1)
REM options -cpp -mtune=generic -march=x86-64 -g -O0 -fpre-include=/usr/include/finclude/math-vector-fortran.h
REM seed 1527104641 867555098 -798552258 -1022548417 1600283604 1523829785 -851657283 -370010269 -1076567456 1858482539 -231782964 1023802616 2027893028 69621503 1662666390 1225356942 1736893792 -436167569 -1729599947 -1353629884 25839598 -1931769681 289465009 -1034088245 -798308167 -267125424 765202982 -1099714137 322484441 -2036547581 -234046608 997808803 308432784
REM
CELL 1.54180   15.00000   15.00000   15.00000   90.00000   90.00000   90.00000
LATT -1
SFAC C  
C      1  0.4197270000000  0.4720180000000  0.2514930000000 1.0
C      1  0.5802770000000  0.4720090000000  0.7485070000000 1.0
C      1  0.5189970000000  0.3009730000000  0.3081820000000 1.0
C      1  0.4810030000000  0.3009720000000  0.6918170000000 1.0
C      1  0.3958250000000  0.6638200000000  0.6035800000000 1.0
C      1  0.6041720000000  0.6638200000000  0.3964180000000 1.0
C      1  0.5371490000000  0.5766320000000  0.7616220000000 1.0
C      1  0.4628320000000  0.5766040000000  0.2383480000000 1.0
C      1  0.3402420000000  0.4338230000000  0.6719970000000 1.0
C      1  0.6597560000000  0.4338250000000  0.3280000000000 1.0
C      1  0.6000960000000  0.5529190000000  0.6723980000000 1.0
C      1  0.3999030000000  0.5529190000000  0.3276020000000 1.0
C      1  0.4524690000000  0.7510130000000  0.3419910000000 1.0
C      1  0.5475310000000  0.7510160000000  0.6580070000000 1.0
C      1  0.4655760000000  0.5560520000000  0.4075090000000 1.0
C      1  0.5344240000000  0.5560520000000  0.5924920000000 1.0
C      1  0.6390450000000  0.2933210000000  0.4127160000000 1.0
C      1  0.3609550000000  0.2933230000000  0.5872840000000 1.0
C      1  0.5822410000000  0.4508410000000  0.2654180000000 1.0
C      1  0.4177650000000  0.4508360000000  0.7345860000000 1.0
C      1  0.5645000000000  0.7119260000000  0.4845510000000 1.0
C      1  0.4355010000000  0.7119260000000  0.5154510000000 1.0
C      1  0.5336310000000  0.6093520000000  0.3457560000000 1.0
C      1  0.4663990000000  0.6093540000000  0.6542690000000 1.0
C      1  0.5929550000000  0.2564490000000  0.3369670000000 1.0
C      1  0.4070460000000  0.2564480000000  0.6630320000000 1.0
C      1  0.5838640000000  0.6127140000000  0.5173110000000 1.0
C      1  0.4161330000000  0.6127140000000  0.4826890000000 1.0
C      1  0.3848660000000  0.2632920000000  0.5007050000000 1.0
C      1  0.6151360000000  0.2632930000000  0.4992910000000 1.0
C      1  0.4708140000000  0.3663080000000  0.3845290000000 1.0
C      1  0.5291860000000  0.3663080000000  0.6154720000000 1.0
C      1  0.5707950000000  0.5554350000000  0.2598480000000 1.0
C      1  0.4291970000000  0.5554310000000  0.7401480000000 1.0
C      1  0.6847320000000  0.4467590000000  0.7534450000000 1.0
C      1  0.3152680000000  0.4467560000000  0.2465570000000 1.0
C      1  0.4638840000000  0.3021140000000  0.4678520000000 1.0
C      1  0.5361160000000  0.3021140000000  0.5321470000000 1.0
C      1  0.7396290000000  0.4878960000000  0.6904930000000 1.0
C      1  0.2603700000000  0.4878920000000  0.3095090000000 1.0
C      1  0.6932710000000  0.5476920000000  0.6323250000000 1.0
C      1  0.3067280000000  0.5476900000000  0.3676760000000 1.0
C      1  0.4654300000000  0.6756470000000  0.2943300000000 1.0
C      1  0.5345680000000  0.6756250000000  0.7056800000000 1.0
C      1  0.6427580000000  0.3874630000000  0.4093240000000 1.0
C      1  0.3572420000000  0.3874600000000  0.5906770000000 1.0
C      1  0.6315110000000  0.5425000000000  0.4473850000000 1.0
C      1  0.3684900000000  0.5424990000000  0.5526150000000 1.0
C      1  0.6874700000000  0.5746960000000  0.5408250000000 1.0
C      1  0.3125310000000  0.5746960000000  0.4591740000000 1.0
C      1  0.4154770000000  0.4498290000000  0.5303640000000 1.0
C      1  0.5845230000000  0.4498290000000  0.4696360000000 1.0
C      1  0.6449300000000  0.5363570000000  0.3441780000000 1.0
C      1  0.3550620000000  0.5363530000000  0.6558270000000 1.0
C      1  0.5216750000000  0.7604660000000  0.5717870000000 1.0
C      1  0.4783240000000  0.7604670000000  0.4282140000000 1.0
C      1  0.4908470000000  0.4045960000000  0.2791950000000 1.0
C      1  0.5091520000000  0.4045950000000  0.7208030000000 1.0
C      1  0.4783790000000  0.4571360000000  0.4377290000000 1.0
C      1  0.5216220000000  0.4571360000000  0.5622690000000 1.0
END
