TITL C-986979-5873-443 4.01502335408959e-07 3375 -349.457651920091 0 0 60 (S4) n - 1
REM
REM in /home/bkarasulu/work/CARBON/AIRSS/Generating-Clusters/REBO/Higher-Symm/Only-C60
REM
REM
REM
REM
REM
REM ./C.cell (a2850807a9bf4ad07a5b6933b78d9264)
REM AIRSS Version 0.9.1 bugfix July 2018 build 013d7b7c2542+ Fri, 06 Jul 2018 19:26:36 +0100
REM compiler GCC version 9.2.1 20190827 (Red Hat 9.2.1-1)
REM options -cpp -mtune=generic -march=x86-64 -g -O0 -fpre-include=/usr/include/finclude/math-vector-fortran.h
REM seed -967967084 1601374734 -443866423 1936943163 1626930823 -975686143 656594656 -1783031411 -1516320000 190282474 76924190 -524791805 1059797321 665572860 -1117745353 -349465100 -213031424 1807525148 1402130854 428685757 1876190983 -129349708 -867665261 -1773606172 1540137966 191849158 -2130461804 556796036 -304426747 1384352734 1529568441 -1255048053 -7442603
REM
CELL 1.54180   15.00000   15.00000   15.00000   90.00000   90.00000   90.00000
LATT -1
SFAC C  
C      1  0.5580080000000  0.6484180000000  0.5083770000000 1.0
C      1  0.3515820000000  0.5580080000000  0.4916230000000 1.0
C      1  0.4419920000000  0.3515820000000  0.5083770000000 1.0
C      1  0.6484180000000  0.4419920000000  0.4916230000000 1.0
C      1  0.3525920000000  0.6459820000000  0.6771710000000 1.0
C      1  0.3540180000000  0.3525920000000  0.3228290000000 1.0
C      1  0.6474080000000  0.3540180000000  0.6771710000000 1.0
C      1  0.6459820000000  0.6474080000000  0.3228290000000 1.0
C      1  0.4922470000000  0.7349650000000  0.5326710000000 1.0
C      1  0.2650350000000  0.4922470000000  0.4673290000000 1.0
C      1  0.5077530000000  0.2650350000000  0.5326710000000 1.0
C      1  0.7349650000000  0.5077530000000  0.4673290000000 1.0
C      1  0.2923550000000  0.4819940000000  0.6544210000000 1.0
C      1  0.5180060000000  0.2923550000000  0.3455790000000 1.0
C      1  0.7076450000000  0.5180060000000  0.6544210000000 1.0
C      1  0.4819940000000  0.7076450000000  0.3455790000000 1.0
C      1  0.4576080000000  0.3308750000000  0.2819320000000 1.0
C      1  0.6691250000000  0.4576080000000  0.7180680000000 1.0
C      1  0.5423920000000  0.6691260000000  0.2819320000000 1.0
C      1  0.3308750000000  0.5423920000000  0.7180680000000 1.0
C      1  0.6693490000000  0.3802880000000  0.3384540000000 1.0
C      1  0.6197120000000  0.6693490000000  0.6615460000000 1.0
C      1  0.3306510000000  0.6197120000000  0.3384540000000 1.0
C      1  0.3802880000000  0.3306510000000  0.6615460000000 1.0
C      1  0.5628520000000  0.4786500000000  0.4681120000000 1.0
C      1  0.5213500000000  0.5628520000000  0.5318880000000 1.0
C      1  0.4371480000000  0.5213500000000  0.4681120000000 1.0
C      1  0.4786500000000  0.4371480000000  0.5318880000000 1.0
C      1  0.7056580000000  0.5875750000000  0.3970640000000 1.0
C      1  0.4124250000000  0.7056580000000  0.6029360000000 1.0
C      1  0.2943420000000  0.4124250000000  0.3970640000000 1.0
C      1  0.5875750000000  0.2943420000000  0.6029360000000 1.0
C      1  0.5491130000000  0.5013640000000  0.3681120000000 1.0
C      1  0.4986360000000  0.5491130000000  0.6318880000000 1.0
C      1  0.4508870000000  0.4986360000000  0.3681120000000 1.0
C      1  0.5013640000000  0.4508870000000  0.6318880000000 1.0
C      1  0.2759210000000  0.5326820000000  0.5697000000000 1.0
C      1  0.4673180000000  0.2759210000000  0.4303000000000 1.0
C      1  0.7240790000000  0.4673180000000  0.5697000000000 1.0
C      1  0.5326820000000  0.7240790000000  0.4303000000000 1.0
C      1  0.3679130000000  0.3321770000000  0.4297010000000 1.0
C      1  0.6678230000000  0.3679130000000  0.5702990000000 1.0
C      1  0.6320870000000  0.6678230000000  0.4297010000000 1.0
C      1  0.3321770000000  0.6320870000000  0.5702990000000 1.0
C      1  0.3896000000000  0.6870470000000  0.3449650000000 1.0
C      1  0.3129530000000  0.3896000000000  0.6550350000000 1.0
C      1  0.6104000000000  0.3129530000000  0.3449650000000 1.0
C      1  0.6870470000000  0.6104000000000  0.6550350000000 1.0
C      1  0.7200210000000  0.4797310000000  0.3619160000000 1.0
C      1  0.5202690000000  0.7200210000000  0.6380840000000 1.0
C      1  0.2799790000000  0.5202690000000  0.3619160000000 1.0
C      1  0.4797310000000  0.2799790000000  0.6380840000000 1.0
C      1  0.6300460000000  0.4731480000000  0.3014760000000 1.0
C      1  0.5268520000000  0.6300460000000  0.6985240000000 1.0
C      1  0.3699540000000  0.5268520000000  0.3014760000000 1.0
C      1  0.4731480000000  0.3699540000000  0.6985240000000 1.0
C      1  0.5670470000000  0.4167450000000  0.7154880000000 1.0
C      1  0.5832550000000  0.5670470000000  0.2845120000000 1.0
C      1  0.4329530000000  0.5832550000000  0.7154880000000 1.0
C      1  0.4167450000000  0.4329530000000  0.2845120000000 1.0
END
