TITL C-986974-580-744 0.00250808623646363 3375 -320.264610366258 0 0 60 (C2) n - 1
REM
REM in /home/bkarasulu/work/CARBON/AIRSS/Generating-Clusters/REBO/Higher-Symm/Only-C60
REM
REM
REM
REM
REM
REM ./C.cell (a2850807a9bf4ad07a5b6933b78d9264)
REM AIRSS Version 0.9.1 bugfix July 2018 build 013d7b7c2542+ Fri, 06 Jul 2018 19:26:36 +0100
REM compiler GCC version 9.2.1 20190827 (Red Hat 9.2.1-1)
REM options -cpp -mtune=generic -march=x86-64 -g -O0 -fpre-include=/usr/include/finclude/math-vector-fortran.h
REM seed -966757335 741421582 -1154771832 -263808659 2073034774 1011588572 -84165405 -1312923585 546086294 1380888442 993776595 1685238154 1142338657 1322066806 742894692 1855875252 821934346 -1781481965 626564689 -390863784 1842620406 -470773213 -821207082 -1781587594 2076032876 115006805 2092403284 -953221342 -2089755334 -1191332494 1459811692 -46993845 -866864481
REM
CELL 1.54180   15.00000   15.00000   15.00000   90.00000   90.00000   90.00000
LATT -1
SFAC C  
C      1  0.5567060000000  0.5165050000000  0.6023190000000 1.0
C      1  0.4032040000000  0.5139960000000  0.5242740000000 1.0
C      1  0.4433160000000  0.5165000000000  0.3976830000000 1.0
C      1  0.5968040000000  0.5140100000000  0.4757270000000 1.0
C      1  0.4573410000000  0.4627250000000  0.5982110000000 1.0
C      1  0.6223160000000  0.4446970000000  0.5622870000000 1.0
C      1  0.5426340000000  0.4627330000000  0.4017910000000 1.0
C      1  0.3776840000000  0.4446900000000  0.4377140000000 1.0
C      1  0.4979940000000  0.5762440000000  0.3191780000000 1.0
C      1  0.6821400000000  0.5758870000000  0.5058580000000 1.0
C      1  0.5019980000000  0.5762510000000  0.6808140000000 1.0
C      1  0.3178680000000  0.5758820000000  0.4941440000000 1.0
C      1  0.5041130000000  0.4442050000000  0.3041120000000 1.0
C      1  0.2884350000000  0.4462450000000  0.4899720000000 1.0
C      1  0.4958870000000  0.4441940000000  0.6958830000000 1.0
C      1  0.7115680000000  0.4462490000000  0.5100310000000 1.0
C      1  0.5219700000000  0.2951990000000  0.5860150000000 1.0
C      1  0.4311990000000  0.3036280000000  0.5176330000000 1.0
C      1  0.4780280000000  0.2951990000000  0.4139840000000 1.0
C      1  0.5688020000000  0.3036260000000  0.4823650000000 1.0
C      1  0.4800630000000  0.6759020000000  0.5659650000000 1.0
C      1  0.5856910000000  0.6818780000000  0.5249880000000 1.0
C      1  0.5199360000000  0.6759030000000  0.4340340000000 1.0
C      1  0.4143060000000  0.6818770000000  0.4750110000000 1.0
C      1  0.4054210000000  0.5990810000000  0.5919600000000 1.0
C      1  0.3937130000000  0.6156130000000  0.3922710000000 1.0
C      1  0.5945810000000  0.5990940000000  0.4080350000000 1.0
C      1  0.6062800000000  0.6156080000000  0.6077250000000 1.0
C      1  0.6120420000000  0.3530840000000  0.6128090000000 1.0
C      1  0.6063360000000  0.3767130000000  0.4039030000000 1.0
C      1  0.3879570000000  0.3530860000000  0.3871970000000 1.0
C      1  0.3936750000000  0.3767190000000  0.5960940000000 1.0
C      1  0.2460670000000  0.5215630000000  0.5650340000000 1.0
C      1  0.4310510000000  0.5132560000000  0.2498150000000 1.0
C      1  0.7539320000000  0.5215610000000  0.4349730000000 1.0
C      1  0.5689480000000  0.5132620000000  0.7501790000000 1.0
C      1  0.7798080000000  0.5304860000000  0.5459290000000 1.0
C      1  0.5431910000000  0.5207930000000  0.2290220000000 1.0
C      1  0.2201980000000  0.5304940000000  0.4540810000000 1.0
C      1  0.4568010000000  0.5207900000000  0.7709740000000 1.0
C      1  0.6948170000000  0.4305410000000  0.3994200000000 1.0
C      1  0.6068870000000  0.4223830000000  0.6926360000000 1.0
C      1  0.3051880000000  0.4305410000000  0.6005760000000 1.0
C      1  0.3931130000000  0.4223800000000  0.3073650000000 1.0
C      1  0.3040850000000  0.5560930000000  0.3820350000000 1.0
C      1  0.3891860000000  0.5550290000000  0.6864690000000 1.0
C      1  0.6959260000000  0.5560930000000  0.6179750000000 1.0
C      1  0.6108040000000  0.5550270000000  0.3135310000000 1.0
C      1  0.4558090000000  0.6920080000000  0.3492010000000 1.0
C      1  0.6526670000000  0.6824700000000  0.4432470000000 1.0
C      1  0.5441950000000  0.6920120000000  0.6507970000000 1.0
C      1  0.3473320000000  0.6824690000000  0.5567540000000 1.0
C      1  0.5580030000000  0.3029770000000  0.3501510000000 1.0
C      1  0.3522020000000  0.2772940000000  0.4511880000000 1.0
C      1  0.4419900000000  0.3029800000000  0.6498480000000 1.0
C      1  0.6477960000000  0.2772940000000  0.5488120000000 1.0
C      1  0.6867230000000  0.4971500000000  0.3227210000000 1.0
C      1  0.6821180000000  0.4896660000000  0.6842550000000 1.0
C      1  0.3132750000000  0.4971490000000  0.6772780000000 1.0
C      1  0.3178790000000  0.4896760000000  0.3157490000000 1.0
END
