TITL C-986974-580-421 0.0109948041466746 3375 -310.423901579432 0 0 60 (C2) n - 1
REM
REM in /home/bkarasulu/work/CARBON/AIRSS/Generating-Clusters/REBO/Higher-Symm/Only-C60
REM
REM
REM
REM
REM
REM ./C.cell (a2850807a9bf4ad07a5b6933b78d9264)
REM AIRSS Version 0.9.1 bugfix July 2018 build 013d7b7c2542+ Fri, 06 Jul 2018 19:26:36 +0100
REM compiler GCC version 9.2.1 20190827 (Red Hat 9.2.1-1)
REM options -cpp -mtune=generic -march=x86-64 -g -O0 -fpre-include=/usr/include/finclude/math-vector-fortran.h
REM seed -1049334758 -1283831149 1102149299 1212923127 -419189087 236233208 383864898 -312838729 2145137162 -809397223 -274067985 1209083812 -1539120944 -555945777 -825195299 30515598 1703393227 -1660068758 845955289 -1029225347 1591122928 -2068636496 978834819 -966372490 385819896 -2112183245 595174576 1191554028 -1140542640 45791455 1067317585 1082817448 1210887871
REM
CELL 1.54180   15.00000   15.00000   15.00000   90.00000   90.00000   90.00000
LATT -1
SFAC C  
C      1  0.6937280000000  0.3988440000000  0.5952770000000 1.0
C      1  0.4888820000000  0.4102700000000  0.6696030000000 1.0
C      1  0.3030290000000  0.3994750000000  0.5931660000000 1.0
C      1  0.3062700000000  0.3988350000000  0.4047300000000 1.0
C      1  0.5111190000000  0.4102600000000  0.3304040000000 1.0
C      1  0.6969710000000  0.3994690000000  0.4068420000000 1.0
C      1  0.3127430000000  0.6083980000000  0.6037070000000 1.0
C      1  0.4969620000000  0.5943580000000  0.6797490000000 1.0
C      1  0.6676060000000  0.6037940000000  0.5722500000000 1.0
C      1  0.6872540000000  0.6083940000000  0.3962880000000 1.0
C      1  0.5030350000000  0.5943460000000  0.3202450000000 1.0
C      1  0.3323900000000  0.6037930000000  0.4277410000000 1.0
C      1  0.4481510000000  0.2601700000000  0.4044620000000 1.0
C      1  0.5614630000000  0.2575960000000  0.4079440000000 1.0
C      1  0.6128900000000  0.2578000000000  0.5039110000000 1.0
C      1  0.5518570000000  0.2601780000000  0.5955490000000 1.0
C      1  0.4385450000000  0.2576020000000  0.5920670000000 1.0
C      1  0.3871190000000  0.2578010000000  0.4961000000000 1.0
C      1  0.5547260000000  0.7467700000000  0.4029560000000 1.0
C      1  0.4432270000000  0.7469110000000  0.4070000000000 1.0
C      1  0.3890410000000  0.7538660000000  0.5036250000000 1.0
C      1  0.4452680000000  0.7467760000000  0.5970270000000 1.0
C      1  0.5567670000000  0.7469200000000  0.5929830000000 1.0
C      1  0.6109530000000  0.7538690000000  0.4963580000000 1.0
C      1  0.3450070000000  0.4772600000000  0.4571410000000 1.0
C      1  0.4679900000000  0.4525200000000  0.4252300000000 1.0
C      1  0.5936170000000  0.4289290000000  0.4365700000000 1.0
C      1  0.6550060000000  0.4772790000000  0.5428600000000 1.0
C      1  0.5320190000000  0.4525190000000  0.5747830000000 1.0
C      1  0.4063620000000  0.4289240000000  0.5634370000000 1.0
C      1  0.6562420000000  0.5197620000000  0.4407290000000 1.0
C      1  0.5355430000000  0.5236330000000  0.3949050000000 1.0
C      1  0.4286930000000  0.5537690000000  0.4649440000000 1.0
C      1  0.3437560000000  0.5197600000000  0.5592710000000 1.0
C      1  0.4644540000000  0.5236400000000  0.6050950000000 1.0
C      1  0.5713090000000  0.5537840000000  0.5350510000000 1.0
C      1  0.6567400000000  0.3029390000000  0.5934210000000 1.0
C      1  0.4905380000000  0.3092160000000  0.6727860000000 1.0
C      1  0.3330560000000  0.2982870000000  0.5838870000000 1.0
C      1  0.3432690000000  0.3029330000000  0.4065870000000 1.0
C      1  0.5094680000000  0.3092060000000  0.3272230000000 1.0
C      1  0.6669520000000  0.2982830000000  0.4161220000000 1.0
C      1  0.3421630000000  0.7033130000000  0.5911270000000 1.0
C      1  0.5030720000000  0.6933330000000  0.6735890000000 1.0
C      1  0.6583240000000  0.7027270000000  0.5809650000000 1.0
C      1  0.6578320000000  0.7033100000000  0.4088600000000 1.0
C      1  0.4969230000000  0.6933200000000  0.3263970000000 1.0
C      1  0.3416710000000  0.7027160000000  0.4190200000000 1.0
C      1  0.2542080000000  0.4452200000000  0.4994270000000 1.0
C      1  0.3977600000000  0.4349030000000  0.3435410000000 1.0
C      1  0.6206770000000  0.4455510000000  0.3311810000000 1.0
C      1  0.7457940000000  0.4452230000000  0.5005820000000 1.0
C      1  0.6022400000000  0.4349160000000  0.6564650000000 1.0
C      1  0.3793220000000  0.4455590000000  0.6688250000000 1.0
C      1  0.7389190000000  0.5629970000000  0.4912950000000 1.0
C      1  0.6130400000000  0.5594560000000  0.3231350000000 1.0
C      1  0.4051380000000  0.5479220000000  0.3565640000000 1.0
C      1  0.2610750000000  0.5629960000000  0.5087060000000 1.0
C      1  0.3869590000000  0.5594660000000  0.6768630000000 1.0
C      1  0.5948620000000  0.5479350000000  0.6434320000000 1.0
END
