TITL C-986974-580-1000 0.00198679019796202 3375 -346.370403940747 0 0 60 (C3) n - 1
REM
REM in /home/bkarasulu/work/CARBON/AIRSS/Generating-Clusters/REBO/Higher-Symm/Only-C60
REM
REM
REM
REM
REM
REM ./C.cell (a2850807a9bf4ad07a5b6933b78d9264)
REM AIRSS Version 0.9.1 bugfix July 2018 build 013d7b7c2542+ Fri, 06 Jul 2018 19:26:36 +0100
REM compiler GCC version 9.2.1 20190827 (Red Hat 9.2.1-1)
REM options -cpp -mtune=generic -march=x86-64 -g -O0 -fpre-include=/usr/include/finclude/math-vector-fortran.h
REM seed 1464780323 1764729480 999530808 1013756336 -1286153181 309882015 1491113889 -894271648 2138852444 1018894660 346207334 456550910 -1929001792 765865804 -709937668 1997510942 -1896257507 -919411404 2094684335 1775768129 -819741818 -1661691414 -819202374 270965372 770463871 -1305047400 1766582738 227685475 -875068639 561957512 -1516985238 -1518157007 574483410
REM
CELL 1.54180   15.00000   15.00000   15.00000   90.00000   90.00000   90.00000
LATT -1
SFAC C  
C      1  0.4394260000000  0.7574210000000  0.4486610000000 1.0
C      1  0.5418970000000  0.7039000000000  0.3268830000000 1.0
C      1  0.5016730000000  0.5977760000000  0.2281400000000 1.0
C      1  0.5123840000000  0.4458760000000  0.2170070000000 1.0
C      1  0.4395110000000  0.3267760000000  0.3026860000000 1.0
C      1  0.5419660000000  0.2481520000000  0.4101300000000 1.0
C      1  0.5016460000000  0.2156880000000  0.5512370000000 1.0
C      1  0.5122400000000  0.2819940000000  0.6883480000000 1.0
C      1  0.4393890000000  0.4156590000000  0.7486190000000 1.0
C      1  0.5417760000000  0.5481090000000  0.7630520000000 1.0
C      1  0.5014890000000  0.6865170000000  0.7206300000000 1.0
C      1  0.5121620000000  0.7721100000000  0.5946570000000 1.0
C      1  0.3774060000000  0.6008830000000  0.6577110000000 1.0
C      1  0.6360760000000  0.6714450000000  0.5804040000000 1.0
C      1  0.3652360000000  0.6653350000000  0.5648310000000 1.0
C      1  0.6213870000000  0.6684240000000  0.4680360000000 1.0
C      1  0.3775470000000  0.5861450000000  0.3336990000000 1.0
C      1  0.6362360000000  0.4839210000000  0.3114050000000 1.0
C      1  0.3653720000000  0.4734820000000  0.3243050000000 1.0
C      1  0.6215090000000  0.3881080000000  0.3701880000000 1.0
C      1  0.3775310000000  0.3129150000000  0.5084690000000 1.0
C      1  0.6361720000000  0.3447130000000  0.6083200000000 1.0
C      1  0.3652660000000  0.3611160000000  0.6107210000000 1.0
C      1  0.6214150000000  0.4435310000000  0.6619070000000 1.0
C      1  0.5419600000000  0.3168630000000  0.5633630000000 1.0
C      1  0.4710040000000  0.3651280000000  0.6298180000000 1.0
C      1  0.5093300000000  0.4579070000000  0.6709090000000 1.0
C      1  0.4826600000000  0.5643520000000  0.6714110000000 1.0
C      1  0.5418720000000  0.6464440000000  0.6269830000000 1.0
C      1  0.4709960000000  0.6798280000000  0.5518860000000 1.0
C      1  0.5093280000000  0.6690470000000  0.4510040000000 1.0
C      1  0.4828050000000  0.6163310000000  0.3585190000000 1.0
C      1  0.5419900000000  0.5367030000000  0.3097110000000 1.0
C      1  0.4710970000000  0.4549450000000  0.3182360000000 1.0
C      1  0.5094430000000  0.3729950000000  0.3780750000000 1.0
C      1  0.4827880000000  0.3193600000000  0.4700050000000 1.0
C      1  0.6838800000000  0.4154690000000  0.5478820000000 1.0
C      1  0.3169410000000  0.4513140000000  0.5791530000000 1.0
C      1  0.6810860000000  0.5037730000000  0.5935360000000 1.0
C      1  0.3219610000000  0.5418490000000  0.5878770000000 1.0
C      1  0.6838410000000  0.5837430000000  0.5493730000000 1.0
C      1  0.3169520000000  0.5929230000000  0.5024460000000 1.0
C      1  0.6810350000000  0.5791660000000  0.4500510000000 1.0
C      1  0.3220420000000  0.5552000000000  0.4196880000000 1.0
C      1  0.6838920000000  0.5009310000000  0.4028910000000 1.0
C      1  0.3170490000000  0.4556820000000  0.4181930000000 1.0
C      1  0.6810960000000  0.4172660000000  0.4565640000000 1.0
C      1  0.3220300000000  0.4028540000000  0.4922250000000 1.0
C      1  0.5960120000000  0.7668930000000  0.6100150000000 1.0
C      1  0.3734530000000  0.7556750000000  0.5026890000000 1.0
C      1  0.6050530000000  0.7268470000000  0.3785740000000 1.0
C      1  0.4208450000000  0.6221380000000  0.2408320000000 1.0
C      1  0.5962330000000  0.4617770000000  0.2139390000000 1.0
C      1  0.3735430000000  0.3744440000000  0.2771930000000 1.0
C      1  0.6051270000000  0.2813760000000  0.3643840000000 1.0
C      1  0.4208310000000  0.2144870000000  0.5237490000000 1.0
C      1  0.5960950000000  0.2713470000000  0.6761710000000 1.0
C      1  0.3734200000000  0.3697770000000  0.7200300000000 1.0
C      1  0.6049320000000  0.4918570000000  0.7572320000000 1.0
C      1  0.4206660000000  0.6633120000000  0.7353500000000 1.0
END
