TITL C-986976-6631-1186 -0.0062563736916733 3375 -339.886155769771 0 0 60 (C1) n - 1
REM
REM in /home/bkarasulu/work/CARBON/AIRSS/Generating-Clusters/REBO/Higher-Symm/Only-C60
REM
REM
REM
REM
REM
REM ./C.cell (a2850807a9bf4ad07a5b6933b78d9264)
REM AIRSS Version 0.9.1 bugfix July 2018 build 013d7b7c2542+ Fri, 06 Jul 2018 19:26:36 +0100
REM compiler GCC version 9.2.1 20190827 (Red Hat 9.2.1-1)
REM options -cpp -mtune=generic -march=x86-64 -g -O0 -fpre-include=/usr/include/finclude/math-vector-fortran.h
REM seed -194938370 280536845 -2115428679 147464931 -776959296 -1159750331 287227134 -1358285711 448186056 -65120077 1007489211 514654373 -1371890136 63539742 920731736 -1871276547 398668635 1507438537 -751142075 1750286114 -1490059692 -215379430 864310201 1462281143 317882619 -130750296 875326270 -92673933 1865933002 1482200114 1685669877 1933282070 2116740981
REM
CELL 1.54180   15.00000   15.00000   15.00000   90.00000   90.00000   90.00000
LATT -1
SFAC C  
C      1  0.5584310000000  0.2777790000000  0.6224220000000 1.0
C      1  0.5588660000000  0.5045870000000  0.2454840000000 1.0
C      1  0.5539880000000  0.7165240000000  0.6332770000000 1.0
C      1  0.6056930000000  0.7109950000000  0.5321610000000 1.0
C      1  0.6111070000000  0.3679620000000  0.6671240000000 1.0
C      1  0.6106960000000  0.4209630000000  0.3023480000000 1.0
C      1  0.6696910000000  0.2862770000000  0.4760740000000 1.0
C      1  0.6691560000000  0.6271630000000  0.3271070000000 1.0
C      1  0.6691730000000  0.5875680000000  0.6975210000000 1.0
C      1  0.4766810000000  0.3525490000000  0.6091620000000 1.0
C      1  0.4769510000000  0.4788990000000  0.3166020000000 1.0
C      1  0.4790040000000  0.6693450000000  0.5677620000000 1.0
C      1  0.5605900000000  0.6589060000000  0.4548020000000 1.0
C      1  0.5628560000000  0.4593330000000  0.6606970000000 1.0
C      1  0.5623420000000  0.3812040000000  0.3848300000000 1.0
C      1  0.3317650000000  0.4328700000000  0.3810320000000 1.0
C      1  0.3331380000000  0.6387940000000  0.5004770000000 1.0
C      1  0.3316520000000  0.4306950000000  0.6192120000000 1.0
C      1  0.3794970000000  0.5680740000000  0.3003350000000 1.0
C      1  0.3855540000000  0.6366730000000  0.6567190000000 1.0
C      1  0.3786410000000  0.2929590000000  0.5415390000000 1.0
C      1  0.6398290000000  0.6471070000000  0.6166680000000 1.0
C      1  0.6424580000000  0.3268790000000  0.5685780000000 1.0
C      1  0.6419270000000  0.5268240000000  0.3161380000000 1.0
C      1  0.5280860000000  0.4829450000000  0.4135480000000 1.0
C      1  0.5296140000000  0.5807660000000  0.5288000000000 1.0
C      1  0.5293170000000  0.4337000000000  0.5572570000000 1.0
C      1  0.6873450000000  0.6335690000000  0.4250190000000 1.0
C      1  0.6890600000000  0.4999160000000  0.6541560000000 1.0
C      1  0.6889590000000  0.3681690000000  0.4222650000000 1.0
C      1  0.4169660000000  0.5410960000000  0.6485060000000 1.0
C      1  0.4162770000000  0.3494640000000  0.4633670000000 1.0
C      1  0.4175900000000  0.6061440000000  0.3888990000000 1.0
C      1  0.4162000000000  0.6888690000000  0.4918390000000 1.0
C      1  0.4148900000000  0.4108910000000  0.6665890000000 1.0
C      1  0.4146570000000  0.4007730000000  0.3417960000000 1.0
C      1  0.6007210000000  0.5421490000000  0.5931840000000 1.0
C      1  0.6007850000000  0.3989300000000  0.4900430000000 1.0
C      1  0.5995310000000  0.5590950000000  0.4174220000000 1.0
C      1  0.2913350000000  0.3988280000000  0.4598270000000 1.0
C      1  0.2916680000000  0.5875230000000  0.4320080000000 1.0
C      1  0.2920750000000  0.5168600000000  0.6086280000000 1.0
C      1  0.4339290000000  0.4463530000000  0.4656140000000 1.0
C      1  0.4340730000000  0.5564060000000  0.4718890000000 1.0
C      1  0.4340340000000  0.4953580000000  0.5635560000000 1.0
C      1  0.4778900000000  0.4901520000000  0.7188770000000 1.0
C      1  0.4775680000000  0.3154120000000  0.3832730000000 1.0
C      1  0.4774330000000  0.6933870000000  0.3959360000000 1.0
C      1  0.3143890000000  0.5261230000000  0.3626560000000 1.0
C      1  0.3171310000000  0.6074460000000  0.5905010000000 1.0
C      1  0.3144880000000  0.3686260000000  0.5470090000000 1.0
C      1  0.5160760000000  0.2425380000000  0.4522170000000 1.0
C      1  0.5163090000000  0.6701850000000  0.2988640000000 1.0
C      1  0.5159290000000  0.5878040000000  0.7471440000000 1.0
C      1  0.4794590000000  0.2562870000000  0.5470430000000 1.0
C      1  0.4796500000000  0.5806940000000  0.2639090000000 1.0
C      1  0.4793880000000  0.6623320000000  0.6905740000000 1.0
C      1  0.6056740000000  0.2239620000000  0.4443400000000 1.0
C      1  0.6060790000000  0.6857760000000  0.2874580000000 1.0
C      1  0.6057400000000  0.5905460000000  0.7679120000000 1.0
END
