TITL C-986979-5873-67 -0.0190819740195265 3375 -352.092899113698 0 0 60 (C1) n - 1
REM
REM in /home/bkarasulu/work/CARBON/AIRSS/Generating-Clusters/REBO/Higher-Symm/Only-C60
REM
REM
REM
REM
REM
REM ./C.cell (a2850807a9bf4ad07a5b6933b78d9264)
REM AIRSS Version 0.9.1 bugfix July 2018 build 013d7b7c2542+ Fri, 06 Jul 2018 19:26:36 +0100
REM compiler GCC version 9.2.1 20190827 (Red Hat 9.2.1-1)
REM options -cpp -mtune=generic -march=x86-64 -g -O0 -fpre-include=/usr/include/finclude/math-vector-fortran.h
REM seed 1538788949 -499091805 1625769625 -1315535798 -139944406 -887392478 -854676294 -1163475313 -1389820100 1975916236 1339297227 -754665818 1395687104 -650878675 883182605 870862407 -351443641 -442081733 793656583 -1051053851 967825422 1375897123 -2039927651 1145991776 786235574 -2007550307 816193793 1687500958 -939416753 1756404328 1397837978 -960703138 -325995886
REM
CELL 1.54180   15.00000   15.00000   15.00000   90.00000   90.00000   90.00000
LATT -1
SFAC C  
C      1  0.6274660000000  0.5536860000000  0.5570220000000 1.0
C      1  0.6131960000000  0.5423390000000  0.4535180000000 1.0
C      1  0.4486120000000  0.4245280000000  0.3081010000000 1.0
C      1  0.4571390000000  0.4362240000000  0.6733920000000 1.0
C      1  0.3364910000000  0.7105980000000  0.4063240000000 1.0
C      1  0.3351620000000  0.7112830000000  0.6003690000000 1.0
C      1  0.4615640000000  0.2680030000000  0.4334320000000 1.0
C      1  0.4714200000000  0.2781070000000  0.5542950000000 1.0
C      1  0.4090050000000  0.1744440000000  0.4442570000000 1.0
C      1  0.4204720000000  0.1904720000000  0.5336270000000 1.0
C      1  0.3045500000000  0.6137730000000  0.6436910000000 1.0
C      1  0.3067690000000  0.6128290000000  0.3632570000000 1.0
C      1  0.5272240000000  0.6033810000000  0.5350590000000 1.0
C      1  0.5228750000000  0.6020540000000  0.4234910000000 1.0
C      1  0.5983480000000  0.4998830000000  0.2918850000000 1.0
C      1  0.6036780000000  0.5089970000000  0.7145920000000 1.0
C      1  0.5473410000000  0.6477960000000  0.2850100000000 1.0
C      1  0.5477680000000  0.6548620000000  0.7244320000000 1.0
C      1  0.6237210000000  0.6628580000000  0.6597590000000 1.0
C      1  0.6225930000000  0.6508010000000  0.3504840000000 1.0
C      1  0.4454120000000  0.5166040000000  0.7317850000000 1.0
C      1  0.4430270000000  0.5123590000000  0.2591760000000 1.0
C      1  0.2624230000000  0.6530750000000  0.5485900000000 1.0
C      1  0.2632310000000  0.6525750000000  0.4575440000000 1.0
C      1  0.6150220000000  0.3308850000000  0.4004070000000 1.0
C      1  0.6263970000000  0.3429850000000  0.6007430000000 1.0
C      1  0.5277490000000  0.5618490000000  0.7451590000000 1.0
C      1  0.5270510000000  0.5562190000000  0.2574240000000 1.0
C      1  0.4639510000000  0.4348370000000  0.4392820000000 1.0
C      1  0.4779830000000  0.4480770000000  0.5423740000000 1.0
C      1  0.3668920000000  0.5254610000000  0.6244040000000 1.0
C      1  0.3657490000000  0.5216990000000  0.3820470000000 1.0
C      1  0.7507590000000  0.4496740000000  0.4546110000000 1.0
C      1  0.7615490000000  0.4602070000000  0.5599330000000 1.0
C      1  0.5757390000000  0.2779170000000  0.5554800000000 1.0
C      1  0.5611310000000  0.2749130000000  0.4557970000000 1.0
C      1  0.6646530000000  0.5598820000000  0.3323660000000 1.0
C      1  0.6717050000000  0.5726130000000  0.6803860000000 1.0
C      1  0.7219950000000  0.5361970000000  0.6006910000000 1.0
C      1  0.7110800000000  0.5232900000000  0.4112700000000 1.0
C      1  0.5690560000000  0.4240730000000  0.6557590000000 1.0
C      1  0.5573310000000  0.4097150000000  0.3417380000000 1.0
C      1  0.6044690000000  0.6753510000000  0.4548710000000 1.0
C      1  0.6010590000000  0.6828190000000  0.5651110000000 1.0
C      1  0.5692910000000  0.4463410000000  0.4456790000000 1.0
C      1  0.5833570000000  0.4589850000000  0.5532320000000 1.0
C      1  0.4397560000000  0.3604470000000  0.5933140000000 1.0
C      1  0.4306220000000  0.3473150000000  0.3888770000000 1.0
C      1  0.3650080000000  0.5673380000000  0.2807090000000 1.0
C      1  0.3589780000000  0.5661490000000  0.7282470000000 1.0
C      1  0.2854090000000  0.3995050000000  0.4540160000000 1.0
C      1  0.2881570000000  0.4040770000000  0.5377140000000 1.0
C      1  0.7022940000000  0.3727860000000  0.5509210000000 1.0
C      1  0.6952090000000  0.3608170000000  0.4440070000000 1.0
C      1  0.3894000000000  0.7674710000000  0.4573710000000 1.0
C      1  0.3888150000000  0.7677060000000  0.5495520000000 1.0
C      1  0.3480930000000  0.4198590000000  0.3771610000000 1.0
C      1  0.3528350000000  0.4238350000000  0.6110330000000 1.0
C      1  0.4416810000000  0.5455510000000  0.5638190000000 1.0
C      1  0.4402800000000  0.5416250000000  0.4514060000000 1.0
END
