TITL C-986979-5873-315 -8.22919949842143e-07 3375 -344.750457198139 0 0 60 (C1) n - 1
REM
REM in /home/bkarasulu/work/CARBON/AIRSS/Generating-Clusters/REBO/Higher-Symm/Only-C60
REM
REM
REM
REM
REM
REM ./C.cell (a2850807a9bf4ad07a5b6933b78d9264)
REM AIRSS Version 0.9.1 bugfix July 2018 build 013d7b7c2542+ Fri, 06 Jul 2018 19:26:36 +0100
REM compiler GCC version 9.2.1 20190827 (Red Hat 9.2.1-1)
REM options -cpp -mtune=generic -march=x86-64 -g -O0 -fpre-include=/usr/include/finclude/math-vector-fortran.h
REM seed 801518283 -802742053 1240249455 -278830330 1183842028 156756940 1064439038 1382324258 -980383947 -977840728 1017416610 1202154893 -925403916 651817107 1523036075 -1076491978 1337571136 1785779256 -1372295579 -972984455 -871968353 1421339862 -203435509 -1191133479 -2044560730 1284845083 -1768620773 -295925863 -68695528 -21721730 394482413 -271836821 1615177215
REM
CELL 1.54180   15.00000   15.00000   15.00000   90.00000   90.00000   90.00000
LATT -1
SFAC C  
C      1  0.5763050000000  0.4583860000000  0.4878180000000 1.0
C      1  0.5307950000000  0.4444740000000  0.5902220000000 1.0
C      1  0.4212120000000  0.4321600000000  0.5636860000000 1.0
C      1  0.4035660000000  0.4296260000000  0.4516230000000 1.0
C      1  0.5021810000000  0.4442200000000  0.4063370000000 1.0
C      1  0.6070810000000  0.5645260000000  0.4851910000000 1.0
C      1  0.5541740000000  0.5537560000000  0.5811580000000 1.0
C      1  0.4435990000000  0.5422130000000  0.5715970000000 1.0
C      1  0.4274630000000  0.5375930000000  0.4637380000000 1.0
C      1  0.5256820000000  0.5521970000000  0.4084130000000 1.0
C      1  0.5522400000000  0.3457520000000  0.4197200000000 1.0
C      1  0.5909550000000  0.3499660000000  0.5189770000000 1.0
C      1  0.5075500000000  0.3330850000000  0.5856010000000 1.0
C      1  0.4182940000000  0.3226960000000  0.5291720000000 1.0
C      1  0.4451350000000  0.3257620000000  0.4258060000000 1.0
C      1  0.5422380000000  0.6642840000000  0.4260540000000 1.0
C      1  0.5849450000000  0.6699190000000  0.5239720000000 1.0
C      1  0.5065400000000  0.6567020000000  0.5950310000000 1.0
C      1  0.4137180000000  0.6458550000000  0.5398530000000 1.0
C      1  0.4367850000000  0.6471940000000  0.4349890000000 1.0
C      1  0.4932160000000  0.6622400000000  0.6935780000000 1.0
C      1  0.3167420000000  0.6517160000000  0.5591100000000 1.0
C      1  0.3873250000000  0.6505230000000  0.3486270000000 1.0
C      1  0.6121840000000  0.6454410000000  0.3528200000000 1.0
C      1  0.6774170000000  0.6559310000000  0.5671660000000 1.0
C      1  0.4953140000000  0.3576220000000  0.6849270000000 1.0
C      1  0.3194320000000  0.3474330000000  0.5484210000000 1.0
C      1  0.3974370000000  0.3438070000000  0.3363900000000 1.0
C      1  0.6205950000000  0.3416410000000  0.3479040000000 1.0
C      1  0.6811790000000  0.3496390000000  0.5603910000000 1.0
C      1  0.5230200000000  0.5666270000000  0.7423250000000 1.0
C      1  0.2763300000000  0.5552180000000  0.6013580000000 1.0
C      1  0.3362070000000  0.5528620000000  0.3233060000000 1.0
C      1  0.6158370000000  0.5471580000000  0.2967550000000 1.0
C      1  0.7278470000000  0.5575470000000  0.5514560000000 1.0
C      1  0.5269890000000  0.4560500000000  0.7312160000000 1.0
C      1  0.2858510000000  0.4452790000000  0.5917590000000 1.0
C      1  0.3465880000000  0.4427820000000  0.3224910000000 1.0
C      1  0.6245200000000  0.4369630000000  0.2900050000000 1.0
C      1  0.7370990000000  0.4473330000000  0.5472190000000 1.0
C      1  0.4463860000000  0.4150150000000  0.2761110000000 1.0
C      1  0.7067030000000  0.4014080000000  0.3603860000000 1.0
C      1  0.6934720000000  0.4102780000000  0.6457820000000 1.0
C      1  0.4203100000000  0.4281240000000  0.7039380000000 1.0
C      1  0.2747940000000  0.4171610000000  0.4829290000000 1.0
C      1  0.4290950000000  0.5927080000000  0.2706740000000 1.0
C      1  0.6875120000000  0.5770160000000  0.3797370000000 1.0
C      1  0.6754540000000  0.5877000000000  0.6475570000000 1.0
C      1  0.4152360000000  0.6024570000000  0.7324510000000 1.0
C      1  0.2542250000000  0.5941220000000  0.4963970000000 1.0
C      1  0.5235260000000  0.4599160000000  0.2582490000000 1.0
C      1  0.7455430000000  0.4381800000000  0.4345140000000 1.0
C      1  0.6361520000000  0.4454830000000  0.7074270000000 1.0
C      1  0.3447910000000  0.4692330000000  0.6760620000000 1.0
C      1  0.2818740000000  0.4628950000000  0.4046120000000 1.0
C      1  0.5120690000000  0.5585120000000  0.2538510000000 1.0
C      1  0.7315030000000  0.5351630000000  0.4475580000000 1.0
C      1  0.6238300000000  0.5439910000000  0.7087280000000 1.0
C      1  0.3401370000000  0.5660330000000  0.6948330000000 1.0
C      1  0.2658040000000  0.5604280000000  0.4120200000000 1.0
END
