TITL C-986973-6940-405 6.66200021285574e-06 3375 -341.523846084668 0 0 60 (S4) n - 1
REM
REM in /home/bkarasulu/work/CARBON/AIRSS/Generating-Clusters/REBO/Higher-Symm/Only-C60
REM
REM
REM
REM
REM
REM ./C.cell (a2850807a9bf4ad07a5b6933b78d9264)
REM AIRSS Version 0.9.1 bugfix July 2018 build 013d7b7c2542+ Fri, 06 Jul 2018 19:26:36 +0100
REM compiler GCC version 9.2.1 20190827 (Red Hat 9.2.1-1)
REM options -cpp -mtune=generic -march=x86-64 -g -O0 -fpre-include=/usr/include/finclude/math-vector-fortran.h
REM seed -259519168 -798144946 378156944 -1228041935 -1296346445 1547746635 -1498733224 -430518340 1888512312 -71951210 -1664442925 120856270 766458539 -1112081377 1107859041 74658897 1119984825 338678949 1076949636 2118479638 -1460538003 -149262604 -649573829 -176953060 -70266507 1277729770 1305928352 757698911 -669754900 -1242851167 267397074 1325300198 1612563705
REM
CELL 1.54180   15.00000   15.00000   15.00000   90.00000   90.00000   90.00000
LATT -1
SFAC C  
C      1  0.6142080000000  0.4988210000000  0.4643600000000 1.0
C      1  0.3857920000000  0.4988170000000  0.5356400000000 1.0
C      1  0.6236740000000  0.5060640000000  0.5567640000000 1.0
C      1  0.3763260000000  0.5060630000000  0.4432370000000 1.0
C      1  0.4432350000000  0.4939340000000  0.6236740000000 1.0
C      1  0.5567660000000  0.4939400000000  0.3763250000000 1.0
C      1  0.5356380000000  0.5011800000000  0.6142050000000 1.0
C      1  0.4643620000000  0.5011830000000  0.3857960000000 1.0
C      1  0.5162940000000  0.5598540000000  0.7310420000000 1.0
C      1  0.4837040000000  0.5598610000000  0.2689600000000 1.0
C      1  0.5015160000000  0.4616460000000  0.2602390000000 1.0
C      1  0.4984850000000  0.4616380000000  0.7397600000000 1.0
C      1  0.7397610000000  0.5383600000000  0.5015170000000 1.0
C      1  0.2602380000000  0.5383550000000  0.4984840000000 1.0
C      1  0.2689570000000  0.4401380000000  0.5162950000000 1.0
C      1  0.7310440000000  0.4401440000000  0.4837030000000 1.0
C      1  0.4710090000000  0.7684790000000  0.5600260000000 1.0
C      1  0.5289850000000  0.7684820000000  0.4399820000000 1.0
C      1  0.4979760000000  0.2304970000000  0.4112650000000 1.0
C      1  0.5020300000000  0.2304940000000  0.5887260000000 1.0
C      1  0.5887270000000  0.7695050000000  0.4979780000000 1.0
C      1  0.4112670000000  0.7695030000000  0.5020300000000 1.0
C      1  0.4399810000000  0.2315210000000  0.4710080000000 1.0
C      1  0.5600250000000  0.2315210000000  0.5289830000000 1.0
C      1  0.5718700000000  0.6726030000000  0.3589960000000 1.0
C      1  0.4281260000000  0.6725970000000  0.6410090000000 1.0
C      1  0.5628800000000  0.3283280000000  0.6547730000000 1.0
C      1  0.4371240000000  0.3283310000000  0.3452210000000 1.0
C      1  0.3452210000000  0.6716680000000  0.5628800000000 1.0
C      1  0.6547750000000  0.6716730000000  0.4371250000000 1.0
C      1  0.6410090000000  0.3274020000000  0.5718680000000 1.0
C      1  0.3589950000000  0.3274010000000  0.4281270000000 1.0
C      1  0.7409970000000  0.6032570000000  0.4339180000000 1.0
C      1  0.2590010000000  0.6032500000000  0.5660850000000 1.0
C      1  0.7346270000000  0.3785000000000  0.5539650000000 1.0
C      1  0.2653760000000  0.3784960000000  0.4460310000000 1.0
C      1  0.4460290000000  0.6214940000000  0.7346250000000 1.0
C      1  0.5539680000000  0.6215030000000  0.2653790000000 1.0
C      1  0.5660870000000  0.3967440000000  0.7409940000000 1.0
C      1  0.4339160000000  0.3967500000000  0.2590030000000 1.0
C      1  0.5331650000000  0.6896250000000  0.6045750000000 1.0
C      1  0.4668310000000  0.6896270000000  0.3954310000000 1.0
C      1  0.5477020000000  0.3206320000000  0.3691870000000 1.0
C      1  0.4523020000000  0.3206270000000  0.6308070000000 1.0
C      1  0.6308080000000  0.6793710000000  0.5477030000000 1.0
C      1  0.3691880000000  0.6793700000000  0.4523030000000 1.0
C      1  0.3954300000000  0.3103730000000  0.5331650000000 1.0
C      1  0.6045740000000  0.3103770000000  0.4668290000000 1.0
C      1  0.3195880000000  0.5886840000000  0.4147940000000 1.0
C      1  0.6804100000000  0.5886850000000  0.5852090000000 1.0
C      1  0.3542680000000  0.4034600000000  0.5834320000000 1.0
C      1  0.6457340000000  0.4034660000000  0.4165650000000 1.0
C      1  0.4165670000000  0.5965390000000  0.3542700000000 1.0
C      1  0.5834310000000  0.5965360000000  0.6457330000000 1.0
C      1  0.5852080000000  0.4113180000000  0.3195870000000 1.0
C      1  0.4147940000000  0.4113110000000  0.6804100000000 1.0
C      1  0.6164350000000  0.5796120000000  0.3936400000000 1.0
C      1  0.3835630000000  0.5796060000000  0.6063630000000 1.0
C      1  0.3936420000000  0.4203920000000  0.3835660000000 1.0
C      1  0.6063590000000  0.4203910000000  0.6164320000000 1.0
END
