TITL C-986975-4297-693 1.11435443007461e-06 3375 -335.096942306083 0 0 60 (C1) n - 1
REM
REM in /home/bkarasulu/work/CARBON/AIRSS/Generating-Clusters/REBO/Higher-Symm/Only-C60
REM
REM
REM
REM
REM
REM ./C.cell (a2850807a9bf4ad07a5b6933b78d9264)
REM AIRSS Version 0.9.1 bugfix July 2018 build 013d7b7c2542+ Fri, 06 Jul 2018 19:26:36 +0100
REM compiler GCC version 9.2.1 20190827 (Red Hat 9.2.1-1)
REM options -cpp -mtune=generic -march=x86-64 -g -O0 -fpre-include=/usr/include/finclude/math-vector-fortran.h
REM seed -1221830385 1639596040 631387487 1925181002 1708941180 -235055780 -479247436 -1473088045 -997708842 -1572546677 -1122604363 1577170932 -931772261 584071012 1521893871 2002696038 -1621072665 -1446622246 -1698957076 1800376098 376441785 -81954306 -847147628 -1924240407 1178750793 -1505137201 11190925 1896734324 1491025332 -292278527 1202575010 1083106083 1850728697
REM
CELL 1.54180   15.00000   15.00000   15.00000   90.00000   90.00000   90.00000
LATT -1
SFAC C  
C      1  0.6354930000000  0.3562840000000  0.3487860000000 1.0
C      1  0.6581210000000  0.6563410000000  0.6502440000000 1.0
C      1  0.6445670000000  0.3588790000000  0.6449450000000 1.0
C      1  0.6623960000000  0.6506050000000  0.3591990000000 1.0
C      1  0.4731270000000  0.4321230000000  0.4285980000000 1.0
C      1  0.4724670000000  0.5444730000000  0.5620580000000 1.0
C      1  0.4787720000000  0.4358040000000  0.5357760000000 1.0
C      1  0.4841760000000  0.5408780000000  0.4547640000000 1.0
C      1  0.6775450000000  0.5510860000000  0.6114210000000 1.0
C      1  0.6930910000000  0.4376030000000  0.4001860000000 1.0
C      1  0.6837280000000  0.5431640000000  0.3900730000000 1.0
C      1  0.6907560000000  0.4473720000000  0.5952720000000 1.0
C      1  0.6073220000000  0.6719930000000  0.4574340000000 1.0
C      1  0.5862920000000  0.3581350000000  0.5466360000000 1.0
C      1  0.6020400000000  0.6758710000000  0.5527830000000 1.0
C      1  0.5830560000000  0.3551360000000  0.4505030000000 1.0
C      1  0.3810810000000  0.4200730000000  0.3804880000000 1.0
C      1  0.3837650000000  0.5576730000000  0.6170760000000 1.0
C      1  0.3882420000000  0.4462140000000  0.5939340000000 1.0
C      1  0.3950270000000  0.5334730000000  0.3924320000000 1.0
C      1  0.5570920000000  0.5507800000000  0.7433590000000 1.0
C      1  0.5455210000000  0.4513200000000  0.2582990000000 1.0
C      1  0.5644490000000  0.5498570000000  0.2552730000000 1.0
C      1  0.5397900000000  0.4523740000000  0.7341380000000 1.0
C      1  0.6603270000000  0.5684990000000  0.7216860000000 1.0
C      1  0.6491740000000  0.4558760000000  0.2958390000000 1.0
C      1  0.6666160000000  0.5674010000000  0.2818910000000 1.0
C      1  0.6435330000000  0.4582360000000  0.7001830000000 1.0
C      1  0.4548470000000  0.7118800000000  0.3741460000000 1.0
C      1  0.4479820000000  0.2732070000000  0.6287470000000 1.0
C      1  0.4544220000000  0.7308050000000  0.6401120000000 1.0
C      1  0.4536560000000  0.2593450000000  0.3689110000000 1.0
C      1  0.5042760000000  0.6261260000000  0.7212680000000 1.0
C      1  0.4940410000000  0.3774240000000  0.2736950000000 1.0
C      1  0.5086650000000  0.6183070000000  0.2855640000000 1.0
C      1  0.4929070000000  0.3759520000000  0.7116250000000 1.0
C      1  0.5445670000000  0.3137810000000  0.6423250000000 1.0
C      1  0.5554150000000  0.6826340000000  0.3569890000000 1.0
C      1  0.5390590000000  0.3040780000000  0.3600330000000 1.0
C      1  0.5530910000000  0.6939250000000  0.6539040000000 1.0
C      1  0.3537280000000  0.4609060000000  0.7029340000000 1.0
C      1  0.3333800000000  0.5586030000000  0.2947200000000 1.0
C      1  0.3156320000000  0.4663500000000  0.3095620000000 1.0
C      1  0.3537870000000  0.5528740000000  0.7306990000000 1.0
C      1  0.4001500000000  0.3725760000000  0.7034490000000 1.0
C      1  0.4175590000000  0.6158220000000  0.2902660000000 1.0
C      1  0.4076490000000  0.3426640000000  0.2756830000000 1.0
C      1  0.4112410000000  0.6346360000000  0.7212860000000 1.0
C      1  0.3101740000000  0.6777740000000  0.4628060000000 1.0
C      1  0.3035590000000  0.2992020000000  0.5334980000000 1.0
C      1  0.3103600000000  0.6941060000000  0.5433840000000 1.0
C      1  0.3021400000000  0.2881620000000  0.4519830000000 1.0
C      1  0.5798620000000  0.4674330000000  0.5767050000000 1.0
C      1  0.5797500000000  0.5710860000000  0.4258430000000 1.0
C      1  0.5811920000000  0.4611890000000  0.4103990000000 1.0
C      1  0.5684390000000  0.5768870000000  0.5925200000000 1.0
C      1  0.3625600000000  0.3359150000000  0.6058360000000 1.0
C      1  0.3699540000000  0.6443270000000  0.3893140000000 1.0
C      1  0.3613970000000  0.3160730000000  0.3756670000000 1.0
C      1  0.3669940000000  0.6684330000000  0.6228500000000 1.0
END
