TITL C-986975-4297-692 2.3528809561843e-05 3375 -338.354826179929 0 0 60 (Ci) n - 1
REM
REM in /home/bkarasulu/work/CARBON/AIRSS/Generating-Clusters/REBO/Higher-Symm/Only-C60
REM
REM
REM
REM
REM
REM ./C.cell (a2850807a9bf4ad07a5b6933b78d9264)
REM AIRSS Version 0.9.1 bugfix July 2018 build 013d7b7c2542+ Fri, 06 Jul 2018 19:26:36 +0100
REM compiler GCC version 9.2.1 20190827 (Red Hat 9.2.1-1)
REM options -cpp -mtune=generic -march=x86-64 -g -O0 -fpre-include=/usr/include/finclude/math-vector-fortran.h
REM seed 275671972 1714546578 -1894822182 -977803751 -486541776 1304570697 1729569041 -1682314286 1569791737 1640007622 1810988889 -485499615 -374287888 -1863277944 254056385 2083412663 1759443553 1997086318 -1238512213 -1120317695 112486609 626006147 378409188 -656649613 -436016254 -570041291 -1664753869 -1893371042 -1416964573 -1990572184 129257860 -1899172680 1367379473
REM
CELL 1.54180   15.00000   15.00000   15.00000   90.00000   90.00000   90.00000
LATT -1
SFAC C  
C      1  0.4425280000000  0.6126350000000  0.3255650000000 1.0
C      1  0.5574720000000  0.3873650000000  0.6744350000000 1.0
C      1  0.4044260000000  0.4414720000000  0.6830690000000 1.0
C      1  0.5955740000000  0.5585280000000  0.3169310000000 1.0
C      1  0.5694710000000  0.7247740000000  0.3716370000000 1.0
C      1  0.4305290000000  0.2752260000000  0.6283630000000 1.0
C      1  0.7093650000000  0.4290950000000  0.4301030000000 1.0
C      1  0.2906350000000  0.5709050000000  0.5698970000000 1.0
C      1  0.8021650000000  0.4732810000000  0.4743810000000 1.0
C      1  0.1978350000000  0.5267190000000  0.5256190000000 1.0
C      1  0.4438670000000  0.5349280000000  0.5080040000000 1.0
C      1  0.5561330000000  0.4650720000000  0.4919960000000 1.0
C      1  0.4029290000000  0.3978580000000  0.5859830000000 1.0
C      1  0.5970710000000  0.6021420000000  0.4140170000000 1.0
C      1  0.5921810000000  0.3140400000000  0.3834720000000 1.0
C      1  0.4078190000000  0.6859600000000  0.6165280000000 1.0
C      1  0.6704980000000  0.5190320000000  0.6043630000000 1.0
C      1  0.3295020000000  0.4809680000000  0.3956370000000 1.0
C      1  0.4895650000000  0.2143440000000  0.5678740000000 1.0
C      1  0.5104350000000  0.7856560000000  0.4321260000000 1.0
C      1  0.5903930000000  0.5297480000000  0.7479040000000 1.0
C      1  0.4096070000000  0.4702520000000  0.2520960000000 1.0
C      1  0.3692030000000  0.6152420000000  0.5103380000000 1.0
C      1  0.6307970000000  0.3847580000000  0.4896620000000 1.0
C      1  0.4107790000000  0.6701600000000  0.3964010000000 1.0
C      1  0.5892210000000  0.3298400000000  0.6035990000000 1.0
C      1  0.5180540000000  0.6298170000000  0.5596020000000 1.0
C      1  0.4819460000000  0.3701830000000  0.4403980000000 1.0
C      1  0.5775710000000  0.4670280000000  0.3306130000000 1.0
C      1  0.4224290000000  0.5329720000000  0.6693870000000 1.0
C      1  0.3508720000000  0.3791370000000  0.4213360000000 1.0
C      1  0.6491280000000  0.6208630000000  0.5786640000000 1.0
C      1  0.4168610000000  0.5101000000000  0.3390170000000 1.0
C      1  0.5831390000000  0.4899000000000  0.6609830000000 1.0
C      1  0.4966330000000  0.4656710000000  0.3932420000000 1.0
C      1  0.5033670000000  0.5343290000000  0.6067580000000 1.0
C      1  0.4898200000000  0.6216480000000  0.4497430000000 1.0
C      1  0.5101800000000  0.3783520000000  0.5502570000000 1.0
C      1  0.5000160000000  0.7937660000000  0.5143020000000 1.0
C      1  0.4999840000000  0.2062340000000  0.4856980000000 1.0
C      1  0.7171520000000  0.4739860000000  0.5372530000000 1.0
C      1  0.2828480000000  0.5260140000000  0.4627470000000 1.0
C      1  0.6303190000000  0.7471610000000  0.4749780000000 1.0
C      1  0.3696810000000  0.2528390000000  0.5250220000000 1.0
C      1  0.5322880000000  0.6405270000000  0.3054020000000 1.0
C      1  0.4677120000000  0.3594730000000  0.6945980000000 1.0
C      1  0.6195850000000  0.7142030000000  0.5652110000000 1.0
C      1  0.3804150000000  0.2857970000000  0.4347890000000 1.0
C      1  0.3514840000000  0.7278470000000  0.5456420000000 1.0
C      1  0.6485160000000  0.2721530000000  0.4543580000000 1.0
C      1  0.6338090000000  0.3970190000000  0.3573320000000 1.0
C      1  0.3661910000000  0.6029810000000  0.6426680000000 1.0
C      1  0.4108810000000  0.4436720000000  0.4928260000000 1.0
C      1  0.5891190000000  0.5563280000000  0.5071740000000 1.0
C      1  0.4887080000000  0.2732250000000  0.4016030000000 1.0
C      1  0.5112920000000  0.7267750000000  0.5983970000000 1.0
C      1  0.3332440000000  0.3181020000000  0.5939980000000 1.0
C      1  0.6667560000000  0.6818980000000  0.4060020000000 1.0
C      1  0.3363450000000  0.7037500000000  0.4467060000000 1.0
C      1  0.6636550000000  0.2962500000000  0.5532940000000 1.0
END
