TITL C-986973-6940-450 -7.71164610798267e-06 3375 -340.862193000442 0 0 60 (C1) n - 1
REM
REM in /home/bkarasulu/work/CARBON/AIRSS/Generating-Clusters/REBO/Higher-Symm/Only-C60
REM
REM
REM
REM
REM
REM ./C.cell (a2850807a9bf4ad07a5b6933b78d9264)
REM AIRSS Version 0.9.1 bugfix July 2018 build 013d7b7c2542+ Fri, 06 Jul 2018 19:26:36 +0100
REM compiler GCC version 9.2.1 20190827 (Red Hat 9.2.1-1)
REM options -cpp -mtune=generic -march=x86-64 -g -O0 -fpre-include=/usr/include/finclude/math-vector-fortran.h
REM seed -1240783249 -2117137833 -30761493 -1636819447 1462259095 736001631 1747796028 743769842 216175874 1949279630 -1422109164 -1171206317 -2032500509 -571337687 1832053258 1100156316 643036403 1382500377 678223356 -1626224720 -736411845 -975718372 2111889309 1585509510 1026832884 871225480 -277215914 926059161 -760601258 27080975 701085609 1292272577 1426702164
REM
CELL 1.54180   15.00000   15.00000   15.00000   90.00000   90.00000   90.00000
LATT -1
SFAC C  
C      1  0.4337480000000  0.5806150000000  0.2916370000000 1.0
C      1  0.5550720000000  0.3510080000000  0.3965300000000 1.0
C      1  0.4939680000000  0.7237600000000  0.6496220000000 1.0
C      1  0.2903470000000  0.5516000000000  0.5151240000000 1.0
C      1  0.3354050000000  0.2890800000000  0.3854050000000 1.0
C      1  0.2788130000000  0.4940440000000  0.4169870000000 1.0
C      1  0.7909960000000  0.5803720000000  0.6060870000000 1.0
C      1  0.3103030000000  0.3959640000000  0.4166530000000 1.0
C      1  0.6117390000000  0.6265970000000  0.3774640000000 1.0
C      1  0.4115340000000  0.2566780000000  0.4307490000000 1.0
C      1  0.6376730000000  0.4666320000000  0.4827480000000 1.0
C      1  0.4939200000000  0.3270060000000  0.6511180000000 1.0
C      1  0.4590990000000  0.4735320000000  0.4507860000000 1.0
C      1  0.5021660000000  0.7347680000000  0.4604070000000 1.0
C      1  0.4271160000000  0.4068650000000  0.2856710000000 1.0
C      1  0.5771740000000  0.6790730000000  0.6550970000000 1.0
C      1  0.7007850000000  0.5923140000000  0.5946170000000 1.0
C      1  0.6538160000000  0.6765590000000  0.5979600000000 1.0
C      1  0.6469520000000  0.5559660000000  0.2941590000000 1.0
C      1  0.4230130000000  0.4206820000000  0.7138060000000 1.0
C      1  0.3506910000000  0.3627720000000  0.3146310000000 1.0
C      1  0.5572910000000  0.5880860000000  0.6984560000000 1.0
C      1  0.6377560000000  0.5191380000000  0.5696990000000 1.0
C      1  0.3607860000000  0.4842990000000  0.6736450000000 1.0
C      1  0.4185190000000  0.3103630000000  0.5169110000000 1.0
C      1  0.4227260000000  0.6807370000000  0.6100180000000 1.0
C      1  0.4996110000000  0.2532970000000  0.3952250000000 1.0
C      1  0.5864880000000  0.7005940000000  0.4455970000000 1.0
C      1  0.6560940000000  0.5246490000000  0.4035590000000 1.0
C      1  0.6270110000000  0.2966470000000  0.5604840000000 1.0
C      1  0.3566890000000  0.4905670000000  0.5684030000000 1.0
C      1  0.6050970000000  0.2633740000000  0.4351220000000 1.0
C      1  0.5355780000000  0.6259790000000  0.2988220000000 1.0
C      1  0.5205170000000  0.4371950000000  0.2613750000000 1.0
C      1  0.4996380000000  0.4671540000000  0.7542310000000 1.0
C      1  0.4033090000000  0.7171200000000  0.5133860000000 1.0
C      1  0.5488650000000  0.5278190000000  0.2443460000000 1.0
C      1  0.5878800000000  0.3933590000000  0.3128740000000 1.0
C      1  0.5287430000000  0.2846650000000  0.5296710000000 1.0
C      1  0.4356690000000  0.4882050000000  0.3504750000000 1.0
C      1  0.5394910000000  0.4142460000000  0.4751210000000 1.0
C      1  0.6580190000000  0.3547460000000  0.4819510000000 1.0
C      1  0.4527900000000  0.6674370000000  0.3564920000000 1.0
C      1  0.4285010000000  0.2850470000000  0.6174210000000 1.0
C      1  0.5398680000000  0.3927740000000  0.5867900000000 1.0
C      1  0.5921620000000  0.4626050000000  0.7256730000000 1.0
C      1  0.4695300000000  0.5655880000000  0.7549100000000 1.0
C      1  0.3245240000000  0.5980530000000  0.4211170000000 1.0
C      1  0.6443310000000  0.5449100000000  0.7547740000000 1.0
C      1  0.3785910000000  0.5672660000000  0.7223020000000 1.0
C      1  0.3381290000000  0.5402430000000  0.3319620000000 1.0
C      1  0.3835070000000  0.4089050000000  0.4985470000000 1.0
C      1  0.3135660000000  0.6527070000000  0.5412020000000 1.0
C      1  0.6022020000000  0.4472350000000  0.6341190000000 1.0
C      1  0.4701130000000  0.5624440000000  0.4982510000000 1.0
C      1  0.6649970000000  0.4495040000000  0.3212880000000 1.0
C      1  0.6484490000000  0.7197520000000  0.5139880000000 1.0
C      1  0.4138280000000  0.6372700000000  0.4446000000000 1.0
C      1  0.4274140000000  0.5746780000000  0.5988180000000 1.0
C      1  0.5373880000000  0.5554550000000  0.5911170000000 1.0
END
