TITL C-986979-5873-787 0.011702181886817 3375 -352.746854010891 0 0 60 (C1) n - 1
REM
REM in /home/bkarasulu/work/CARBON/AIRSS/Generating-Clusters/REBO/Higher-Symm/Only-C60
REM
REM
REM
REM
REM
REM ./C.cell (a2850807a9bf4ad07a5b6933b78d9264)
REM AIRSS Version 0.9.1 bugfix July 2018 build 013d7b7c2542+ Fri, 06 Jul 2018 19:26:36 +0100
REM compiler GCC version 9.2.1 20190827 (Red Hat 9.2.1-1)
REM options -cpp -mtune=generic -march=x86-64 -g -O0 -fpre-include=/usr/include/finclude/math-vector-fortran.h
REM seed 1027696052 1256338766 1528424795 1351810681 -192943202 -1979621377 -1718453730 -1157157562 -1704453549 2099258764 1924549622 1171601723 -1480712240 -170907240 -1858201259 -1697575525 1784562301 -1507383071 -1788242109 -88326749 606980103 668217890 1966098430 113738593 -1173020685 275908393 -685201806 -1511443307 -1387731081 1566916686 1018710483 914885101 1657678251
REM
CELL 1.54180   15.00000   15.00000   15.00000   90.00000   90.00000   90.00000
LATT -1
SFAC C  
C      1  0.6362200000000  0.5083990000000  0.6732610000000 1.0
C      1  0.6398190000000  0.3154360000000  0.5081700000000 1.0
C      1  0.6403770000000  0.4920910000000  0.3228420000000 1.0
C      1  0.6405280000000  0.6836190000000  0.4911340000000 1.0
C      1  0.5567480000000  0.4984670000000  0.7513240000000 1.0
C      1  0.5640760000000  0.2343700000000  0.5007400000000 1.0
C      1  0.5579690000000  0.5018050000000  0.2470020000000 1.0
C      1  0.5624630000000  0.7625870000000  0.5011640000000 1.0
C      1  0.4395910000000  0.3916860000000  0.2813530000000 1.0
C      1  0.4429610000000  0.7353410000000  0.3906000000000 1.0
C      1  0.4387920000000  0.6082530000000  0.7197710000000 1.0
C      1  0.4432300000000  0.2633050000000  0.6112960000000 1.0
C      1  0.6182020000000  0.2583540000000  0.4129140000000 1.0
C      1  0.6174000000000  0.5867120000000  0.2666950000000 1.0
C      1  0.6192820000000  0.7393840000000  0.5871860000000 1.0
C      1  0.6170120000000  0.4143420000000  0.7312760000000 1.0
C      1  0.3530440000000  0.5061470000000  0.5680670000000 1.0
C      1  0.3637590000000  0.4154660000000  0.5068590000000 1.0
C      1  0.3601280000000  0.4992930000000  0.4358250000000 1.0
C      1  0.3498890000000  0.5886890000000  0.4939410000000 1.0
C      1  0.3139550000000  0.3548330000000  0.5749410000000 1.0
C      1  0.3140350000000  0.4177330000000  0.3835200000000 1.0
C      1  0.3082410000000  0.6500880000000  0.4226450000000 1.0
C      1  0.3103820000000  0.5876780000000  0.6210470000000 1.0
C      1  0.5209820000000  0.4520370000000  0.5473560000000 1.0
C      1  0.5253840000000  0.4358280000000  0.4399830000000 1.0
C      1  0.5275600000000  0.5453650000000  0.4510700000000 1.0
C      1  0.5159650000000  0.5630900000000  0.5558680000000 1.0
C      1  0.3674370000000  0.3244580000000  0.6426110000000 1.0
C      1  0.3700550000000  0.3561440000000  0.3462890000000 1.0
C      1  0.3668500000000  0.6759090000000  0.3572460000000 1.0
C      1  0.3684210000000  0.6470580000000  0.6580140000000 1.0
C      1  0.6015280000000  0.5870230000000  0.6102330000000 1.0
C      1  0.6003200000000  0.3856360000000  0.5799320000000 1.0
C      1  0.6078100000000  0.4105350000000  0.3821380000000 1.0
C      1  0.6030290000000  0.6141920000000  0.4181840000000 1.0
C      1  0.4382420000000  0.6303540000000  0.5312420000000 1.0
C      1  0.4394490000000  0.4710820000000  0.6139050000000 1.0
C      1  0.4476870000000  0.3697760000000  0.4725890000000 1.0
C      1  0.4446740000000  0.5270330000000  0.3864580000000 1.0
C      1  0.5835800000000  0.6779100000000  0.6502220000000 1.0
C      1  0.5824060000000  0.3497710000000  0.6715210000000 1.0
C      1  0.5847400000000  0.3185560000000  0.3475250000000 1.0
C      1  0.5829530000000  0.6503800000000  0.3275300000000 1.0
C      1  0.4938700000000  0.3203440000000  0.6812800000000 1.0
C      1  0.4933260000000  0.3133140000000  0.3236000000000 1.0
C      1  0.4939000000000  0.6790790000000  0.3203540000000 1.0
C      1  0.4934830000000  0.6860440000000  0.6772220000000 1.0
C      1  0.4642950000000  0.4909120000000  0.2827600000000 1.0
C      1  0.4669990000000  0.7322310000000  0.4901570000000 1.0
C      1  0.4623370000000  0.5087480000000  0.7173690000000 1.0
C      1  0.4692060000000  0.2660290000000  0.5122220000000 1.0
C      1  0.4229280000000  0.4032970000000  0.6992600000000 1.0
C      1  0.4264970000000  0.2812560000000  0.4079910000000 1.0
C      1  0.4238660000000  0.5956010000000  0.3032060000000 1.0
C      1  0.4246800000000  0.7206250000000  0.5951390000000 1.0
C      1  0.6743370000000  0.5826300000000  0.5247790000000 1.0
C      1  0.6647970000000  0.4785800000000  0.5674410000000 1.0
C      1  0.6728020000000  0.4152500000000  0.4734650000000 1.0
C      1  0.6655050000000  0.5198460000000  0.4302670000000 1.0
END
