TITL C-986979-5873-1126 -3.56746690763626e-05 3375 -351.648288170286 0 0 60 (Td) n - 1
REM
REM in /home/bkarasulu/work/CARBON/AIRSS/Generating-Clusters/REBO/Higher-Symm/Only-C60
REM
REM
REM
REM
REM
REM ./C.cell (a2850807a9bf4ad07a5b6933b78d9264)
REM AIRSS Version 0.9.1 bugfix July 2018 build 013d7b7c2542+ Fri, 06 Jul 2018 19:26:36 +0100
REM compiler GCC version 9.2.1 20190827 (Red Hat 9.2.1-1)
REM options -cpp -mtune=generic -march=x86-64 -g -O0 -fpre-include=/usr/include/finclude/math-vector-fortran.h
REM seed -894914224 -164027534 484324031 412954857 -1257818568 2078349926 -2019317128 -1511535467 -600276821 780668561 1275714873 -199056302 235484747 4588829 606446749 411083723 -1975641973 -1980767656 1581861439 1660619744 -1793608275 166784519 -1903073283 -1706654154 -1284034803 -338030445 1401601230 311822230 -453757087 -2002915339 -1124929261 430800410 -602801463
REM
CELL 1.54180   15.00000   15.00000   15.00000   90.00000   90.00000   90.00000
LATT -1
SFAC C  
C      1  0.4614980000000  0.3104650000000  0.3917600000000 1.0
C      1  0.3917600000000  0.4614980000000  0.3104650000000 1.0
C      1  0.3104650000000  0.3917600000000  0.4614980000000 1.0
C      1  0.5385020000000  0.6895350000000  0.3917600000000 1.0
C      1  0.5385020000000  0.3104650000000  0.6082400000000 1.0
C      1  0.4614980000000  0.6895350000000  0.6082400000000 1.0
C      1  0.6082400000000  0.5385020000000  0.3104650000000 1.0
C      1  0.6082400000000  0.4614980000000  0.6895350000000 1.0
C      1  0.3917600000000  0.5385020000000  0.6895350000000 1.0
C      1  0.6895350000000  0.6082400000000  0.4614980000000 1.0
C      1  0.6895350000000  0.3917600000000  0.5385020000000 1.0
C      1  0.3104650000000  0.6082400000000  0.5385020000000 1.0
C      1  0.3104650000000  0.4614980000000  0.3917600000000 1.0
C      1  0.4614980000000  0.3917600000000  0.3104650000000 1.0
C      1  0.3917600000000  0.3104650000000  0.4614980000000 1.0
C      1  0.6895350000000  0.5385020000000  0.3917600000000 1.0
C      1  0.3104650000000  0.5385020000000  0.6082400000000 1.0
C      1  0.6895350000000  0.4614980000000  0.6082400000000 1.0
C      1  0.5385020000000  0.6082400000000  0.3104650000000 1.0
C      1  0.4614980000000  0.6082400000000  0.6895350000000 1.0
C      1  0.5385020000000  0.3917600000000  0.6895350000000 1.0
C      1  0.6082400000000  0.6895350000000  0.4614980000000 1.0
C      1  0.3917600000000  0.6895350000000  0.5385020000000 1.0
C      1  0.6082400000000  0.3104650000000  0.5385020000000 1.0
C      1  0.4301830000000  0.2913600000000  0.6363740000000 1.0
C      1  0.6363740000000  0.4301830000000  0.2913600000000 1.0
C      1  0.2913600000000  0.6363740000000  0.4301830000000 1.0
C      1  0.5698170000000  0.7086400000000  0.6363740000000 1.0
C      1  0.5698170000000  0.2913600000000  0.3636260000000 1.0
C      1  0.4301830000000  0.7086400000000  0.3636260000000 1.0
C      1  0.3636260000000  0.5698170000000  0.2913600000000 1.0
C      1  0.3636260000000  0.4301830000000  0.7086400000000 1.0
C      1  0.6363740000000  0.5698170000000  0.7086400000000 1.0
C      1  0.7086400000000  0.3636260000000  0.4301830000000 1.0
C      1  0.7086400000000  0.6363740000000  0.5698170000000 1.0
C      1  0.2913600000000  0.3636260000000  0.5698170000000 1.0
C      1  0.2913600000000  0.4301830000000  0.6363740000000 1.0
C      1  0.4301830000000  0.6363740000000  0.2913600000000 1.0
C      1  0.6363740000000  0.2913600000000  0.4301830000000 1.0
C      1  0.7086400000000  0.5698170000000  0.6363740000000 1.0
C      1  0.2913600000000  0.5698170000000  0.3636260000000 1.0
C      1  0.7086400000000  0.4301830000000  0.3636260000000 1.0
C      1  0.5698170000000  0.3636260000000  0.2913600000000 1.0
C      1  0.4301830000000  0.3636260000000  0.7086400000000 1.0
C      1  0.5698170000000  0.6363740000000  0.7086400000000 1.0
C      1  0.3636260000000  0.7086400000000  0.4301830000000 1.0
C      1  0.6363740000000  0.7086400000000  0.5698170000000 1.0
C      1  0.3636260000000  0.2913600000000  0.5698170000000 1.0
C      1  0.5937730000000  0.4062270000000  0.4817500000000 1.0
C      1  0.4817500000000  0.4062270000000  0.5937730000000 1.0
C      1  0.4817500000000  0.5937730000000  0.4062270000000 1.0
C      1  0.5182500000000  0.4062270000000  0.4062270000000 1.0
C      1  0.5937730000000  0.4817500000000  0.4062270000000 1.0
C      1  0.5937730000000  0.5182500000000  0.5937730000000 1.0
C      1  0.5937730000000  0.5937730000000  0.5182500000000 1.0
C      1  0.4062270000000  0.4817500000000  0.5937730000000 1.0
C      1  0.4062270000000  0.5182500000000  0.4062270000000 1.0
C      1  0.4062270000000  0.4062270000000  0.5182500000000 1.0
C      1  0.4062270000000  0.5937730000000  0.4817500000000 1.0
C      1  0.5182500000000  0.5937730000000  0.5937730000000 1.0
END
