TITL C-114178-678-40 -150.115827492176 1000000 -1680.90935605153 0 0 240 (Th) n - 1
REM
REM in /home/chem/mssmkc/work/GAP20/Larger-Clusters/Only-C240/New/BUILD-ONLY
REM
REM
REM
REM
REM
REM ./C.cell (daee87de7206da95283bc1c1416dbc6f)
REM
REM compiler GCC version 8.3.0
REM options -cpp -mtune=generic -march=x86-64 -g -O0
REM seed 1253018435 1892733667 -2049446928 -1671791868 1004984112 1157792775 783406116 455868884 377783712 -359910415 1793060430 -1225464735 -1272252933 -1385925408 -1901722862 14377160 -15802568 -442828592 -631966805 -1894499437 1350278725 511580134 297792719 1874896544 1031493987 -136960830 2026325217 -422469795 769212360 -2138938677 -1133285490 -295303847 -1374370602
REM
CELL 1.54180  100.00000  100.00000  100.00000   90.00000   90.00000   90.00000
LATT -1
SFAC C  
C      1  0.5264410000000  0.4592030000000  0.5145140000000 1.0
C      1  0.5144750000000  0.5264020000000  0.4591640000000 1.0
C      1  0.4591570000000  0.5144690000000  0.5263960000000 1.0
C      1  0.5263690000000  0.5408450000000  0.4854910000000 1.0
C      1  0.4735570000000  0.5408080000000  0.5144790000000 1.0
C      1  0.4736340000000  0.4591440000000  0.4855170000000 1.0
C      1  0.5145170000000  0.4736240000000  0.5408380000000 1.0
C      1  0.4855310000000  0.4735660000000  0.4591820000000 1.0
C      1  0.4854760000000  0.5264070000000  0.5408150000000 1.0
C      1  0.4591880000000  0.4854560000000  0.4735970000000 1.0
C      1  0.5408370000000  0.4855510000000  0.5264140000000 1.0
C      1  0.5408150000000  0.5145230000000  0.4735930000000 1.0
C      1  0.4736290000000  0.4591530000000  0.5145110000000 1.0
C      1  0.4854810000000  0.5263780000000  0.4591600000000 1.0
C      1  0.5408130000000  0.5145460000000  0.5264050000000 1.0
C      1  0.4735570000000  0.5407990000000  0.4854840000000 1.0
C      1  0.5263690000000  0.5408590000000  0.5144850000000 1.0
C      1  0.5264450000000  0.4591900000000  0.4855200000000 1.0
C      1  0.4855230000000  0.4735960000000  0.5408380000000 1.0
C      1  0.5145260000000  0.4735900000000  0.4591830000000 1.0
C      1  0.5144710000000  0.5264360000000  0.5408200000000 1.0
C      1  0.5408440000000  0.4855290000000  0.4736020000000 1.0
C      1  0.4591830000000  0.4854750000000  0.5264090000000 1.0
C      1  0.4591610000000  0.5144510000000  0.4735840000000 1.0
C      1  0.5686700000000  0.5074330000000  0.5156730000000 1.0
C      1  0.5156070000000  0.5686950000000  0.5073390000000 1.0
C      1  0.5073450000000  0.5157030000000  0.5686730000000 1.0
C      1  0.5686870000000  0.4926920000000  0.4843390000000 1.0
C      1  0.4313270000000  0.4925790000000  0.5156670000000 1.0
C      1  0.4313160000000  0.5072960000000  0.4843220000000 1.0
C      1  0.5157330000000  0.4313330000000  0.4926630000000 1.0
C      1  0.4843930000000  0.4313110000000  0.5073900000000 1.0
C      1  0.4842680000000  0.5686610000000  0.4926080000000 1.0
C      1  0.5073840000000  0.4843100000000  0.4313280000000 1.0
C      1  0.4926440000000  0.4843500000000  0.5686840000000 1.0
C      1  0.4926270000000  0.5156360000000  0.4313150000000 1.0
C      1  0.4313140000000  0.5073070000000  0.5156610000000 1.0
C      1  0.4842680000000  0.5686660000000  0.5073360000000 1.0
C      1  0.4926160000000  0.5156890000000  0.5686710000000 1.0
C      1  0.4313300000000  0.4925670000000  0.4843280000000 1.0
C      1  0.5686830000000  0.4927050000000  0.5156770000000 1.0
C      1  0.5686720000000  0.5074200000000  0.4843340000000 1.0
C      1  0.4843940000000  0.4313060000000  0.4926610000000 1.0
C      1  0.5157310000000  0.4313400000000  0.5073920000000 1.0
C      1  0.5156070000000  0.5686890000000  0.4926110000000 1.0
C      1  0.4926560000000  0.4842980000000  0.4313280000000 1.0
C      1  0.5073730000000  0.4843640000000  0.5686840000000 1.0
C      1  0.5073550000000  0.5156490000000  0.4313170000000 1.0
C      1  0.4681920000000  0.5292760000000  0.4930170000000 1.0
C      1  0.4930570000000  0.4682240000000  0.5293190000000 1.0
C      1  0.5293170000000  0.4930450000000  0.4682230000000 1.0
C      1  0.4682450000000  0.4706660000000  0.5069780000000 1.0
C      1  0.5318090000000  0.4707190000000  0.4930440000000 1.0
C      1  0.5317540000000  0.5293400000000  0.5069610000000 1.0
C      1  0.4930040000000  0.5317640000000  0.4706800000000 1.0
C      1  0.5069380000000  0.5318000000000  0.5292960000000 1.0
C      1  0.5070010000000  0.4682130000000  0.4707050000000 1.0
C      1  0.5292990000000  0.5070090000000  0.5317820000000 1.0
C      1  0.4706880000000  0.5069300000000  0.4682130000000 1.0
C      1  0.4706960000000  0.4930160000000  0.5317820000000 1.0
C      1  0.5317540000000  0.5293330000000  0.4930250000000 1.0
C      1  0.5069940000000  0.4682370000000  0.5293190000000 1.0
C      1  0.4707020000000  0.4929940000000  0.4682200000000 1.0
C      1  0.5318070000000  0.4707250000000  0.5069810000000 1.0
C      1  0.4682470000000  0.4706620000000  0.4930410000000 1.0
C      1  0.4681920000000  0.5292800000000  0.5069540000000 1.0
C      1  0.5069400000000  0.5317760000000  0.4706820000000 1.0
C      1  0.4930020000000  0.5317850000000  0.5292940000000 1.0
C      1  0.4930650000000  0.4682020000000  0.4707050000000 1.0
C      1  0.4706840000000  0.5069520000000  0.5317760000000 1.0
C      1  0.5293020000000  0.5069810000000  0.4682190000000 1.0
C      1  0.5293100000000  0.4930720000000  0.5317860000000 1.0
C      1  0.5421260000000  0.5232650000000  0.4843870000000 1.0
C      1  0.4843520000000  0.5421410000000  0.5232160000000 1.0
C      1  0.5232440000000  0.4844300000000  0.5421540000000 1.0
C      1  0.5421660000000  0.4768110000000  0.5156200000000 1.0
C      1  0.4578760000000  0.4767220000000  0.4843980000000 1.0
C      1  0.4578310000000  0.5232000000000  0.5155960000000 1.0
C      1  0.4844330000000  0.4578310000000  0.4767820000000 1.0
C      1  0.5156440000000  0.4578770000000  0.5232510000000 1.0
C      1  0.5155710000000  0.5421510000000  0.4767520000000 1.0
C      1  0.5232220000000  0.5156120000000  0.4578500000000 1.0
C      1  0.4767490000000  0.5156030000000  0.5421380000000 1.0
C      1  0.4767840000000  0.4843550000000  0.4578580000000 1.0
C      1  0.4578320000000  0.5231910000000  0.4843780000000 1.0
C      1  0.5155700000000  0.5421710000000  0.5232210000000 1.0
C      1  0.4767760000000  0.4843850000000  0.5421520000000 1.0
C      1  0.4578720000000  0.4767320000000  0.5156150000000 1.0
C      1  0.5421700000000  0.4767970000000  0.4844030000000 1.0
C      1  0.5421250000000  0.5232800000000  0.5156050000000 1.0
C      1  0.5156500000000  0.4578580000000  0.4767820000000 1.0
C      1  0.4844270000000  0.4578470000000  0.5232500000000 1.0
C      1  0.4843530000000  0.5421240000000  0.4767480000000 1.0
C      1  0.4767540000000  0.5155720000000  0.4578440000000 1.0
C      1  0.5232180000000  0.5156480000000  0.5421440000000 1.0
C      1  0.5232530000000  0.4843950000000  0.4578600000000 1.0
C      1  0.4926900000000  0.4702430000000  0.4351260000000 1.0
C      1  0.4351240000000  0.4925860000000  0.4702720000000 1.0
C      1  0.4703350000000  0.4350860000000  0.4926800000000 1.0
C      1  0.4926250000000  0.5297430000000  0.5648720000000 1.0
C      1  0.5073210000000  0.5297070000000  0.4351050000000 1.0
C      1  0.5073650000000  0.4703070000000  0.5648960000000 1.0
C      1  0.4351060000000  0.5072950000000  0.5297170000000 1.0
C      1  0.5648800000000  0.5073910000000  0.4702780000000 1.0
C      1  0.5648890000000  0.4927280000000  0.5297330000000 1.0
C      1  0.4702150000000  0.5648600000000  0.5073150000000 1.0
C      1  0.5296670000000  0.5649090000000  0.4926350000000 1.0
C      1  0.5297840000000  0.4351450000000  0.5073700000000 1.0
C      1  0.5073750000000  0.4702560000000  0.4351260000000 1.0
C      1  0.5648950000000  0.4927050000000  0.4702820000000 1.0
C      1  0.5297860000000  0.4351390000000  0.4926850000000 1.0
C      1  0.5073100000000  0.5297580000000  0.5648750000000 1.0
C      1  0.4926350000000  0.5296940000000  0.4351020000000 1.0
C      1  0.4926790000000  0.4702920000000  0.5648960000000 1.0
C      1  0.5648770000000  0.5074140000000  0.5297290000000 1.0
C      1  0.4351100000000  0.5072720000000  0.4702660000000 1.0
C      1  0.4351190000000  0.4926090000000  0.5297230000000 1.0
C      1  0.5296660000000  0.5649160000000  0.5073200000000 1.0
C      1  0.4702150000000  0.5648560000000  0.4926290000000 1.0
C      1  0.4703330000000  0.4350900000000  0.5073650000000 1.0
C      1  0.5127420000000  0.4648840000000  0.4472590000000 1.0
C      1  0.4472360000000  0.5126440000000  0.4648840000000 1.0
C      1  0.4649400000000  0.4472180000000  0.5127230000000 1.0
C      1  0.5126690000000  0.5351390000000  0.5527430000000 1.0
C      1  0.4872670000000  0.5350750000000  0.4472300000000 1.0
C      1  0.4873220000000  0.4649020000000  0.5527680000000 1.0
C      1  0.4472540000000  0.4872600000000  0.5351070000000 1.0
C      1  0.5527700000000  0.4873290000000  0.4649020000000 1.0
C      1  0.5527410000000  0.5127670000000  0.5351070000000 1.0
C      1  0.4648460000000  0.5527190000000  0.4872710000000 1.0
C      1  0.5350580000000  0.5527920000000  0.5126880000000 1.0
C      1  0.5351560000000  0.4472720000000  0.4873180000000 1.0
C      1  0.4873320000000  0.4648630000000  0.4472590000000 1.0
C      1  0.5527440000000  0.5127390000000  0.4648950000000 1.0
C      1  0.5351530000000  0.4472840000000  0.5127280000000 1.0
C      1  0.4872590000000  0.5351140000000  0.5527390000000 1.0
C      1  0.5126770000000  0.5350960000000  0.4472340000000 1.0
C      1  0.5127320000000  0.4649270000000  0.5527680000000 1.0
C      1  0.5527620000000  0.4873580000000  0.5351140000000 1.0
C      1  0.4472610000000  0.4872340000000  0.4648950000000 1.0
C      1  0.4472320000000  0.5126700000000  0.5350960000000 1.0
C      1  0.5350580000000  0.5527810000000  0.4872780000000 1.0
C      1  0.4648460000000  0.5527250000000  0.5126810000000 1.0
C      1  0.4649440000000  0.4472100000000  0.4873130000000 1.0
C      1  0.4723030000000  0.4870640000000  0.4439860000000 1.0
C      1  0.4440100000000  0.4722310000000  0.4871170000000 1.0
C      1  0.4871650000000  0.4439610000000  0.4723070000000 1.0
C      1  0.4722700000000  0.5128850000000  0.5560090000000 1.0
C      1  0.5277060000000  0.5128920000000  0.4439810000000 1.0
C      1  0.5277200000000  0.4871580000000  0.5560240000000 1.0
C      1  0.4439570000000  0.5276670000000  0.5128730000000 1.0
C      1  0.5559920000000  0.5277590000000  0.4871060000000 1.0
C      1  0.5560410000000  0.4723430000000  0.5129040000000 1.0
C      1  0.4870580000000  0.5560150000000  0.5276900000000 1.0
C      1  0.5128400000000  0.5560180000000  0.4722660000000 1.0
C      1  0.5129380000000  0.4440060000000  0.5277360000000 1.0
C      1  0.5277310000000  0.4871140000000  0.4439890000000 1.0
C      1  0.5560450000000  0.4723320000000  0.4871250000000 1.0
C      1  0.5129430000000  0.4439830000000  0.4723080000000 1.0
C      1  0.5276980000000  0.5129370000000  0.5560160000000 1.0
C      1  0.4722790000000  0.5128430000000  0.4439750000000 1.0
C      1  0.4722930000000  0.4871070000000  0.5560210000000 1.0
C      1  0.5559920000000  0.5277710000000  0.5128840000000 1.0
C      1  0.4439570000000  0.5276580000000  0.4870950000000 1.0
C      1  0.4440060000000  0.4722390000000  0.5128960000000 1.0
C      1  0.5128370000000  0.5560410000000  0.5276940000000 1.0
C      1  0.4870610000000  0.5559950000000  0.4722630000000 1.0
C      1  0.4871590000000  0.4439810000000  0.5277350000000 1.0
C      1  0.4929120000000  0.4350010000000  0.5176330000000 1.0
C      1  0.5176200000000  0.4928450000000  0.4350040000000 1.0
C      1  0.4349840000000  0.5175460000000  0.4928420000000 1.0
C      1  0.4927970000000  0.5649870000000  0.4823660000000 1.0
C      1  0.5070850000000  0.5650140000000  0.5175840000000 1.0
C      1  0.5072070000000  0.4350000000000  0.4824170000000 1.0
C      1  0.5175970000000  0.5071870000000  0.5649990000000 1.0
C      1  0.4823900000000  0.5071040000000  0.4349960000000 1.0
C      1  0.4823930000000  0.4928640000000  0.5650010000000 1.0
C      1  0.4350150000000  0.4823350000000  0.5071470000000 1.0
C      1  0.5650170000000  0.4824480000000  0.4928660000000 1.0
C      1  0.5649830000000  0.5176710000000  0.5071440000000 1.0
C      1  0.5072030000000  0.4350140000000  0.5176330000000 1.0
C      1  0.4824040000000  0.4928140000000  0.4350020000000 1.0
C      1  0.5649840000000  0.5176640000000  0.4928540000000 1.0
C      1  0.5070870000000  0.5649990000000  0.4823680000000 1.0
C      1  0.4927950000000  0.5649990000000  0.5175820000000 1.0
C      1  0.4929160000000  0.4349880000000  0.4824170000000 1.0
C      1  0.4823800000000  0.5071540000000  0.5649950000000 1.0
C      1  0.5176070000000  0.5071350000000  0.4349990000000 1.0
C      1  0.5176090000000  0.4928970000000  0.5650040000000 1.0
C      1  0.5650150000000  0.4824540000000  0.5071560000000 1.0
C      1  0.4350170000000  0.4823300000000  0.4928570000000 1.0
C      1  0.4349840000000  0.5175510000000  0.5071320000000 1.0
C      1  0.5512620000000  0.5075830000000  0.5482640000000 1.0
C      1  0.5482150000000  0.5513200000000  0.5075010000000 1.0
C      1  0.5074690000000  0.5482890000000  0.5512550000000 1.0
C      1  0.5512840000000  0.4925110000000  0.4517450000000 1.0
C      1  0.4487300000000  0.4924550000000  0.5482610000000 1.0
C      1  0.4487240000000  0.5074520000000  0.4517310000000 1.0
C      1  0.5483100000000  0.4487680000000  0.4925070000000 1.0
C      1  0.4517840000000  0.4486860000000  0.5075330000000 1.0
C      1  0.4516910000000  0.5512260000000  0.4924590000000 1.0
C      1  0.5075650000000  0.4517250000000  0.4487460000000 1.0
C      1  0.4925230000000  0.4517510000000  0.5512910000000 1.0
C      1  0.4924430000000  0.5482350000000  0.4487080000000 1.0
C      1  0.4487170000000  0.5074890000000  0.5482540000000 1.0
C      1  0.4516920000000  0.5512300000000  0.5074930000000 1.0
C      1  0.4924350000000  0.5482740000000  0.5512520000000 1.0
C      1  0.4487390000000  0.4924170000000  0.4517370000000 1.0
C      1  0.5512750000000  0.4925480000000  0.5482680000000 1.0
C      1  0.5512690000000  0.5075450000000  0.4517410000000 1.0
C      1  0.4517860000000  0.4486810000000  0.4924980000000 1.0
C      1  0.5483070000000  0.4487750000000  0.5075410000000 1.0
C      1  0.5482150000000  0.5513130000000  0.4924670000000 1.0
C      1  0.4925310000000  0.4517120000000  0.4487460000000 1.0
C      1  0.5075570000000  0.4517660000000  0.5512910000000 1.0
C      1  0.5074770000000  0.5482480000000  0.4487100000000 1.0
C      1  0.5577180000000  0.4594620000000  0.4926540000000 1.0
C      1  0.4925840000000  0.5576580000000  0.4593890000000 1.0
C      1  0.4594140000000  0.4926190000000  0.5576800000000 1.0
C      1  0.5576430000000  0.5406440000000  0.5073560000000 1.0
C      1  0.4422830000000  0.5405330000000  0.4926130000000 1.0
C      1  0.4423560000000  0.4593620000000  0.5073770000000 1.0
C      1  0.4926830000000  0.4423280000000  0.5406100000000 1.0
C      1  0.5074230000000  0.4423100000000  0.4594350000000 1.0
C      1  0.5073110000000  0.5577030000000  0.5405670000000 1.0
C      1  0.4594100000000  0.5073070000000  0.4423130000000 1.0
C      1  0.5405770000000  0.5074260000000  0.5576810000000 1.0
C      1  0.5406000000000  0.4926480000000  0.4423250000000 1.0
C      1  0.4423580000000  0.4593570000000  0.4926440000000 1.0
C      1  0.5073170000000  0.5576710000000  0.4593910000000 1.0
C      1  0.5405890000000  0.4926930000000  0.5576860000000 1.0
C      1  0.4422830000000  0.5405370000000  0.5073460000000 1.0
C      1  0.5576430000000  0.5406370000000  0.4926220000000 1.0
C      1  0.5577160000000  0.4594680000000  0.5073870000000 1.0
C      1  0.5074160000000  0.4423430000000  0.5406100000000 1.0
C      1  0.4926890000000  0.4422980000000  0.4594340000000 1.0
C      1  0.4925770000000  0.5576890000000  0.5405640000000 1.0
C      1  0.5405850000000  0.5073810000000  0.4423210000000 1.0
C      1  0.4594010000000  0.5073520000000  0.5576730000000 1.0
C      1  0.4594240000000  0.4925740000000  0.4423200000000 1.0
END
