TITL C-114179-1211-8 -0.00103923616970292 1000000 -1661.80331173003 0 0 240 (Td) n - 1
REM
REM in /home/chem/mssmkc/work/GAP20/Larger-Clusters/Only-C240/New/BUILD-ONLY
REM
REM
REM
REM
REM
REM ./C.cell (daee87de7206da95283bc1c1416dbc6f)
REM
REM compiler GCC version 8.3.0
REM options -cpp -mtune=generic -march=x86-64 -g -O0
REM seed 951745912 599248665 579191983 1499352314 -681864674 -1951521551 -1886517774 -938803493 -1484131021 -289728122 -541487782 -643221003 376733146 -1902737806 -86171558 1854295944 -1424260126 -1067880182 179758379 878525131 -1240358552 -1519283464 1593058245 497519488 -1090405409 -1275228290 1736472494 -943302083 634225030 -1649341272 1351230657 -238652715 -1974134653
REM
CELL 1.54180  100.00000  100.00000  100.00000   90.00000   90.00000   90.00000
LATT -1
SFAC C  
C      1  0.5586460000000  0.5329940000000  0.4927950000000 1.0
C      1  0.5329880000000  0.4927920000000  0.5586490000000 1.0
C      1  0.4927870000000  0.5586470000000  0.5329910000000 1.0
C      1  0.4413540000000  0.4670070000000  0.4927880000000 1.0
C      1  0.5586490000000  0.4670130000000  0.5072100000000 1.0
C      1  0.4413500000000  0.5329870000000  0.5072070000000 1.0
C      1  0.4670070000000  0.5072060000000  0.5586460000000 1.0
C      1  0.5329920000000  0.5072120000000  0.4413540000000 1.0
C      1  0.4670130000000  0.4927910000000  0.4413510000000 1.0
C      1  0.5072110000000  0.4413520000000  0.5329890000000 1.0
C      1  0.4927960000000  0.4413530000000  0.4670080000000 1.0
C      1  0.5072070000000  0.5586490000000  0.4670120000000 1.0
C      1  0.5329870000000  0.5586500000000  0.4927940000000 1.0
C      1  0.4927870000000  0.5329880000000  0.5586480000000 1.0
C      1  0.5586470000000  0.4927940000000  0.5329920000000 1.0
C      1  0.4670130000000  0.4413510000000  0.4927890000000 1.0
C      1  0.4670060000000  0.5586460000000  0.5072090000000 1.0
C      1  0.5329930000000  0.4413540000000  0.5072090000000 1.0
C      1  0.5072080000000  0.4670090000000  0.5586470000000 1.0
C      1  0.5072090000000  0.5329920000000  0.4413530000000 1.0
C      1  0.4927960000000  0.4670110000000  0.4413510000000 1.0
C      1  0.4413510000000  0.5072050000000  0.5329880000000 1.0
C      1  0.4413540000000  0.4927890000000  0.4670070000000 1.0
C      1  0.5586490000000  0.5072130000000  0.4670120000000 1.0
C      1  0.5422520000000  0.4468400000000  0.5163260000000 1.0
C      1  0.4468350000000  0.5163210000000  0.5422480000000 1.0
C      1  0.5163250000000  0.5422520000000  0.4468390000000 1.0
C      1  0.4577470000000  0.5531600000000  0.5163250000000 1.0
C      1  0.5422470000000  0.5531650000000  0.4836780000000 1.0
C      1  0.4577540000000  0.4468360000000  0.4836720000000 1.0
C      1  0.5531620000000  0.4836770000000  0.5422510000000 1.0
C      1  0.4468400000000  0.4836730000000  0.4577480000000 1.0
C      1  0.5531630000000  0.5163290000000  0.4577530000000 1.0
C      1  0.4836800000000  0.4577510000000  0.4468360000000 1.0
C      1  0.5163250000000  0.4577500000000  0.5531620000000 1.0
C      1  0.4836700000000  0.5422470000000  0.5531630000000 1.0
C      1  0.4468350000000  0.5422460000000  0.5163240000000 1.0
C      1  0.5163260000000  0.4468370000000  0.5422490000000 1.0
C      1  0.5422510000000  0.5163290000000  0.4468400000000 1.0
C      1  0.5531640000000  0.4577530000000  0.5163260000000 1.0
C      1  0.5531610000000  0.5422530000000  0.4836780000000 1.0
C      1  0.4468410000000  0.4577480000000  0.4836720000000 1.0
C      1  0.4836700000000  0.5531610000000  0.5422500000000 1.0
C      1  0.4836800000000  0.4468380000000  0.4577490000000 1.0
C      1  0.5163240000000  0.5531640000000  0.4577520000000 1.0
C      1  0.4577540000000  0.4836740000000  0.4468350000000 1.0
C      1  0.4577470000000  0.5163220000000  0.5531610000000 1.0
C      1  0.5422480000000  0.4836760000000  0.5531640000000 1.0
C      1  0.5325970000000  0.4773870000000  0.4979660000000 1.0
C      1  0.4773840000000  0.4979630000000  0.5325950000000 1.0
C      1  0.4979640000000  0.5325960000000  0.4773860000000 1.0
C      1  0.4674030000000  0.5226130000000  0.4979640000000 1.0
C      1  0.5325950000000  0.5226160000000  0.5020370000000 1.0
C      1  0.4674050000000  0.4773840000000  0.5020330000000 1.0
C      1  0.5226130000000  0.5020360000000  0.5325970000000 1.0
C      1  0.4773870000000  0.5020350000000  0.4674030000000 1.0
C      1  0.5226160000000  0.4979670000000  0.4674050000000 1.0
C      1  0.5020380000000  0.4674050000000  0.4773850000000 1.0
C      1  0.4979660000000  0.4674030000000  0.5226140000000 1.0
C      1  0.5020330000000  0.5325960000000  0.5226150000000 1.0
C      1  0.4773840000000  0.5325950000000  0.4979650000000 1.0
C      1  0.4979650000000  0.4773850000000  0.5325950000000 1.0
C      1  0.5325970000000  0.4979670000000  0.4773870000000 1.0
C      1  0.5226160000000  0.4674050000000  0.4979650000000 1.0
C      1  0.5226130000000  0.5325970000000  0.5020370000000 1.0
C      1  0.4773870000000  0.4674030000000  0.5020340000000 1.0
C      1  0.5020330000000  0.5226140000000  0.5325970000000 1.0
C      1  0.5020380000000  0.4773860000000  0.4674030000000 1.0
C      1  0.4979650000000  0.5226150000000  0.4674040000000 1.0
C      1  0.4674050000000  0.5020340000000  0.4773840000000 1.0
C      1  0.4674030000000  0.4979620000000  0.5226130000000 1.0
C      1  0.5325950000000  0.5020370000000  0.5226160000000 1.0
C      1  0.5178140000000  0.4382390000000  0.4920360000000 1.0
C      1  0.4382370000000  0.4920330000000  0.5178080000000 1.0
C      1  0.4920390000000  0.5178110000000  0.4382380000000 1.0
C      1  0.4821860000000  0.5617610000000  0.4920380000000 1.0
C      1  0.5178070000000  0.5617630000000  0.5079650000000 1.0
C      1  0.4821930000000  0.4382370000000  0.5079610000000 1.0
C      1  0.5617610000000  0.5079660000000  0.5178130000000 1.0
C      1  0.4382380000000  0.5079600000000  0.4821870000000 1.0
C      1  0.5617630000000  0.4920410000000  0.4821920000000 1.0
C      1  0.5079670000000  0.4821910000000  0.4382380000000 1.0
C      1  0.4920350000000  0.4821880000000  0.5617620000000 1.0
C      1  0.5079590000000  0.5178100000000  0.5617630000000 1.0
C      1  0.4382370000000  0.5178070000000  0.4920350000000 1.0
C      1  0.4920400000000  0.4382370000000  0.5178090000000 1.0
C      1  0.5178140000000  0.4920390000000  0.4382380000000 1.0
C      1  0.5617640000000  0.4821930000000  0.4920390000000 1.0
C      1  0.5617610000000  0.5178140000000  0.5079660000000 1.0
C      1  0.4382380000000  0.4821860000000  0.5079600000000 1.0
C      1  0.5079590000000  0.5617620000000  0.5178120000000 1.0
C      1  0.5079670000000  0.4382390000000  0.4821880000000 1.0
C      1  0.4920340000000  0.5617620000000  0.4821910000000 1.0
C      1  0.4821920000000  0.5079640000000  0.4382370000000 1.0
C      1  0.4821870000000  0.4920350000000  0.5617610000000 1.0
C      1  0.5178070000000  0.5079630000000  0.5617630000000 1.0
C      1  0.5161250000000  0.4624000000000  0.4737620000000 1.0
C      1  0.4624000000000  0.4737590000000  0.5161200000000 1.0
C      1  0.4737620000000  0.5161220000000  0.4623980000000 1.0
C      1  0.4838770000000  0.5376010000000  0.4737620000000 1.0
C      1  0.5161190000000  0.5376010000000  0.5262400000000 1.0
C      1  0.4838790000000  0.4623970000000  0.5262370000000 1.0
C      1  0.5375990000000  0.5262400000000  0.5161240000000 1.0
C      1  0.4623980000000  0.5262370000000  0.4838770000000 1.0
C      1  0.5376030000000  0.4737640000000  0.4838790000000 1.0
C      1  0.5262410000000  0.4838800000000  0.4624000000000 1.0
C      1  0.4737610000000  0.4838750000000  0.5376000000000 1.0
C      1  0.5262360000000  0.5161230000000  0.5376030000000 1.0
C      1  0.4623990000000  0.5161210000000  0.4737610000000 1.0
C      1  0.4737630000000  0.4623970000000  0.5161200000000 1.0
C      1  0.5161250000000  0.4737630000000  0.4623990000000 1.0
C      1  0.5376030000000  0.4838800000000  0.4737630000000 1.0
C      1  0.5375990000000  0.5161240000000  0.5262400000000 1.0
C      1  0.4623990000000  0.4838750000000  0.5262360000000 1.0
C      1  0.5262360000000  0.5376020000000  0.5161240000000 1.0
C      1  0.5262410000000  0.4624010000000  0.4838780000000 1.0
C      1  0.4737600000000  0.5376000000000  0.4838780000000 1.0
C      1  0.4838780000000  0.5262380000000  0.4623990000000 1.0
C      1  0.4838780000000  0.4737600000000  0.5376000000000 1.0
C      1  0.5161190000000  0.5262380000000  0.5376020000000 1.0
C      1  0.4934700000000  0.4822160000000  0.4435390000000 1.0
C      1  0.4822180000000  0.4435390000000  0.4934650000000 1.0
C      1  0.4435410000000  0.4934640000000  0.4822120000000 1.0
C      1  0.5065340000000  0.5177870000000  0.4435410000000 1.0
C      1  0.4934640000000  0.5177840000000  0.5564600000000 1.0
C      1  0.5065320000000  0.4822140000000  0.5564600000000 1.0
C      1  0.5177820000000  0.5564610000000  0.4934690000000 1.0
C      1  0.4822110000000  0.5564590000000  0.5065340000000 1.0
C      1  0.5177880000000  0.4435410000000  0.5065330000000 1.0
C      1  0.5564600000000  0.5065370000000  0.4822170000000 1.0
C      1  0.4435390000000  0.5065300000000  0.5177830000000 1.0
C      1  0.5564600000000  0.4934700000000  0.5177880000000 1.0
C      1  0.4822170000000  0.4934670000000  0.4435390000000 1.0
C      1  0.4435410000000  0.4822120000000  0.4934640000000 1.0
C      1  0.4934710000000  0.4435400000000  0.4822130000000 1.0
C      1  0.5177870000000  0.5065350000000  0.4435410000000 1.0
C      1  0.5177830000000  0.4934670000000  0.5564610000000 1.0
C      1  0.4822120000000  0.5065310000000  0.5564590000000 1.0
C      1  0.5564590000000  0.5177890000000  0.4934700000000 1.0
C      1  0.5564610000000  0.4822180000000  0.5065350000000 1.0
C      1  0.4435390000000  0.5177820000000  0.5065310000000 1.0
C      1  0.5065310000000  0.5564610000000  0.4822160000000 1.0
C      1  0.5065350000000  0.4435400000000  0.5177840000000 1.0
C      1  0.4934630000000  0.5564590000000  0.5177860000000 1.0
C      1  0.5377110000000  0.4851850000000  0.4521480000000 1.0
C      1  0.4851830000000  0.4521450000000  0.5377070000000 1.0
C      1  0.4521450000000  0.5377060000000  0.4851800000000 1.0
C      1  0.4622930000000  0.5148170000000  0.4521450000000 1.0
C      1  0.5377060000000  0.5148190000000  0.5478550000000 1.0
C      1  0.4622900000000  0.4851780000000  0.5478510000000 1.0
C      1  0.5148140000000  0.5478530000000  0.5377100000000 1.0
C      1  0.4851810000000  0.5478530000000  0.4622920000000 1.0
C      1  0.5148230000000  0.4521480000000  0.4622910000000 1.0
C      1  0.5478560000000  0.4622950000000  0.4851830000000 1.0
C      1  0.4521480000000  0.4622890000000  0.5148160000000 1.0
C      1  0.5478510000000  0.5377110000000  0.5148210000000 1.0
C      1  0.4851820000000  0.5377090000000  0.4521470000000 1.0
C      1  0.4521460000000  0.4851780000000  0.5377060000000 1.0
C      1  0.5377120000000  0.4521490000000  0.4851820000000 1.0
C      1  0.5148230000000  0.4622940000000  0.4521460000000 1.0
C      1  0.5148140000000  0.5377080000000  0.5478550000000 1.0
C      1  0.4851820000000  0.4622900000000  0.5478520000000 1.0
C      1  0.5478510000000  0.5148200000000  0.5377110000000 1.0
C      1  0.5478560000000  0.4851850000000  0.4622930000000 1.0
C      1  0.4521470000000  0.5148170000000  0.4622900000000 1.0
C      1  0.4622900000000  0.5478520000000  0.4851810000000 1.0
C      1  0.4622940000000  0.4521440000000  0.5148160000000 1.0
C      1  0.5377050000000  0.5478550000000  0.5148210000000 1.0
C      1  0.5406840000000  0.4834690000000  0.5068530000000 1.0
C      1  0.4834650000000  0.5068500000000  0.5406830000000 1.0
C      1  0.5068510000000  0.5406840000000  0.4834690000000 1.0
C      1  0.4593150000000  0.5165300000000  0.5068510000000 1.0
C      1  0.5406830000000  0.5165350000000  0.4931500000000 1.0
C      1  0.4593180000000  0.4834650000000  0.4931460000000 1.0
C      1  0.5165310000000  0.4931480000000  0.5406840000000 1.0
C      1  0.4834690000000  0.4931480000000  0.4593160000000 1.0
C      1  0.5165340000000  0.5068540000000  0.4593170000000 1.0
C      1  0.4931510000000  0.4593170000000  0.4834660000000 1.0
C      1  0.5068540000000  0.4593170000000  0.5165320000000 1.0
C      1  0.4931450000000  0.5406830000000  0.5165330000000 1.0
C      1  0.4834650000000  0.5406820000000  0.5068520000000 1.0
C      1  0.5068510000000  0.4834670000000  0.5406830000000 1.0
C      1  0.5406840000000  0.5068550000000  0.4834690000000 1.0
C      1  0.5165350000000  0.4593170000000  0.5068520000000 1.0
C      1  0.5165310000000  0.5406840000000  0.4931500000000 1.0
C      1  0.4834700000000  0.4593160000000  0.4931460000000 1.0
C      1  0.4931450000000  0.5165310000000  0.5406830000000 1.0
C      1  0.4931510000000  0.4834680000000  0.4593160000000 1.0
C      1  0.5068530000000  0.5165340000000  0.4593170000000 1.0
C      1  0.4593180000000  0.4931460000000  0.4834650000000 1.0
C      1  0.4593160000000  0.5068490000000  0.5165310000000 1.0
C      1  0.5406830000000  0.4931500000000  0.5165340000000 1.0
C      1  0.5306750000000  0.4493450000000  0.5404960000000 1.0
C      1  0.4493410000000  0.5404920000000  0.5306730000000 1.0
C      1  0.5404960000000  0.5306780000000  0.4493470000000 1.0
C      1  0.4693210000000  0.5506530000000  0.5404950000000 1.0
C      1  0.5306730000000  0.5506580000000  0.4595070000000 1.0
C      1  0.4693300000000  0.4493430000000  0.4595020000000 1.0
C      1  0.5506570000000  0.4595070000000  0.5306750000000 1.0
C      1  0.4493480000000  0.4595030000000  0.4693230000000 1.0
C      1  0.5506550000000  0.5404990000000  0.4693290000000 1.0
C      1  0.4595080000000  0.4693250000000  0.4493420000000 1.0
C      1  0.5404950000000  0.4693270000000  0.5506570000000 1.0
C      1  0.4595010000000  0.5306710000000  0.5506550000000 1.0
C      1  0.4493410000000  0.5306700000000  0.5404940000000 1.0
C      1  0.5404970000000  0.4493460000000  0.5306750000000 1.0
C      1  0.5306740000000  0.5404980000000  0.4493460000000 1.0
C      1  0.5506560000000  0.4693280000000  0.5404970000000 1.0
C      1  0.5506560000000  0.5306780000000  0.4595070000000 1.0
C      1  0.4493480000000  0.4693240000000  0.4595020000000 1.0
C      1  0.4595010000000  0.5506530000000  0.5306740000000 1.0
C      1  0.4595090000000  0.4493430000000  0.4693230000000 1.0
C      1  0.5404940000000  0.5506590000000  0.4693290000000 1.0
C      1  0.4693300000000  0.4595040000000  0.4493420000000 1.0
C      1  0.4693210000000  0.5404930000000  0.5506550000000 1.0
C      1  0.5306740000000  0.4595050000000  0.5506560000000 1.0
C      1  0.5591220000000  0.5330210000000  0.5076160000000 1.0
C      1  0.5330150000000  0.5076130000000  0.5591260000000 1.0
C      1  0.5076080000000  0.5591240000000  0.5330190000000 1.0
C      1  0.4408770000000  0.4669790000000  0.5076090000000 1.0
C      1  0.5591260000000  0.4669860000000  0.4923890000000 1.0
C      1  0.4408740000000  0.5330140000000  0.4923860000000 1.0
C      1  0.4669800000000  0.4923850000000  0.5591230000000 1.0
C      1  0.5330200000000  0.4923910000000  0.4408770000000 1.0
C      1  0.4669850000000  0.5076120000000  0.4408750000000 1.0
C      1  0.4923900000000  0.4408750000000  0.5330160000000 1.0
C      1  0.5076170000000  0.4408770000000  0.4669810000000 1.0
C      1  0.4923860000000  0.5591250000000  0.4669840000000 1.0
C      1  0.5330140000000  0.5591260000000  0.5076150000000 1.0
C      1  0.5076080000000  0.5330170000000  0.5591250000000 1.0
C      1  0.5591220000000  0.5076150000000  0.5330200000000 1.0
C      1  0.4669850000000  0.4408740000000  0.5076100000000 1.0
C      1  0.4669800000000  0.5591230000000  0.4923880000000 1.0
C      1  0.5330210000000  0.4408780000000  0.4923880000000 1.0
C      1  0.4923870000000  0.4669810000000  0.5591230000000 1.0
C      1  0.4923880000000  0.5330180000000  0.4408760000000 1.0
C      1  0.5076170000000  0.4669840000000  0.4408750000000 1.0
C      1  0.4408750000000  0.4923840000000  0.5330150000000 1.0
C      1  0.4408770000000  0.5076100000000  0.4669800000000 1.0
C      1  0.5591260000000  0.4923920000000  0.4669850000000 1.0
END
