TITL C-114178-678-29 18.0963441711079 1000000 -1741.35073388608 0 0 240 (C1) n - 1
REM
REM in /home/chem/mssmkc/work/GAP20/Larger-Clusters/Only-C240/New/BUILD-ONLY
REM
REM
REM
REM
REM
REM ./C.cell (daee87de7206da95283bc1c1416dbc6f)
REM
REM compiler GCC version 8.3.0
REM options -cpp -mtune=generic -march=x86-64 -g -O0
REM seed -67970326 -1731375977 -1731213770 -1536819722 1791826653 -736437480 813669931 531361531 1734703342 -1394620741 1614849422 -2108756947 347296130 -1457554263 764079235 -187998582 -1794208543 831838732 304401084 -552118811 -340369913 -1212017088 -4221739 146194678 1480117103 -1192949204 1516516449 -585702365 1764622263 -1881784422 -810741140 -782804210 1331770604
REM
CELL 1.54180  100.00000  100.00000  100.00000   90.00000   90.00000   90.00000
LATT -1
SFAC C  
C      1  0.5201360000000  0.4338290000000  0.5299830000000 1.0
C      1  0.4403460000000  0.5240630000000  0.5121440000000 1.0
C      1  0.5196030000000  0.5166130000000  0.4359190000000 1.0
C      1  0.4875160000000  0.4394840000000  0.4784420000000 1.0
C      1  0.4813700000000  0.5662910000000  0.5292750000000 1.0
C      1  0.5122170000000  0.5609700000000  0.4758060000000 1.0
C      1  0.5641560000000  0.5259710000000  0.4775610000000 1.0
C      1  0.5592620000000  0.4770010000000  0.5121100000000 1.0
C      1  0.4370850000000  0.4749480000000  0.4828360000000 1.0
C      1  0.4764590000000  0.5130810000000  0.5613490000000 1.0
C      1  0.4781470000000  0.4821330000000  0.4374050000000 1.0
C      1  0.5292360000000  0.4842210000000  0.5647850000000 1.0
C      1  0.5294980000000  0.4342700000000  0.5197070000000 1.0
C      1  0.5102730000000  0.5279290000000  0.4361420000000 1.0
C      1  0.4394100000000  0.5141230000000  0.5220380000000 1.0
C      1  0.4772710000000  0.4402660000000  0.4886770000000 1.0
C      1  0.5228260000000  0.5602930000000  0.4856190000000 1.0
C      1  0.4718060000000  0.5655630000000  0.5189080000000 1.0
C      1  0.4861810000000  0.5236430000000  0.5627810000000 1.0
C      1  0.5195810000000  0.4740230000000  0.5656640000000 1.0
C      1  0.4875090000000  0.4708620000000  0.4380240000000 1.0
C      1  0.5617880000000  0.5156540000000  0.4688840000000 1.0
C      1  0.4383720000000  0.4848280000000  0.4729230000000 1.0
C      1  0.5599670000000  0.4872450000000  0.5218600000000 1.0
C      1  0.5264070000000  0.5415030000000  0.4481040000000 1.0
C      1  0.5421910000000  0.4501310000000  0.5316790000000 1.0
C      1  0.4548360000000  0.5257830000000  0.5359710000000 1.0
C      1  0.4725390000000  0.5383070000000  0.5488590000000 1.0
C      1  0.4718600000000  0.4582260000000  0.4514540000000 1.0
C      1  0.5329660000000  0.4596970000000  0.5520780000000 1.0
C      1  0.4623660000000  0.4525490000000  0.4735770000000 1.0
C      1  0.4602930000000  0.5490830000000  0.5306140000000 1.0
C      1  0.5370830000000  0.5486760000000  0.4689580000000 1.0
C      1  0.5455640000000  0.5283020000000  0.4572270000000 1.0
C      1  0.5481330000000  0.4733400000000  0.5377500000000 1.0
C      1  0.4532900000000  0.4718090000000  0.4604310000000 1.0
C      1  0.4543520000000  0.5367110000000  0.5268330000000 1.0
C      1  0.5332470000000  0.4492620000000  0.5429040000000 1.0
C      1  0.5354720000000  0.5303720000000  0.4476170000000 1.0
C      1  0.5470370000000  0.5387740000000  0.4669700000000 1.0
C      1  0.4519350000000  0.4617550000000  0.4706380000000 1.0
C      1  0.5477630000000  0.4628210000000  0.5279460000000 1.0
C      1  0.4717440000000  0.4501280000000  0.4631760000000 1.0
C      1  0.5269960000000  0.5505260000000  0.4591300000000 1.0
C      1  0.4698560000000  0.5499700000000  0.5413900000000 1.0
C      1  0.4635640000000  0.5273040000000  0.5470890000000 1.0
C      1  0.5420860000000  0.4707660000000  0.5504830000000 1.0
C      1  0.4627750000000  0.4692040000000  0.4504440000000 1.0
C      1  0.4863370000000  0.5355550000000  0.4392760000000 1.0
C      1  0.5345850000000  0.4368980000000  0.4960650000000 1.0
C      1  0.4345100000000  0.4954990000000  0.5340770000000 1.0
C      1  0.5052860000000  0.5360830000000  0.5654970000000 1.0
C      1  0.5115400000000  0.4634160000000  0.4406190000000 1.0
C      1  0.4982420000000  0.4646930000000  0.5629960000000 1.0
C      1  0.4656290000000  0.4410500000000  0.5078520000000 1.0
C      1  0.4658970000000  0.5629010000000  0.4955590000000 1.0
C      1  0.5357660000000  0.5563420000000  0.5050590000000 1.0
C      1  0.5608620000000  0.4943510000000  0.4623960000000 1.0
C      1  0.5616660000000  0.5068740000000  0.5326740000000 1.0
C      1  0.4376090000000  0.5054890000000  0.4640770000000 1.0
C      1  0.4400330000000  0.5363840000000  0.4932040000000 1.0
C      1  0.4995310000000  0.4378000000000  0.5385680000000 1.0
C      1  0.5302710000000  0.4947660000000  0.4369170000000 1.0
C      1  0.5645940000000  0.5350290000000  0.4981150000000 1.0
C      1  0.4362370000000  0.4680560000000  0.5062610000000 1.0
C      1  0.5588920000000  0.4647450000000  0.4931740000000 1.0
C      1  0.5106420000000  0.4409190000000  0.4687000000000 1.0
C      1  0.4885990000000  0.5589800000000  0.4670480000000 1.0
C      1  0.5030840000000  0.5630140000000  0.5368650000000 1.0
C      1  0.4648940000000  0.4908000000000  0.5594770000000 1.0
C      1  0.5350550000000  0.5079370000000  0.5617920000000 1.0
C      1  0.4675530000000  0.5039810000000  0.4377710000000 1.0
C      1  0.4869980000000  0.4909480000000  0.5698150000000 1.0
C      1  0.4905640000000  0.5707590000000  0.4871940000000 1.0
C      1  0.5684410000000  0.4850960000000  0.4879190000000 1.0
C      1  0.5055950000000  0.4961920000000  0.4298260000000 1.0
C      1  0.5115820000000  0.5002900000000  0.5701990000000 1.0
C      1  0.4919670000000  0.5022450000000  0.4299080000000 1.0
C      1  0.4998260000000  0.5676730000000  0.5121090000000 1.0
C      1  0.5096640000000  0.4287930000000  0.4886040000000 1.0
C      1  0.5015110000000  0.4311390000000  0.5137830000000 1.0
C      1  0.4284820000000  0.4917390000000  0.4984980000000 1.0
C      1  0.4295950000000  0.5161920000000  0.4889070000000 1.0
C      1  0.5699370000000  0.5103040000000  0.4960870000000 1.0
C      1  0.5692060000000  0.4993480000000  0.4860860000000 1.0
C      1  0.4894210000000  0.5690930000000  0.5017490000000 1.0
C      1  0.5014950000000  0.4898880000000  0.5695800000000 1.0
C      1  0.4249710000000  0.4941920000000  0.5123490000000 1.0
C      1  0.5695050000000  0.5099000000000  0.5106160000000 1.0
C      1  0.4293600000000  0.5017780000000  0.4879360000000 1.0
C      1  0.5142160000000  0.5656680000000  0.5103490000000 1.0
C      1  0.4872340000000  0.4329070000000  0.5127260000000 1.0
C      1  0.5115710000000  0.4301000000000  0.5030500000000 1.0
C      1  0.5076670000000  0.4821020000000  0.4276820000000 1.0
C      1  0.4897820000000  0.5162180000000  0.4271510000000 1.0
C      1  0.5087560000000  0.5140970000000  0.5732250000000 1.0
C      1  0.5203870000000  0.4770270000000  0.4235060000000 1.0
C      1  0.4800390000000  0.4357530000000  0.5247940000000 1.0
C      1  0.4333080000000  0.5188100000000  0.4638530000000 1.0
C      1  0.4844500000000  0.4662170000000  0.5652030000000 1.0
C      1  0.4769140000000  0.5210870000000  0.4231870000000 1.0
C      1  0.5201090000000  0.5220420000000  0.5757730000000 1.0
C      1  0.5340820000000  0.4288880000000  0.4842560000000 1.0
C      1  0.5221880000000  0.5630760000000  0.5220430000000 1.0
C      1  0.4660120000000  0.5709800000000  0.4838280000000 1.0
C      1  0.5687170000000  0.5224260000000  0.5177070000000 1.0
C      1  0.5649220000000  0.4810030000000  0.4628900000000 1.0
C      1  0.4212700000000  0.4826550000000  0.5198630000000 1.0
C      1  0.4278030000000  0.4700860000000  0.5175510000000 1.0
C      1  0.5211590000000  0.4241420000000  0.4808860000000 1.0
C      1  0.4656760000000  0.5152250000000  0.4292640000000 1.0
C      1  0.5671250000000  0.4767290000000  0.4761410000000 1.0
C      1  0.4311450000000  0.5239680000000  0.4767870000000 1.0
C      1  0.5662610000000  0.5349970000000  0.5118310000000 1.0
C      1  0.4856150000000  0.4391050000000  0.5375010000000 1.0
C      1  0.5171070000000  0.5629180000000  0.5347700000000 1.0
C      1  0.4788160000000  0.5756250000000  0.4800180000000 1.0
C      1  0.5323700000000  0.5197280000000  0.5689720000000 1.0
C      1  0.4809510000000  0.4785630000000  0.5719200000000 1.0
C      1  0.5318710000000  0.4831300000000  0.4288720000000 1.0
C      1  0.5452800000000  0.5241940000000  0.5460960000000 1.0
C      1  0.5315000000000  0.5454850000000  0.5423760000000 1.0
C      1  0.5515740000000  0.5415490000000  0.5292380000000 1.0
C      1  0.4602900000000  0.5238530000000  0.4517320000000 1.0
C      1  0.4543530000000  0.4751030000000  0.5434880000000 1.0
C      1  0.5381040000000  0.4755350000000  0.4514890000000 1.0
C      1  0.4715800000000  0.5402450000000  0.4695610000000 1.0
C      1  0.4665030000000  0.4532940000000  0.5420200000000 1.0
C      1  0.5275880000000  0.4597820000000  0.4703650000000 1.0
C      1  0.4490360000000  0.5395280000000  0.4706550000000 1.0
C      1  0.4519900000000  0.4592110000000  0.5229560000000 1.0
C      1  0.5498600000000  0.4605450000000  0.4707260000000 1.0
C      1  0.5541130000000  0.5291310000000  0.5362740000000 1.0
C      1  0.5393280000000  0.5485480000000  0.5306080000000 1.0
C      1  0.5361010000000  0.5345210000000  0.5505320000000 1.0
C      1  0.4487560000000  0.5316040000000  0.4582320000000 1.0
C      1  0.5498900000000  0.4680140000000  0.4579770000000 1.0
C      1  0.4471080000000  0.4692960000000  0.5322780000000 1.0
C      1  0.4603900000000  0.5478690000000  0.4762640000000 1.0
C      1  0.5389130000000  0.4521280000000  0.4767850000000 1.0
C      1  0.4610600000000  0.4504340000000  0.5290830000000 1.0
C      1  0.4713000000000  0.5307020000000  0.4590390000000 1.0
C      1  0.5274380000000  0.4690080000000  0.4595400000000 1.0
C      1  0.4629080000000  0.4649910000000  0.5490000000000 1.0
C      1  0.5444790000000  0.5096720000000  0.5501890000000 1.0
C      1  0.5046380000000  0.5526430000000  0.5476850000000 1.0
C      1  0.5550780000000  0.5431170000000  0.4906190000000 1.0
C      1  0.4585670000000  0.5067540000000  0.4494340000000 1.0
C      1  0.4550410000000  0.4896880000000  0.5481400000000 1.0
C      1  0.5396480000000  0.4925440000000  0.4483630000000 1.0
C      1  0.4844000000000  0.5459600000000  0.4639820000000 1.0
C      1  0.5089020000000  0.4445030000000  0.5475650000000 1.0
C      1  0.5145200000000  0.4540080000000  0.4655300000000 1.0
C      1  0.4503880000000  0.5423260000000  0.5005750000000 1.0
C      1  0.4482670000000  0.4588260000000  0.5085720000000 1.0
C      1  0.5494730000000  0.4580790000000  0.5010710000000 1.0
C      1  0.5525070000000  0.5002390000000  0.5411790000000 1.0
C      1  0.5435590000000  0.5511620000000  0.4936120000000 1.0
C      1  0.4975350000000  0.5435980000000  0.5559020000000 1.0
C      1  0.4489850000000  0.4991190000000  0.4569440000000 1.0
C      1  0.5494870000000  0.5005860000000  0.4550780000000 1.0
C      1  0.4467240000000  0.4998490000000  0.5403030000000 1.0
C      1  0.4588870000000  0.5506700000000  0.4927160000000 1.0
C      1  0.5411220000000  0.4493730000000  0.4932860000000 1.0
C      1  0.4575560000000  0.4497800000000  0.5001900000000 1.0
C      1  0.4835890000000  0.5366850000000  0.4530570000000 1.0
C      1  0.5148430000000  0.4629510000000  0.4543300000000 1.0
C      1  0.5083480000000  0.4553120000000  0.5568820000000 1.0
C      1  0.4651740000000  0.5164920000000  0.5547380000000 1.0
C      1  0.5159640000000  0.5574340000000  0.4628900000000 1.0
C      1  0.5515840000000  0.4650660000000  0.5145500000000 1.0
C      1  0.5320870000000  0.5199070000000  0.4399120000000 1.0
C      1  0.5414890000000  0.4810490000000  0.5592570000000 1.0
C      1  0.4657300000000  0.4791370000000  0.4418760000000 1.0
C      1  0.4781920000000  0.5609280000000  0.5417410000000 1.0
C      1  0.4830900000000  0.4432270000000  0.4659220000000 1.0
C      1  0.5218860000000  0.4412240000000  0.5419280000000 1.0
C      1  0.4425470000000  0.4627350000000  0.4802420000000 1.0
C      1  0.4490200000000  0.5353040000000  0.5139030000000 1.0
C      1  0.5560940000000  0.5375360000000  0.4774030000000 1.0
C      1  0.5517720000000  0.5156150000000  0.4588080000000 1.0
C      1  0.4596080000000  0.5596090000000  0.5219190000000 1.0
C      1  0.5212090000000  0.4615360000000  0.5594520000000 1.0
C      1  0.4480480000000  0.5136420000000  0.5336580000000 1.0
C      1  0.5529030000000  0.4862760000000  0.5346350000000 1.0
C      1  0.4473120000000  0.4844140000000  0.4620410000000 1.0
C      1  0.5351610000000  0.5539950000000  0.4819160000000 1.0
C      1  0.4647740000000  0.4478150000000  0.4865990000000 1.0
C      1  0.5417010000000  0.4401790000000  0.5225490000000 1.0
C      1  0.4830970000000  0.4590760000000  0.4438540000000 1.0
C      1  0.5149130000000  0.5400370000000  0.4410350000000 1.0
C      1  0.4844360000000  0.5361790000000  0.5558850000000 1.0
C      1  0.4637870000000  0.5629760000000  0.4719660000000 1.0
C      1  0.5622740000000  0.4714130000000  0.4529700000000 1.0
C      1  0.4699950000000  0.4664430000000  0.5607850000000 1.0
C      1  0.5344060000000  0.5562800000000  0.5195280000000 1.0
C      1  0.5356520000000  0.4370820000000  0.4724570000000 1.0
C      1  0.4671710000000  0.4406080000000  0.5216180000000 1.0
C      1  0.4271940000000  0.4836770000000  0.5334300000000 1.0
C      1  0.4363170000000  0.5279010000000  0.4536060000000 1.0
C      1  0.5634520000000  0.5205110000000  0.5307120000000 1.0
C      1  0.5235400000000  0.4653660000000  0.4320740000000 1.0
C      1  0.5185150000000  0.5353580000000  0.5698240000000 1.0
C      1  0.4740350000000  0.5331500000000  0.4313080000000 1.0
C      1  0.4766710000000  0.5676220000000  0.4678660000000 1.0
C      1  0.4675390000000  0.4790170000000  0.5666580000000 1.0
C      1  0.5600790000000  0.4647880000000  0.4792520000000 1.0
C      1  0.5196590000000  0.5529630000000  0.5447780000000 1.0
C      1  0.4775980000000  0.4464780000000  0.5459920000000 1.0
C      1  0.5226200000000  0.4323130000000  0.4688340000000 1.0
C      1  0.5353960000000  0.4714630000000  0.4369080000000 1.0
C      1  0.4623990000000  0.5272660000000  0.4368570000000 1.0
C      1  0.5311100000000  0.5328290000000  0.5631320000000 1.0
C      1  0.4336640000000  0.4712550000000  0.5308880000000 1.0
C      1  0.5599870000000  0.5448530000000  0.5191030000000 1.0
C      1  0.4386280000000  0.5359050000000  0.4793210000000 1.0
C      1  0.4989530000000  0.5235440000000  0.5686680000000 1.0
C      1  0.5232650000000  0.5620420000000  0.4996930000000 1.0
C      1  0.5655890000000  0.5001220000000  0.5206060000000 1.0
C      1  0.4965670000000  0.5270160000000  0.4334170000000 1.0
C      1  0.5060050000000  0.4765000000000  0.5675100000000 1.0
C      1  0.5011010000000  0.4716460000000  0.4347340000000 1.0
C      1  0.4756690000000  0.5668160000000  0.5055330000000 1.0
C      1  0.4778520000000  0.4361070000000  0.5020430000000 1.0
C      1  0.5253130000000  0.4327380000000  0.5063730000000 1.0
C      1  0.4334020000000  0.4975970000000  0.4749910000000 1.0
C      1  0.4313160000000  0.5027450000000  0.5219930000000 1.0
C      1  0.5658260000000  0.5027760000000  0.4725710000000 1.0
C      1  0.5683690000000  0.5234480000000  0.4908200000000 1.0
C      1  0.4950530000000  0.5667860000000  0.5259600000000 1.0
C      1  0.5254480000000  0.4975870000000  0.5663240000000 1.0
C      1  0.4344950000000  0.5247980000000  0.4992250000000 1.0
C      1  0.5640710000000  0.4766730000000  0.4987140000000 1.0
C      1  0.4330480000000  0.4781680000000  0.4958730000000 1.0
C      1  0.4982750000000  0.5638780000000  0.4771880000000 1.0
C      1  0.5014280000000  0.4360120000000  0.4791620000000 1.0
C      1  0.5064170000000  0.4325550000000  0.5271760000000 1.0
C      1  0.4798140000000  0.4959310000000  0.4345950000000 1.0
C      1  0.5179000000000  0.5026890000000  0.4338110000000 1.0
C      1  0.4765090000000  0.4991760000000  0.5639490000000 1.0
END
