TITL C-114179-1211-89 5.87710634743823 1000000 -1745.89958998502 0 0 240 (C1) n - 1
REM
REM in /home/chem/mssmkc/work/GAP20/Larger-Clusters/Only-C240/New/BUILD-ONLY
REM
REM
REM
REM
REM
REM ./C.cell (daee87de7206da95283bc1c1416dbc6f)
REM
REM compiler GCC version 8.3.0
REM options -cpp -mtune=generic -march=x86-64 -g -O0
REM seed -1844737508 -2050391433 -722289607 -1719452000 -1684014563 1457778362 216726676 -1303710107 -396479801 -2091731954 -1333666054 37182273 1158015807 602710619 1376005407 1751320247 1374498108 -1357723075 -531595106 708429882 526298898 1853581999 1377594855 -2126227521 419518619 1216597779 -88300915 1510394971 -2126779803 -1311199401 -2019320639 -836076420 -1270953991
REM
CELL 1.54180  100.00000  100.00000  100.00000   90.00000   90.00000   90.00000
LATT -1
SFAC C  
C      1  0.5529970000000  0.5140700000000  0.4660780000000 1.0
C      1  0.5134930000000  0.4649160000000  0.5530280000000 1.0
C      1  0.4663090000000  0.5540000000000  0.5124080000000 1.0
C      1  0.5534710000000  0.4859420000000  0.5340240000000 1.0
C      1  0.4464510000000  0.5136810000000  0.5343750000000 1.0
C      1  0.4464940000000  0.4859070000000  0.4656350000000 1.0
C      1  0.5126400000000  0.5347510000000  0.4463140000000 1.0
C      1  0.4867300000000  0.4649190000000  0.4466550000000 1.0
C      1  0.4874850000000  0.5343510000000  0.5531850000000 1.0
C      1  0.4658870000000  0.4455750000000  0.4873530000000 1.0
C      1  0.5338510000000  0.5547420000000  0.4870730000000 1.0
C      1  0.5340660000000  0.4454140000000  0.5121560000000 1.0
C      1  0.5541200000000  0.4648660000000  0.5125940000000 1.0
C      1  0.5123920000000  0.5545150000000  0.4658910000000 1.0
C      1  0.4661310000000  0.5135840000000  0.5533610000000 1.0
C      1  0.5534330000000  0.5355240000000  0.4866160000000 1.0
C      1  0.4465880000000  0.5344660000000  0.5127320000000 1.0
C      1  0.4466050000000  0.4650730000000  0.4868680000000 1.0
C      1  0.5128000000000  0.4456170000000  0.5335210000000 1.0
C      1  0.4871940000000  0.4455180000000  0.4660130000000 1.0
C      1  0.4875610000000  0.5540910000000  0.5336710000000 1.0
C      1  0.4656030000000  0.4858460000000  0.4464750000000 1.0
C      1  0.5344640000000  0.4852690000000  0.5531660000000 1.0
C      1  0.5339300000000  0.5136790000000  0.4467030000000 1.0
C      1  0.4547090000000  0.4739820000000  0.4646820000000 1.0
C      1  0.4749770000000  0.4636730000000  0.4548970000000 1.0
C      1  0.4648160000000  0.4537630000000  0.4754170000000 1.0
C      1  0.4556480000000  0.5248340000000  0.5343350000000 1.0
C      1  0.5451110000000  0.4741490000000  0.5343880000000 1.0
C      1  0.5445890000000  0.5257900000000  0.4650040000000 1.0
C      1  0.4760390000000  0.5351150000000  0.5443240000000 1.0
C      1  0.5251290000000  0.4635540000000  0.5446170000000 1.0
C      1  0.5241680000000  0.5357450000000  0.4550580000000 1.0
C      1  0.4656050000000  0.5451900000000  0.5239110000000 1.0
C      1  0.5351500000000  0.4539380000000  0.5238400000000 1.0
C      1  0.5346970000000  0.5462570000000  0.4753040000000 1.0
C      1  0.4547680000000  0.4636880000000  0.4750530000000 1.0
C      1  0.4753120000000  0.4537670000000  0.4649580000000 1.0
C      1  0.4646310000000  0.4739760000000  0.4547940000000 1.0
C      1  0.4556220000000  0.5350860000000  0.5240340000000 1.0
C      1  0.5448210000000  0.5364190000000  0.4750290000000 1.0
C      1  0.5452240000000  0.4639570000000  0.5240210000000 1.0
C      1  0.4760780000000  0.5452510000000  0.5343890000000 1.0
C      1  0.5240710000000  0.5459900000000  0.4649190000000 1.0
C      1  0.5247120000000  0.4538390000000  0.5344020000000 1.0
C      1  0.4657510000000  0.5248620000000  0.5442930000000 1.0
C      1  0.5344980000000  0.5254760000000  0.4551880000000 1.0
C      1  0.5354140000000  0.4737420000000  0.5445960000000 1.0
C      1  0.4361270000000  0.5256970000000  0.5152430000000 1.0
C      1  0.5252390000000  0.5156940000000  0.4362370000000 1.0
C      1  0.5137410000000  0.4355280000000  0.5236530000000 1.0
C      1  0.4374530000000  0.4755530000000  0.4864070000000 1.0
C      1  0.5628890000000  0.5251620000000  0.4861150000000 1.0
C      1  0.5643620000000  0.4739690000000  0.5151800000000 1.0
C      1  0.5242780000000  0.4849910000000  0.5626110000000 1.0
C      1  0.4750500000000  0.5155850000000  0.5636760000000 1.0
C      1  0.4761850000000  0.4853730000000  0.4376360000000 1.0
C      1  0.5135750000000  0.5646840000000  0.4757810000000 1.0
C      1  0.4860880000000  0.4354850000000  0.4759590000000 1.0
C      1  0.4863710000000  0.5642740000000  0.5238290000000 1.0
C      1  0.4358620000000  0.5158820000000  0.5257310000000 1.0
C      1  0.5239850000000  0.4354180000000  0.5133250000000 1.0
C      1  0.5150600000000  0.5257830000000  0.4360210000000 1.0
C      1  0.4379310000000  0.4856000000000  0.4764110000000 1.0
C      1  0.5640470000000  0.4841300000000  0.5253810000000 1.0
C      1  0.5617720000000  0.5146060000000  0.4766810000000 1.0
C      1  0.5238850000000  0.5647470000000  0.4860130000000 1.0
C      1  0.4760920000000  0.5642590000000  0.5136080000000 1.0
C      1  0.4758440000000  0.4355580000000  0.4863070000000 1.0
C      1  0.5140430000000  0.4750770000000  0.5625000000000 1.0
C      1  0.4862390000000  0.4753620000000  0.4374400000000 1.0
C      1  0.4852960000000  0.5255390000000  0.5635890000000 1.0
C      1  0.4601130000000  0.4989500000000  0.4499600000000 1.0
C      1  0.5004780000000  0.4501560000000  0.4604380000000 1.0
C      1  0.4509760000000  0.4608610000000  0.4999730000000 1.0
C      1  0.4600670000000  0.5007760000000  0.5500580000000 1.0
C      1  0.5387810000000  0.4983310000000  0.5488960000000 1.0
C      1  0.5397840000000  0.5007860000000  0.4504350000000 1.0
C      1  0.5007300000000  0.5500940000000  0.5396320000000 1.0
C      1  0.4996030000000  0.4503860000000  0.5392150000000 1.0
C      1  0.4991810000000  0.5501950000000  0.4601530000000 1.0
C      1  0.4504410000000  0.5398830000000  0.4995840000000 1.0
C      1  0.5500910000000  0.4595860000000  0.4994140000000 1.0
C      1  0.5490000000000  0.5397270000000  0.4997700000000 1.0
C      1  0.4603600000000  0.4502850000000  0.5006230000000 1.0
C      1  0.4998430000000  0.4606840000000  0.4510090000000 1.0
C      1  0.4500150000000  0.4989880000000  0.4600540000000 1.0
C      1  0.4603780000000  0.5499390000000  0.4992470000000 1.0
C      1  0.5395450000000  0.5502640000000  0.5003820000000 1.0
C      1  0.5400250000000  0.4495970000000  0.4990250000000 1.0
C      1  0.5004470000000  0.5399620000000  0.5495450000000 1.0
C      1  0.4995130000000  0.5400240000000  0.4502960000000 1.0
C      1  0.5003740000000  0.4608960000000  0.5486660000000 1.0
C      1  0.4499420000000  0.5007900000000  0.5403010000000 1.0
C      1  0.5493920000000  0.5009640000000  0.4607830000000 1.0
C      1  0.5490700000000  0.4988220000000  0.5393840000000 1.0
C      1  0.5155700000000  0.5256700000000  0.5650460000000 1.0
C      1  0.5294310000000  0.5659260000000  0.5188640000000 1.0
C      1  0.5645760000000  0.5148580000000  0.5266210000000 1.0
C      1  0.5168680000000  0.4744850000000  0.4346390000000 1.0
C      1  0.4847060000000  0.5251340000000  0.4353190000000 1.0
C      1  0.4836320000000  0.4746300000000  0.5652160000000 1.0
C      1  0.5292890000000  0.4340660000000  0.4806600000000 1.0
C      1  0.4705100000000  0.5658460000000  0.4809390000000 1.0
C      1  0.4705610000000  0.4348420000000  0.5190870000000 1.0
C      1  0.5644140000000  0.4851090000000  0.4747030000000 1.0
C      1  0.4351360000000  0.5152750000000  0.4743620000000 1.0
C      1  0.4343980000000  0.4851020000000  0.5268310000000 1.0
C      1  0.5191040000000  0.5660450000000  0.5292710000000 1.0
C      1  0.5257650000000  0.5155900000000  0.5650660000000 1.0
C      1  0.5652110000000  0.5259010000000  0.5174820000000 1.0
C      1  0.5188330000000  0.4343280000000  0.4703660000000 1.0
C      1  0.4810100000000  0.4348570000000  0.5293760000000 1.0
C      1  0.4808150000000  0.5659240000000  0.4705330000000 1.0
C      1  0.5265900000000  0.4850580000000  0.4347390000000 1.0
C      1  0.4738760000000  0.4851250000000  0.5653510000000 1.0
C      1  0.4742300000000  0.5152970000000  0.4348130000000 1.0
C      1  0.5648020000000  0.4746750000000  0.4847300000000 1.0
C      1  0.4345060000000  0.4746520000000  0.5169990000000 1.0
C      1  0.4353070000000  0.5253070000000  0.4847630000000 1.0
C      1  0.4985810000000  0.5693470000000  0.5185210000000 1.0
C      1  0.5641230000000  0.5158070000000  0.4974730000000 1.0
C      1  0.5141760000000  0.4961650000000  0.5626490000000 1.0
C      1  0.4983570000000  0.4305440000000  0.4811570000000 1.0
C      1  0.5013490000000  0.5695710000000  0.4811510000000 1.0
C      1  0.5013810000000  0.4306970000000  0.5185250000000 1.0
C      1  0.5731740000000  0.4824810000000  0.5073650000000 1.0
C      1  0.4269140000000  0.5176300000000  0.5074300000000 1.0
C      1  0.4371780000000  0.4857070000000  0.4974600000000 1.0
C      1  0.5179530000000  0.5075030000000  0.4267190000000 1.0
C      1  0.4865160000000  0.4964400000000  0.4374350000000 1.0
C      1  0.4824360000000  0.5075670000000  0.5733030000000 1.0
C      1  0.4930320000000  0.5179170000000  0.5732790000000 1.0
C      1  0.5730350000000  0.4927330000000  0.5179700000000 1.0
C      1  0.5186490000000  0.5695520000000  0.4983420000000 1.0
C      1  0.4972170000000  0.4855530000000  0.4373730000000 1.0
C      1  0.5032950000000  0.4856110000000  0.5626200000000 1.0
C      1  0.5073110000000  0.5178000000000  0.4265970000000 1.0
C      1  0.5624150000000  0.5039320000000  0.4875090000000 1.0
C      1  0.4263910000000  0.5076570000000  0.5183610000000 1.0
C      1  0.4376900000000  0.4966280000000  0.4868010000000 1.0
C      1  0.5185700000000  0.4304760000000  0.5011480000000 1.0
C      1  0.4811450000000  0.4307440000000  0.4985830000000 1.0
C      1  0.4813130000000  0.5693680000000  0.5013870000000 1.0
C      1  0.4456210000000  0.4878030000000  0.5350320000000 1.0
C      1  0.4867650000000  0.5337980000000  0.4461460000000 1.0
C      1  0.5357800000000  0.4458560000000  0.4851780000000 1.0
C      1  0.4459450000000  0.5118840000000  0.4659350000000 1.0
C      1  0.5537980000000  0.4880600000000  0.4661780000000 1.0
C      1  0.5528800000000  0.5117570000000  0.5338170000000 1.0
C      1  0.4887120000000  0.4705090000000  0.5513830000000 1.0
C      1  0.5131450000000  0.5339950000000  0.5539190000000 1.0
C      1  0.5116770000000  0.4701260000000  0.4483980000000 1.0
C      1  0.5352840000000  0.5538640000000  0.5142010000000 1.0
C      1  0.4646980000000  0.4468290000000  0.5143800000000 1.0
C      1  0.4643820000000  0.5538420000000  0.4854070000000 1.0
C      1  0.4462090000000  0.5338840000000  0.4867710000000 1.0
C      1  0.4858090000000  0.4468800000000  0.5350970000000 1.0
C      1  0.5346800000000  0.4878020000000  0.4460030000000 1.0
C      1  0.4483950000000  0.4704310000000  0.5117540000000 1.0
C      1  0.5541620000000  0.4656900000000  0.4865980000000 1.0
C      1  0.5513520000000  0.5301760000000  0.5115930000000 1.0
C      1  0.4853390000000  0.5539570000000  0.4643260000000 1.0
C      1  0.5145570000000  0.5541140000000  0.5355450000000 1.0
C      1  0.5142310000000  0.4464400000000  0.4646130000000 1.0
C      1  0.5297140000000  0.5102900000000  0.5513580000000 1.0
C      1  0.4660240000000  0.5118400000000  0.4458290000000 1.0
C      1  0.4655090000000  0.4878540000000  0.5543050000000 1.0
C      1  0.5065500000000  0.5023830000000  0.5393530000000 1.0
C      1  0.5101230000000  0.5576690000000  0.4995910000000 1.0
C      1  0.5414200000000  0.5067190000000  0.5011860000000 1.0
C      1  0.5049550000000  0.4840130000000  0.4505580000000 1.0
C      1  0.4942340000000  0.5018760000000  0.4605970000000 1.0
C      1  0.4955770000000  0.4844770000000  0.5493680000000 1.0
C      1  0.5100320000000  0.4423330000000  0.4998820000000 1.0
C      1  0.4899530000000  0.5575630000000  0.4999640000000 1.0
C      1  0.4898520000000  0.4424790000000  0.4996980000000 1.0
C      1  0.5486330000000  0.4984690000000  0.4906130000000 1.0
C      1  0.4503450000000  0.5042740000000  0.4878370000000 1.0
C      1  0.4598500000000  0.4937270000000  0.5042420000000 1.0
C      1  0.4999310000000  0.5575570000000  0.5098660000000 1.0
C      1  0.5155460000000  0.5037670000000  0.5493170000000 1.0
C      1  0.5504330000000  0.5165120000000  0.5049810000000 1.0
C      1  0.4997290000000  0.4423630000000  0.4897200000000 1.0
C      1  0.5001590000000  0.4424720000000  0.5098690000000 1.0
C      1  0.5001570000000  0.5576790000000  0.4896870000000 1.0
C      1  0.5034720000000  0.4927040000000  0.4607260000000 1.0
C      1  0.4972050000000  0.4934820000000  0.5394420000000 1.0
C      1  0.4866440000000  0.5040110000000  0.4501730000000 1.0
C      1  0.5406890000000  0.4935380000000  0.5000230000000 1.0
C      1  0.4503500000000  0.4843860000000  0.5052370000000 1.0
C      1  0.4590820000000  0.5049050000000  0.4976900000000 1.0
C      1  0.5240770000000  0.5335270000000  0.5443400000000 1.0
C      1  0.5348820000000  0.5437110000000  0.5246210000000 1.0
C      1  0.5432020000000  0.5224690000000  0.5337890000000 1.0
C      1  0.5241430000000  0.4671540000000  0.4559970000000 1.0
C      1  0.4753230000000  0.5335870000000  0.4551540000000 1.0
C      1  0.4762190000000  0.4676750000000  0.5438090000000 1.0
C      1  0.5356080000000  0.4558340000000  0.4746410000000 1.0
C      1  0.4645550000000  0.5438980000000  0.4748030000000 1.0
C      1  0.4649340000000  0.4569590000000  0.5247820000000 1.0
C      1  0.5449300000000  0.4766610000000  0.4652790000000 1.0
C      1  0.4552040000000  0.5230950000000  0.4651150000000 1.0
C      1  0.4553240000000  0.4770610000000  0.5349180000000 1.0
C      1  0.5248600000000  0.5440530000000  0.5352420000000 1.0
C      1  0.5330590000000  0.5223900000000  0.5434490000000 1.0
C      1  0.5432280000000  0.5326530000000  0.5236330000000 1.0
C      1  0.5248550000000  0.4563910000000  0.4647140000000 1.0
C      1  0.4754030000000  0.4569920000000  0.5350160000000 1.0
C      1  0.4748320000000  0.5439170000000  0.4644900000000 1.0
C      1  0.5348590000000  0.4767880000000  0.4555040000000 1.0
C      1  0.4654070000000  0.4771010000000  0.5446660000000 1.0
C      1  0.4651560000000  0.5230710000000  0.4551280000000 1.0
C      1  0.5451310000000  0.4659160000000  0.4751380000000 1.0
C      1  0.4560280000000  0.4675570000000  0.5241570000000 1.0
C      1  0.4552220000000  0.5336130000000  0.4752950000000 1.0
C      1  0.4890640000000  0.5748960000000  0.4784780000000 1.0
C      1  0.5730560000000  0.4825610000000  0.4936520000000 1.0
C      1  0.4823860000000  0.4938570000000  0.5731710000000 1.0
C      1  0.4890400000000  0.4256140000000  0.5214970000000 1.0
C      1  0.5108070000000  0.5748490000000  0.5212420000000 1.0
C      1  0.5106040000000  0.4252450000000  0.4782600000000 1.0
C      1  0.5729080000000  0.5172030000000  0.5086710000000 1.0
C      1  0.4276130000000  0.4838620000000  0.5081670000000 1.0
C      1  0.4271830000000  0.5174500000000  0.4937550000000 1.0
C      1  0.4839130000000  0.5067930000000  0.4279610000000 1.0
C      1  0.5181520000000  0.4937830000000  0.4267800000000 1.0
C      1  0.5164090000000  0.5069130000000  0.5719150000000 1.0
C      1  0.4925940000000  0.4837680000000  0.5720040000000 1.0
C      1  0.5714560000000  0.4934600000000  0.4841680000000 1.0
C      1  0.4784670000000  0.5748060000000  0.4891880000000 1.0
C      1  0.4936930000000  0.5173420000000  0.4271930000000 1.0
C      1  0.5067180000000  0.5174900000000  0.5730630000000 1.0
C      1  0.5079170000000  0.4836940000000  0.4278880000000 1.0
C      1  0.5733440000000  0.5065740000000  0.5185530000000 1.0
C      1  0.4281550000000  0.5068880000000  0.4839380000000 1.0
C      1  0.4262900000000  0.4938300000000  0.5185400000000 1.0
C      1  0.4783490000000  0.4256180000000  0.5109540000000 1.0
C      1  0.5212810000000  0.4251270000000  0.4888410000000 1.0
C      1  0.5214250000000  0.5748760000000  0.5105980000000 1.0
END
