TITL C-114179-1211-76 -0.260361975202023 1000000 -1724.66239233601 0 0 240 (C1) n - 1
REM
REM in /home/chem/mssmkc/work/GAP20/Larger-Clusters/Only-C240/New/BUILD-ONLY
REM
REM
REM
REM
REM
REM ./C.cell (daee87de7206da95283bc1c1416dbc6f)
REM
REM compiler GCC version 8.3.0
REM options -cpp -mtune=generic -march=x86-64 -g -O0
REM seed -1092114152 865837521 2006368804 2117424455 349837251 286289609 -2065056679 1256061410 -1599806505 -1289789036 2093117715 884710754 -1476307959 -124794125 -120069629 -462227911 531325182 -512131227 -773637539 696315330 1558732120 1413547611 1323014578 1060763684 -1713008234 265029603 -223149814 1882897290 -1404864496 1871017427 1140589491 863921428 -1184605151
REM
CELL 1.54180  100.00000  100.00000  100.00000   90.00000   90.00000   90.00000
LATT -1
SFAC C  
C      1  0.5624530000000  0.5181340000000  0.5071940000000 1.0
C      1  0.5072030000000  0.5624610000000  0.5179950000000 1.0
C      1  0.5178820000000  0.5072100000000  0.5622320000000 1.0
C      1  0.5634450000000  0.4821440000000  0.4924170000000 1.0
C      1  0.4376270000000  0.4819500000000  0.5074470000000 1.0
C      1  0.4376020000000  0.5178770000000  0.4928150000000 1.0
C      1  0.5076970000000  0.4370390000000  0.4818570000000 1.0
C      1  0.4917480000000  0.4366780000000  0.5184970000000 1.0
C      1  0.4926370000000  0.5623910000000  0.4820300000000 1.0
C      1  0.5180520000000  0.4927300000000  0.4378750000000 1.0
C      1  0.4818590000000  0.4927750000000  0.5628310000000 1.0
C      1  0.4820560000000  0.5072060000000  0.4376700000000 1.0
C      1  0.4375180000000  0.5179330000000  0.5073690000000 1.0
C      1  0.4926490000000  0.5624030000000  0.5180100000000 1.0
C      1  0.4818990000000  0.5073360000000  0.5626170000000 1.0
C      1  0.4378090000000  0.4818970000000  0.4928930000000 1.0
C      1  0.5628710000000  0.4820710000000  0.5069880000000 1.0
C      1  0.5625400000000  0.5182090000000  0.4926650000000 1.0
C      1  0.4931250000000  0.4373740000000  0.4821060000000 1.0
C      1  0.5061780000000  0.4366620000000  0.5182060000000 1.0
C      1  0.5071900000000  0.5624330000000  0.4820090000000 1.0
C      1  0.4821020000000  0.4926590000000  0.4377030000000 1.0
C      1  0.5178850000000  0.4926630000000  0.5622980000000 1.0
C      1  0.5180270000000  0.5072630000000  0.4377580000000 1.0
C      1  0.5192440000000  0.4635780000000  0.5085630000000 1.0
C      1  0.5068190000000  0.5239220000000  0.4626330000000 1.0
C      1  0.4623710000000  0.5067720000000  0.5240600000000 1.0
C      1  0.5239320000000  0.5375100000000  0.4932440000000 1.0
C      1  0.4759960000000  0.5374010000000  0.5068180000000 1.0
C      1  0.4765880000000  0.4625600000000  0.4935300000000 1.0
C      1  0.5059830000000  0.4765930000000  0.5381090000000 1.0
C      1  0.4934240000000  0.4761620000000  0.4626830000000 1.0
C      1  0.4931240000000  0.5239060000000  0.5375000000000 1.0
C      1  0.4627500000000  0.4931640000000  0.4762690000000 1.0
C      1  0.5370990000000  0.4934840000000  0.5235300000000 1.0
C      1  0.5375770000000  0.5067080000000  0.4761790000000 1.0
C      1  0.4762580000000  0.4624910000000  0.5070460000000 1.0
C      1  0.4933200000000  0.5239120000000  0.4626590000000 1.0
C      1  0.5373180000000  0.5069800000000  0.5236080000000 1.0
C      1  0.4760340000000  0.5374010000000  0.4933230000000 1.0
C      1  0.5238790000000  0.5375620000000  0.5067400000000 1.0
C      1  0.5272280000000  0.4593670000000  0.4854250000000 1.0
C      1  0.4925300000000  0.4763460000000  0.5381860000000 1.0
C      1  0.5068940000000  0.4762250000000  0.4625630000000 1.0
C      1  0.5066200000000  0.5239810000000  0.5374770000000 1.0
C      1  0.5377100000000  0.4931560000000  0.4762680000000 1.0
C      1  0.4623110000000  0.4932870000000  0.5241660000000 1.0
C      1  0.4626900000000  0.5066590000000  0.4762150000000 1.0
C      1  0.5247320000000  0.4502280000000  0.5088090000000 1.0
C      1  0.5114800000000  0.5266970000000  0.4491010000000 1.0
C      1  0.4488570000000  0.5114930000000  0.5268440000000 1.0
C      1  0.5266350000000  0.5510280000000  0.4885040000000 1.0
C      1  0.4732380000000  0.5509230000000  0.5115240000000 1.0
C      1  0.4739640000000  0.4491250000000  0.4886100000000 1.0
C      1  0.5110030000000  0.4730460000000  0.5514640000000 1.0
C      1  0.4886860000000  0.4733370000000  0.4492330000000 1.0
C      1  0.4884140000000  0.5266830000000  0.5510230000000 1.0
C      1  0.4492600000000  0.4884050000000  0.4734970000000 1.0
C      1  0.5504910000000  0.4883970000000  0.5259580000000 1.0
C      1  0.5510200000000  0.5115700000000  0.4733810000000 1.0
C      1  0.4732990000000  0.4489780000000  0.5116740000000 1.0
C      1  0.4885400000000  0.5266190000000  0.4491480000000 1.0
C      1  0.5508450000000  0.5115700000000  0.5264090000000 1.0
C      1  0.4732530000000  0.5509050000000  0.4885740000000 1.0
C      1  0.5266470000000  0.5510900000000  0.5114470000000 1.0
C      1  0.5266470000000  0.4483740000000  0.4938510000000 1.0
C      1  0.4882010000000  0.4732160000000  0.5517010000000 1.0
C      1  0.5115100000000  0.4730780000000  0.4488900000000 1.0
C      1  0.5113600000000  0.5267410000000  0.5509930000000 1.0
C      1  0.5513470000000  0.4885880000000  0.4734180000000 1.0
C      1  0.4487930000000  0.4885700000000  0.5270010000000 1.0
C      1  0.4491600000000  0.5113450000000  0.4734620000000 1.0
C      1  0.5072430000000  0.4837570000000  0.4404430000000 1.0
C      1  0.4405050000000  0.5070420000000  0.4839390000000 1.0
C      1  0.4834580000000  0.4400080000000  0.5073880000000 1.0
C      1  0.5070760000000  0.5162020000000  0.5596090000000 1.0
C      1  0.4928550000000  0.5161430000000  0.4404970000000 1.0
C      1  0.4926280000000  0.4837360000000  0.5602990000000 1.0
C      1  0.4402320000000  0.4927980000000  0.5164050000000 1.0
C      1  0.5601470000000  0.4930480000000  0.4837330000000 1.0
C      1  0.5595040000000  0.5072120000000  0.5159610000000 1.0
C      1  0.4837280000000  0.5595720000000  0.4928590000000 1.0
C      1  0.5161320000000  0.5597040000000  0.5071610000000 1.0
C      1  0.5158730000000  0.4388620000000  0.4933300000000 1.0
C      1  0.4929190000000  0.4837890000000  0.4405070000000 1.0
C      1  0.5598240000000  0.5073600000000  0.4837790000000 1.0
C      1  0.5143330000000  0.4390800000000  0.5074160000000 1.0
C      1  0.4927230000000  0.5162200000000  0.5596910000000 1.0
C      1  0.5071920000000  0.5161810000000  0.4404870000000 1.0
C      1  0.5069950000000  0.4836390000000  0.5601230000000 1.0
C      1  0.5593950000000  0.4928470000000  0.5157520000000 1.0
C      1  0.4405760000000  0.4927000000000  0.4839580000000 1.0
C      1  0.4402310000000  0.5071470000000  0.5163500000000 1.0
C      1  0.5161290000000  0.5596670000000  0.4928160000000 1.0
C      1  0.4837240000000  0.5595760000000  0.5072040000000 1.0
C      1  0.4842150000000  0.4402240000000  0.4930030000000 1.0
C      1  0.4582490000000  0.5068300000000  0.4475980000000 1.0
C      1  0.4476200000000  0.4581780000000  0.5072530000000 1.0
C      1  0.5075320000000  0.4473630000000  0.4583740000000 1.0
C      1  0.4580770000000  0.4930370000000  0.5527340000000 1.0
C      1  0.5419380000000  0.4930700000000  0.4475810000000 1.0
C      1  0.5416290000000  0.5069240000000  0.5520990000000 1.0
C      1  0.4474220000000  0.5417410000000  0.4930520000000 1.0
C      1  0.5525250000000  0.5419790000000  0.5069570000000 1.0
C      1  0.5544500000000  0.4580300000000  0.4920010000000 1.0
C      1  0.5069440000000  0.5525570000000  0.5418310000000 1.0
C      1  0.4929300000000  0.5524930000000  0.4581980000000 1.0
C      1  0.4928680000000  0.4473830000000  0.5419950000000 1.0
C      1  0.5418710000000  0.5070700000000  0.4475710000000 1.0
C      1  0.5534950000000  0.4581450000000  0.5059270000000 1.0
C      1  0.4935210000000  0.4472700000000  0.4583340000000 1.0
C      1  0.5416020000000  0.4929350000000  0.5519610000000 1.0
C      1  0.4583170000000  0.4928250000000  0.4476290000000 1.0
C      1  0.4580600000000  0.5070400000000  0.5526710000000 1.0
C      1  0.5525390000000  0.5419970000000  0.4929590000000 1.0
C      1  0.4474080000000  0.5417730000000  0.5070500000000 1.0
C      1  0.4478970000000  0.4581190000000  0.4932520000000 1.0
C      1  0.4929420000000  0.5525250000000  0.5418560000000 1.0
C      1  0.5069260000000  0.5525290000000  0.4581800000000 1.0
C      1  0.5069810000000  0.4476080000000  0.5413610000000 1.0
C      1  0.5258820000000  0.4854450000000  0.5225410000000 1.0
C      1  0.5219970000000  0.5268170000000  0.4844870000000 1.0
C      1  0.4843130000000  0.5218620000000  0.5268840000000 1.0
C      1  0.5269160000000  0.5155170000000  0.4781860000000 1.0
C      1  0.4730350000000  0.5155170000000  0.5219940000000 1.0
C      1  0.4734290000000  0.4844270000000  0.4783420000000 1.0
C      1  0.5207000000000  0.4734610000000  0.5169440000000 1.0
C      1  0.4784720000000  0.4732470000000  0.4847420000000 1.0
C      1  0.4779750000000  0.5267520000000  0.5156100000000 1.0
C      1  0.4846970000000  0.4781220000000  0.4733840000000 1.0
C      1  0.5144650000000  0.4801210000000  0.5277680000000 1.0
C      1  0.5156780000000  0.5218880000000  0.4732200000000 1.0
C      1  0.4729000000000  0.4844680000000  0.5220710000000 1.0
C      1  0.4781370000000  0.5267860000000  0.4845330000000 1.0
C      1  0.5153880000000  0.5220450000000  0.5268000000000 1.0
C      1  0.4732870000000  0.5155020000000  0.4781960000000 1.0
C      1  0.5265860000000  0.5156570000000  0.5217900000000 1.0
C      1  0.5271560000000  0.4842430000000  0.4780480000000 1.0
C      1  0.4779080000000  0.4731470000000  0.5159480000000 1.0
C      1  0.5227720000000  0.4720580000000  0.4834610000000 1.0
C      1  0.5217510000000  0.5270050000000  0.5155820000000 1.0
C      1  0.5155910000000  0.4785100000000  0.4732390000000 1.0
C      1  0.4839470000000  0.4781250000000  0.5273700000000 1.0
C      1  0.4845270000000  0.5218850000000  0.4732950000000 1.0
C      1  0.4657750000000  0.4735150000000  0.5548080000000 1.0
C      1  0.5563960000000  0.4663030000000  0.4728660000000 1.0
C      1  0.4734360000000  0.5543390000000  0.4660100000000 1.0
C      1  0.4659720000000  0.5263550000000  0.4456670000000 1.0
C      1  0.5339490000000  0.5264330000000  0.5542850000000 1.0
C      1  0.5341970000000  0.4735120000000  0.4457950000000 1.0
C      1  0.5543800000000  0.5341300000000  0.5264220000000 1.0
C      1  0.4455740000000  0.5338880000000  0.4735750000000 1.0
C      1  0.4455550000000  0.4659640000000  0.5267390000000 1.0
C      1  0.4732070000000  0.4454850000000  0.5345550000000 1.0
C      1  0.5271960000000  0.4459390000000  0.4659400000000 1.0
C      1  0.5264360000000  0.5544720000000  0.5340230000000 1.0
C      1  0.5337180000000  0.4735410000000  0.5538700000000 1.0
C      1  0.4459540000000  0.4658410000000  0.4737480000000 1.0
C      1  0.5264220000000  0.5545000000000  0.4659540000000 1.0
C      1  0.5340220000000  0.5265360000000  0.4456340000000 1.0
C      1  0.4658760000000  0.5265290000000  0.5545210000000 1.0
C      1  0.4662290000000  0.4733430000000  0.4458010000000 1.0
C      1  0.4454790000000  0.5340340000000  0.5265650000000 1.0
C      1  0.5544170000000  0.5341870000000  0.4734790000000 1.0
C      1  0.5537420000000  0.4658470000000  0.5255170000000 1.0
C      1  0.5260020000000  0.4465490000000  0.5320910000000 1.0
C      1  0.4739770000000  0.4454850000000  0.4661290000000 1.0
C      1  0.4734400000000  0.5544190000000  0.5340680000000 1.0
C      1  0.5228860000000  0.4651040000000  0.5515430000000 1.0
C      1  0.5518470000000  0.5232610000000  0.4652120000000 1.0
C      1  0.4650750000000  0.5518540000000  0.5232010000000 1.0
C      1  0.5231370000000  0.5348820000000  0.4481580000000 1.0
C      1  0.4767580000000  0.5348730000000  0.5519400000000 1.0
C      1  0.4771600000000  0.4650190000000  0.4483350000000 1.0
C      1  0.5513100000000  0.4766330000000  0.5340630000000 1.0
C      1  0.4484030000000  0.4767040000000  0.4653710000000 1.0
C      1  0.4479840000000  0.5231860000000  0.5349770000000 1.0
C      1  0.4656750000000  0.4481640000000  0.4770140000000 1.0
C      1  0.5340510000000  0.4487520000000  0.5207090000000 1.0
C      1  0.5347900000000  0.5519650000000  0.4768250000000 1.0
C      1  0.4766110000000  0.4649930000000  0.5524870000000 1.0
C      1  0.4481870000000  0.5229930000000  0.4652660000000 1.0
C      1  0.5348050000000  0.5519820000000  0.5231340000000 1.0
C      1  0.4768290000000  0.5347330000000  0.4482220000000 1.0
C      1  0.5230900000000  0.5348540000000  0.5518490000000 1.0
C      1  0.5232640000000  0.4649230000000  0.4478850000000 1.0
C      1  0.4479930000000  0.4768440000000  0.5351260000000 1.0
C      1  0.5528010000000  0.4771590000000  0.4649680000000 1.0
C      1  0.5517810000000  0.5232010000000  0.5346650000000 1.0
C      1  0.5355730000000  0.4518550000000  0.4754010000000 1.0
C      1  0.4651610000000  0.4481460000000  0.5234590000000 1.0
C      1  0.4650940000000  0.5517830000000  0.4768910000000 1.0
C      1  0.5304340000000  0.5128910000000  0.5590930000000 1.0
C      1  0.5593500000000  0.5306730000000  0.5129270000000 1.0
C      1  0.5129280000000  0.5594100000000  0.5305520000000 1.0
C      1  0.5306180000000  0.4870370000000  0.4409240000000 1.0
C      1  0.4693050000000  0.4870670000000  0.5596570000000 1.0
C      1  0.4694890000000  0.5128640000000  0.4407350000000 1.0
C      1  0.5612060000000  0.4695600000000  0.4862860000000 1.0
C      1  0.4406940000000  0.4694190000000  0.5131990000000 1.0
C      1  0.4406340000000  0.5304240000000  0.4870810000000 1.0
C      1  0.5138410000000  0.4409730000000  0.4698920000000 1.0
C      1  0.4865130000000  0.4402340000000  0.5310500000000 1.0
C      1  0.4869260000000  0.5593160000000  0.4694800000000 1.0
C      1  0.4693510000000  0.5130310000000  0.5594860000000 1.0
C      1  0.4405670000000  0.5305080000000  0.5130570000000 1.0
C      1  0.4869470000000  0.5593380000000  0.5305670000000 1.0
C      1  0.4695970000000  0.4868670000000  0.4407970000000 1.0
C      1  0.5303910000000  0.4869660000000  0.5589740000000 1.0
C      1  0.5305710000000  0.5129980000000  0.4407580000000 1.0
C      1  0.4410060000000  0.4693460000000  0.4872300000000 1.0
C      1  0.5597470000000  0.4694600000000  0.5125870000000 1.0
C      1  0.5594190000000  0.5307470000000  0.4869590000000 1.0
C      1  0.4874460000000  0.4404950000000  0.4696160000000 1.0
C      1  0.5126580000000  0.4408950000000  0.5299750000000 1.0
C      1  0.5129030000000  0.5593860000000  0.4694520000000 1.0
C      1  0.5489850000000  0.4547780000000  0.4781660000000 1.0
C      1  0.4791030000000  0.5470190000000  0.4548390000000 1.0
C      1  0.4546500000000  0.4791770000000  0.5473930000000 1.0
C      1  0.5470730000000  0.5453370000000  0.5207900000000 1.0
C      1  0.4528480000000  0.5451060000000  0.4792080000000 1.0
C      1  0.4529500000000  0.4548160000000  0.5211070000000 1.0
C      1  0.4790820000000  0.4528840000000  0.5455750000000 1.0
C      1  0.5210680000000  0.4525460000000  0.4544030000000 1.0
C      1  0.5207860000000  0.5471240000000  0.5451940000000 1.0
C      1  0.4548270000000  0.5206670000000  0.4530060000000 1.0
C      1  0.5450880000000  0.5208080000000  0.5468760000000 1.0
C      1  0.5455110000000  0.4792180000000  0.4529510000000 1.0
C      1  0.4533780000000  0.4547350000000  0.4794030000000 1.0
C      1  0.5207860000000  0.5471500000000  0.4547860000000 1.0
C      1  0.5448370000000  0.4790950000000  0.5464160000000 1.0
C      1  0.4528140000000  0.5451920000000  0.5208930000000 1.0
C      1  0.5470700000000  0.5453480000000  0.4791340000000 1.0
C      1  0.5463530000000  0.4550380000000  0.5188150000000 1.0
C      1  0.5209070000000  0.4532080000000  0.5440790000000 1.0
C      1  0.4796760000000  0.4527610000000  0.4549480000000 1.0
C      1  0.4790900000000  0.5471200000000  0.5452600000000 1.0
C      1  0.5452200000000  0.5209300000000  0.4529570000000 1.0
C      1  0.4546770000000  0.5208790000000  0.5472280000000 1.0
C      1  0.4550440000000  0.4789780000000  0.4531120000000 1.0
END
