TITL C-114179-1211-11 0.0132599505210211 1000000 -1702.51229546623 0 0 240 (C1) n - 1
REM
REM in /home/chem/mssmkc/work/GAP20/Larger-Clusters/Only-C240/New/BUILD-ONLY
REM
REM
REM
REM
REM
REM ./C.cell (daee87de7206da95283bc1c1416dbc6f)
REM
REM compiler GCC version 8.3.0
REM options -cpp -mtune=generic -march=x86-64 -g -O0
REM seed -2027918623 98660920 18072451 -675762049 978023536 -600781860 -1951851082 -259046749 -1772068224 -981323500 -843676504 -583641632 1352076803 421837780 -104475139 -1848574884 884996239 -339653423 -908387640 -3137876 -317815429 635333395 888199140 -1257180633 1911086511 1249058107 -947031593 -574519389 -1472499102 1022250679 444016641 753500572 1939846842
REM
CELL 1.54180  100.00000  100.00000  100.00000   90.00000   90.00000   90.00000
LATT -1
SFAC C  
C      1  0.4754730000000  0.4637340000000  0.4606290000000 1.0
C      1  0.4653280000000  0.4429200000000  0.4653180000000 1.0
C      1  0.4567870000000  0.4614200000000  0.4770430000000 1.0
C      1  0.5246910000000  0.5359480000000  0.4575030000000 1.0
C      1  0.4787060000000  0.5504610000000  0.5369330000000 1.0
C      1  0.5216850000000  0.4668160000000  0.5421830000000 1.0
C      1  0.5455200000000  0.5412270000000  0.4847570000000 1.0
C      1  0.4628020000000  0.5506320000000  0.5213230000000 1.0
C      1  0.5325740000000  0.4566320000000  0.5221860000000 1.0
C      1  0.5424660000000  0.5224010000000  0.4647010000000 1.0
C      1  0.4656470000000  0.5295360000000  0.5342250000000 1.0
C      1  0.5420080000000  0.4774640000000  0.5324140000000 1.0
C      1  0.4631700000000  0.4696860000000  0.4660820000000 1.0
C      1  0.4615550000000  0.4478230000000  0.4778730000000 1.0
C      1  0.4774530000000  0.4495610000000  0.4631240000000 1.0
C      1  0.5313930000000  0.5235820000000  0.4549470000000 1.0
C      1  0.5315280000000  0.4774330000000  0.5422450000000 1.0
C      1  0.4773810000000  0.5367490000000  0.5406450000000 1.0
C      1  0.5416350000000  0.5350920000000  0.4726740000000 1.0
C      1  0.5424060000000  0.4671330000000  0.5222850000000 1.0
C      1  0.4597850000000  0.5364100000000  0.5224820000000 1.0
C      1  0.5315720000000  0.5424520000000  0.4671420000000 1.0
C      1  0.5222440000000  0.4563820000000  0.5322300000000 1.0
C      1  0.4663580000000  0.5561360000000  0.5336450000000 1.0
C      1  0.4656520000000  0.4385210000000  0.4883550000000 1.0
C      1  0.4479380000000  0.4904510000000  0.4660780000000 1.0
C      1  0.4842600000000  0.4711740000000  0.4520220000000 1.0
C      1  0.5369920000000  0.5525830000000  0.4892170000000 1.0
C      1  0.4664070000000  0.5600360000000  0.5108530000000 1.0
C      1  0.5326560000000  0.4454420000000  0.5123260000000 1.0
C      1  0.5524640000000  0.5120240000000  0.4679050000000 1.0
C      1  0.4603360000000  0.5163190000000  0.5372700000000 1.0
C      1  0.5530980000000  0.4874330000000  0.5322780000000 1.0
C      1  0.5125920000000  0.5413760000000  0.4533830000000 1.0
C      1  0.4868560000000  0.5321670000000  0.5508070000000 1.0
C      1  0.5114540000000  0.4671270000000  0.5529690000000 1.0
C      1  0.4461980000000  0.4651130000000  0.4862980000000 1.0
C      1  0.4885200000000  0.4408130000000  0.4663640000000 1.0
C      1  0.4596960000000  0.4831460000000  0.4612040000000 1.0
C      1  0.5567610000000  0.5361240000000  0.4920770000000 1.0
C      1  0.5536070000000  0.4677280000000  0.5124810000000 1.0
C      1  0.4504300000000  0.5298460000000  0.5135590000000 1.0
C      1  0.5087860000000  0.5536480000000  0.4616630000000 1.0
C      1  0.5128380000000  0.4447930000000  0.5318090000000 1.0
C      1  0.4895930000000  0.5593510000000  0.5333280000000 1.0
C      1  0.5388700000000  0.5072480000000  0.4433990000000 1.0
C      1  0.5303640000000  0.4876790000000  0.5530980000000 1.0
C      1  0.4645200000000  0.5089840000000  0.5492700000000 1.0
C      1  0.5580890000000  0.4679810000000  0.4782720000000 1.0
C      1  0.4669500000000  0.4750270000000  0.5547110000000 1.0
C      1  0.4757180000000  0.5628330000000  0.4662110000000 1.0
C      1  0.4417470000000  0.5335900000000  0.4802310000000 1.0
C      1  0.5600230000000  0.5320790000000  0.5256510000000 1.0
C      1  0.4416540000000  0.4651290000000  0.5201840000000 1.0
C      1  0.5302080000000  0.5220600000000  0.5576900000000 1.0
C      1  0.4655950000000  0.5230970000000  0.4401220000000 1.0
C      1  0.5277770000000  0.4763430000000  0.4410610000000 1.0
C      1  0.5227710000000  0.4419000000000  0.4682680000000 1.0
C      1  0.4786870000000  0.4391960000000  0.5317260000000 1.0
C      1  0.5238530000000  0.5605170000000  0.5318140000000 1.0
C      1  0.4670010000000  0.5623460000000  0.4766920000000 1.0
C      1  0.4771050000000  0.4658470000000  0.5554250000000 1.0
C      1  0.5581190000000  0.4776710000000  0.4684760000000 1.0
C      1  0.5325000000000  0.4421070000000  0.4779920000000 1.0
C      1  0.5340230000000  0.5605450000000  0.5227250000000 1.0
C      1  0.4685860000000  0.4382730000000  0.5225070000000 1.0
C      1  0.5206650000000  0.5320570000000  0.5575770000000 1.0
C      1  0.5172840000000  0.4678910000000  0.4418860000000 1.0
C      1  0.4730780000000  0.5346570000000  0.4387680000000 1.0
C      1  0.4416020000000  0.5243290000000  0.4699950000000 1.0
C      1  0.4419190000000  0.4759400000000  0.5288540000000 1.0
C      1  0.5586300000000  0.5214880000000  0.5342060000000 1.0
C      1  0.4911500000000  0.5150640000000  0.5693390000000 1.0
C      1  0.5178150000000  0.5693330000000  0.4917460000000 1.0
C      1  0.5732600000000  0.4934150000000  0.5173340000000 1.0
C      1  0.5040460000000  0.4830070000000  0.5719540000000 1.0
C      1  0.4884330000000  0.4893940000000  0.4362180000000 1.0
C      1  0.5050940000000  0.5216810000000  0.4356670000000 1.0
C      1  0.4852690000000  0.4228890000000  0.4943140000000 1.0
C      1  0.5179840000000  0.4250540000000  0.5062560000000 1.0
C      1  0.4854630000000  0.5760610000000  0.5045420000000 1.0
C      1  0.4255570000000  0.5018730000000  0.5117930000000 1.0
C      1  0.5712390000000  0.5063230000000  0.4852830000000 1.0
C      1  0.4291960000000  0.4935630000000  0.4837960000000 1.0
C      1  0.5138750000000  0.4935230000000  0.5721380000000 1.0
C      1  0.5725420000000  0.5163440000000  0.4956960000000 1.0
C      1  0.4958690000000  0.5756900000000  0.5146000000000 1.0
C      1  0.4811650000000  0.5046370000000  0.5689270000000 1.0
C      1  0.4850500000000  0.4980110000000  0.4268150000000 1.0
C      1  0.5145660000000  0.5110600000000  0.4373750000000 1.0
C      1  0.4277030000000  0.4815870000000  0.4917040000000 1.0
C      1  0.4332830000000  0.5123790000000  0.5091910000000 1.0
C      1  0.5732760000000  0.4834990000000  0.5068790000000 1.0
C      1  0.5076990000000  0.4246820000000  0.5163480000000 1.0
C      1  0.5074340000000  0.5698210000000  0.4816900000000 1.0
C      1  0.4955830000000  0.4236900000000  0.4841480000000 1.0
C      1  0.4836430000000  0.5756210000000  0.4908010000000 1.0
C      1  0.5721710000000  0.4927310000000  0.4828810000000 1.0
C      1  0.4903200000000  0.4808270000000  0.5710090000000 1.0
C      1  0.5197000000000  0.4255430000000  0.4924310000000 1.0
C      1  0.4833820000000  0.4231570000000  0.5081090000000 1.0
C      1  0.5198380000000  0.5728710000000  0.5053590000000 1.0
C      1  0.4291510000000  0.5075600000000  0.4842640000000 1.0
C      1  0.5734060000000  0.5071030000000  0.5195400000000 1.0
C      1  0.4260650000000  0.4890200000000  0.5150530000000 1.0
C      1  0.5047640000000  0.5174630000000  0.5709370000000 1.0
C      1  0.4919690000000  0.5215520000000  0.4279950000000 1.0
C      1  0.5024310000000  0.4870280000000  0.4341830000000 1.0
C      1  0.5729550000000  0.4820960000000  0.4930210000000 1.0
C      1  0.4939220000000  0.5740500000000  0.4802630000000 1.0
C      1  0.4796610000000  0.4908020000000  0.5700250000000 1.0
C      1  0.4310450000000  0.5166170000000  0.4956020000000 1.0
C      1  0.4263010000000  0.4781630000000  0.5050800000000 1.0
C      1  0.5740350000000  0.5178280000000  0.5096050000000 1.0
C      1  0.5093200000000  0.4250270000000  0.4822010000000 1.0
C      1  0.5096420000000  0.5746100000000  0.5159570000000 1.0
C      1  0.4939000000000  0.4241060000000  0.5182080000000 1.0
C      1  0.5152800000000  0.5073360000000  0.5718300000000 1.0
C      1  0.5136590000000  0.4965520000000  0.4333180000000 1.0
C      1  0.4823730000000  0.5108470000000  0.4265800000000 1.0
C      1  0.4858560000000  0.4298980000000  0.4750710000000 1.0
C      1  0.4364860000000  0.4744290000000  0.4826110000000 1.0
C      1  0.4677170000000  0.4895550000000  0.4505800000000 1.0
C      1  0.5149070000000  0.5600930000000  0.4731870000000 1.0
C      1  0.4864410000000  0.5695400000000  0.5239640000000 1.0
C      1  0.5162500000000  0.4329250000000  0.5250710000000 1.0
C      1  0.5644930000000  0.5253510000000  0.4874440000000 1.0
C      1  0.4441540000000  0.5176150000000  0.5175850000000 1.0
C      1  0.5653920000000  0.4746420000000  0.5156020000000 1.0
C      1  0.5274090000000  0.5148220000000  0.4444960000000 1.0
C      1  0.4729300000000  0.5129610000000  0.5598450000000 1.0
C      1  0.5231460000000  0.4847510000000  0.5648030000000 1.0
C      1  0.4376770000000  0.4858990000000  0.4744090000000 1.0
C      1  0.4756660000000  0.4289860000000  0.4850140000000 1.0
C      1  0.4797730000000  0.4832880000000  0.4460690000000 1.0
C      1  0.5626530000000  0.5152580000000  0.4775630000000 1.0
C      1  0.5651490000000  0.4844360000000  0.5256750000000 1.0
C      1  0.4496740000000  0.5103400000000  0.5288010000000 1.0
C      1  0.5255970000000  0.5596320000000  0.4835810000000 1.0
C      1  0.5263020000000  0.4332490000000  0.5152230000000 1.0
C      1  0.4761590000000  0.5698860000000  0.5140600000000 1.0
C      1  0.5053730000000  0.5350760000000  0.4427230000000 1.0
C      1  0.5136100000000  0.4744390000000  0.5647500000000 1.0
C      1  0.4828580000000  0.5230040000000  0.5603860000000 1.0
C      1  0.5351710000000  0.4441400000000  0.4987930000000 1.0
C      1  0.4454670000000  0.4968580000000  0.5301900000000 1.0
C      1  0.4927110000000  0.5405960000000  0.4401670000000 1.0
C      1  0.4650410000000  0.5599230000000  0.4970960000000 1.0
C      1  0.5384000000000  0.5568390000000  0.5025600000000 1.0
C      1  0.4646290000000  0.4388480000000  0.5021820000000 1.0
C      1  0.5547700000000  0.5008670000000  0.5352210000000 1.0
C      1  0.4450100000000  0.5041030000000  0.4654130000000 1.0
C      1  0.5545260000000  0.4981530000000  0.4652020000000 1.0
C      1  0.4971920000000  0.4671620000000  0.4480030000000 1.0
C      1  0.4979870000000  0.4642140000000  0.5539540000000 1.0
C      1  0.5002870000000  0.5353500000000  0.5536080000000 1.0
C      1  0.4466670000000  0.5349660000000  0.5008390000000 1.0
C      1  0.4993540000000  0.4426600000000  0.5340720000000 1.0
C      1  0.5364590000000  0.4943130000000  0.4424230000000 1.0
C      1  0.5552940000000  0.4654070000000  0.4989590000000 1.0
C      1  0.5592220000000  0.5374430000000  0.5056820000000 1.0
C      1  0.4441940000000  0.4612180000000  0.4997260000000 1.0
C      1  0.5033930000000  0.5587090000000  0.5343450000000 1.0
C      1  0.5022320000000  0.4422180000000  0.4655500000000 1.0
C      1  0.4957080000000  0.5588100000000  0.4608600000000 1.0
C      1  0.4653360000000  0.5026340000000  0.4452380000000 1.0
C      1  0.4632800000000  0.4953880000000  0.5518240000000 1.0
C      1  0.5325040000000  0.5012870000000  0.5546830000000 1.0
C      1  0.4348160000000  0.5117190000000  0.4719160000000 1.0
C      1  0.5045500000000  0.4735860000000  0.4373990000000 1.0
C      1  0.4709980000000  0.4296610000000  0.5110710000000 1.0
C      1  0.5650210000000  0.4901340000000  0.4709580000000 1.0
C      1  0.4346930000000  0.4882690000000  0.5262090000000 1.0
C      1  0.5657920000000  0.5093190000000  0.5313180000000 1.0
C      1  0.4851100000000  0.5335520000000  0.4305670000000 1.0
C      1  0.5080150000000  0.5294410000000  0.5641550000000 1.0
C      1  0.4885150000000  0.4687580000000  0.5638080000000 1.0
C      1  0.5319830000000  0.5673030000000  0.5097830000000 1.0
C      1  0.4707990000000  0.5697660000000  0.4884290000000 1.0
C      1  0.5308590000000  0.4338030000000  0.4897650000000 1.0
C      1  0.5116990000000  0.4328170000000  0.4705310000000 1.0
C      1  0.4698110000000  0.5105500000000  0.4339140000000 1.0
C      1  0.4338670000000  0.4666580000000  0.5080720000000 1.0
C      1  0.4890130000000  0.5691870000000  0.4679880000000 1.0
C      1  0.4909640000000  0.4317410000000  0.5297650000000 1.0
C      1  0.5122170000000  0.5683350000000  0.5285120000000 1.0
C      1  0.5259790000000  0.4893310000000  0.4345430000000 1.0
C      1  0.5273430000000  0.5099660000000  0.5649560000000 1.0
C      1  0.4681820000000  0.4872260000000  0.5625060000000 1.0
C      1  0.5684390000000  0.5302350000000  0.5137630000000 1.0
C      1  0.5657410000000  0.4702410000000  0.4902800000000 1.0
C      1  0.4361770000000  0.5291160000000  0.4930500000000 1.0
C      1  0.5459560000000  0.5131420000000  0.5361200000000 1.0
C      1  0.5128620000000  0.5369600000000  0.5454160000000 1.0
C      1  0.5384700000000  0.5483000000000  0.5151900000000 1.0
C      1  0.4541330000000  0.4842520000000  0.5314570000000 1.0
C      1  0.5460670000000  0.4855880000000  0.4641920000000 1.0
C      1  0.4535270000000  0.5162730000000  0.4644720000000 1.0
C      1  0.4867170000000  0.4627750000000  0.5440410000000 1.0
C      1  0.5103220000000  0.4642560000000  0.4549910000000 1.0
C      1  0.4814670000000  0.5400530000000  0.4503650000000 1.0
C      1  0.4641200000000  0.4494260000000  0.5127590000000 1.0
C      1  0.5356130000000  0.4537470000000  0.4872100000000 1.0
C      1  0.4636830000000  0.5500720000000  0.4861220000000 1.0
C      1  0.5143560000000  0.5485660000000  0.5353850000000 1.0
C      1  0.5343610000000  0.5133200000000  0.5458380000000 1.0
C      1  0.5489410000000  0.5373680000000  0.5166520000000 1.0
C      1  0.4872000000000  0.4515110000000  0.5341430000000 1.0
C      1  0.4828400000000  0.5507020000000  0.4609940000000 1.0
C      1  0.5123850000000  0.4530330000000  0.4651090000000 1.0
C      1  0.4641900000000  0.4837170000000  0.5424820000000 1.0
C      1  0.4634150000000  0.5156650000000  0.4530040000000 1.0
C      1  0.5353230000000  0.4833920000000  0.4528560000000 1.0
C      1  0.4535580000000  0.4605530000000  0.5117040000000 1.0
C      1  0.4541020000000  0.5380670000000  0.4879290000000 1.0
C      1  0.5460640000000  0.4645540000000  0.4870760000000 1.0
C      1  0.4743550000000  0.5185500000000  0.4633280000000 1.0
C      1  0.5149060000000  0.4641620000000  0.4757270000000 1.0
C      1  0.4649220000000  0.4707940000000  0.5127090000000 1.0
C      1  0.5251540000000  0.4833040000000  0.4646800000000 1.0
C      1  0.4750830000000  0.4821590000000  0.5317700000000 1.0
C      1  0.5249900000000  0.5164780000000  0.5341350000000 1.0
C      1  0.4830790000000  0.5397500000000  0.4717970000000 1.0
C      1  0.5169520000000  0.5376330000000  0.5248030000000 1.0
C      1  0.4850870000000  0.4616480000000  0.5229140000000 1.0
C      1  0.5373190000000  0.5271590000000  0.5161930000000 1.0
C      1  0.4656140000000  0.5286080000000  0.4841260000000 1.0
C      1  0.5348070000000  0.4747090000000  0.4851620000000 1.0
C      1  0.5143670000000  0.4741650000000  0.4658980000000 1.0
C      1  0.4652970000000  0.5186640000000  0.4741150000000 1.0
C      1  0.4747260000000  0.4606270000000  0.5134450000000 1.0
C      1  0.4827140000000  0.5296600000000  0.4620760000000 1.0
C      1  0.4851070000000  0.4724430000000  0.5322800000000 1.0
C      1  0.5156770000000  0.5270580000000  0.5339650000000 1.0
C      1  0.5349260000000  0.4839870000000  0.4747100000000 1.0
C      1  0.5358900000000  0.5163870000000  0.5251010000000 1.0
C      1  0.4652260000000  0.4817510000000  0.5214120000000 1.0
C      1  0.5276590000000  0.5374740000000  0.5156740000000 1.0
C      1  0.5248350000000  0.4644720000000  0.4856400000000 1.0
C      1  0.4744260000000  0.5394190000000  0.4828200000000 1.0
END
