TITL C-114178-678-43 -6.75800058003153 1000000 -1630.74281472111 0 0 240 (Th) n - 1
REM
REM in /home/chem/mssmkc/work/GAP20/Larger-Clusters/Only-C240/New/BUILD-ONLY
REM
REM
REM
REM
REM
REM ./C.cell (daee87de7206da95283bc1c1416dbc6f)
REM
REM compiler GCC version 8.3.0
REM options -cpp -mtune=generic -march=x86-64 -g -O0
REM seed 1908083329 -1357993342 -173122751 -767347129 -1080589042 -785743324 783476871 786921956 1828137942 1800888100 -1398481589 1480745592 -1311702282 -2018792867 -1171834990 1648274278 1774113067 -180879039 -1257690751 1004969245 -2119041429 1544004211 1932477314 -248466605 409020582 -1915792225 -519772367 403036635 -77303750 -212579118 754188172 -348773556 -1332473712
REM
CELL 1.54180  100.00000  100.00000  100.00000   90.00000   90.00000   90.00000
LATT -1
SFAC C  
C      1  0.5394060000000  0.5160630000000  0.4740340000000 1.0
C      1  0.5160410000000  0.4739870000000  0.5393840000000 1.0
C      1  0.4740200000000  0.5393930000000  0.5160740000000 1.0
C      1  0.4606170000000  0.4839580000000  0.4739860000000 1.0
C      1  0.5393690000000  0.4839020000000  0.5260010000000 1.0
C      1  0.4606080000000  0.5160770000000  0.5259790000000 1.0
C      1  0.4839240000000  0.5259820000000  0.5393910000000 1.0
C      1  0.5160990000000  0.5259990000000  0.4606300000000 1.0
C      1  0.4839360000000  0.4740320000000  0.4605950000000 1.0
C      1  0.5259660000000  0.4605950000000  0.5160660000000 1.0
C      1  0.4739990000000  0.4606300000000  0.4839030000000 1.0
C      1  0.5260150000000  0.5393820000000  0.4839570000000 1.0
C      1  0.5393830000000  0.5160420000000  0.5260140000000 1.0
C      1  0.5160760000000  0.4740180000000  0.4606090000000 1.0
C      1  0.4740340000000  0.5394050000000  0.4839340000000 1.0
C      1  0.4605940000000  0.4839370000000  0.5259660000000 1.0
C      1  0.5393920000000  0.4839230000000  0.4740210000000 1.0
C      1  0.4606310000000  0.5160980000000  0.4739980000000 1.0
C      1  0.4839590000000  0.5260130000000  0.4606160000000 1.0
C      1  0.5160640000000  0.5259680000000  0.5394050000000 1.0
C      1  0.4839010000000  0.4740010000000  0.5393700000000 1.0
C      1  0.5259800000000  0.4606070000000  0.4839260000000 1.0
C      1  0.4739850000000  0.4606180000000  0.5160430000000 1.0
C      1  0.5260010000000  0.5393700000000  0.5160970000000 1.0
C      1  0.4931000000000  0.5295610000000  0.5293380000000 1.0
C      1  0.5295860000000  0.5293190000000  0.4931250000000 1.0
C      1  0.5293130000000  0.4930750000000  0.5295800000000 1.0
C      1  0.5068740000000  0.4704160000000  0.5293210000000 1.0
C      1  0.4931000000000  0.4704450000000  0.4706560000000 1.0
C      1  0.5069260000000  0.5295780000000  0.4706860000000 1.0
C      1  0.4704200000000  0.4706870000000  0.4930750000000 1.0
C      1  0.5295540000000  0.4706550000000  0.5069020000000 1.0
C      1  0.4704400000000  0.5293400000000  0.5068990000000 1.0
C      1  0.4706610000000  0.5069020000000  0.5295590000000 1.0
C      1  0.5293450000000  0.5068990000000  0.4704460000000 1.0
C      1  0.4706810000000  0.4931250000000  0.4704140000000 1.0
C      1  0.4931260000000  0.5295840000000  0.4706790000000 1.0
C      1  0.5295800000000  0.5293130000000  0.5069250000000 1.0
C      1  0.5293390000000  0.4930980000000  0.4704410000000 1.0
C      1  0.5069000000000  0.4704390000000  0.4706620000000 1.0
C      1  0.4930740000000  0.4704220000000  0.5293140000000 1.0
C      1  0.5069000000000  0.5295550000000  0.5293440000000 1.0
C      1  0.4704140000000  0.4706810000000  0.5068750000000 1.0
C      1  0.5295600000000  0.4706600000000  0.4931010000000 1.0
C      1  0.4704460000000  0.5293450000000  0.4930980000000 1.0
C      1  0.4706870000000  0.5069250000000  0.4704200000000 1.0
C      1  0.5293190000000  0.5068750000000  0.5295860000000 1.0
C      1  0.4706550000000  0.4931010000000  0.5295540000000 1.0
C      1  0.5645620000000  0.5063300000000  0.5230480000000 1.0
C      1  0.5063490000000  0.5229890000000  0.5645810000000 1.0
C      1  0.5230430000000  0.5645560000000  0.5064040000000 1.0
C      1  0.4354180000000  0.4936510000000  0.5229860000000 1.0
C      1  0.5645770000000  0.4936120000000  0.4770090000000 1.0
C      1  0.4354440000000  0.5064060000000  0.4769570000000 1.0
C      1  0.4935930000000  0.4769600000000  0.5645570000000 1.0
C      1  0.5063870000000  0.4770060000000  0.4354240000000 1.0
C      1  0.4936710000000  0.5230450000000  0.4354370000000 1.0
C      1  0.4769510000000  0.4354380000000  0.5063320000000 1.0
C      1  0.5229910000000  0.4354230000000  0.4936170000000 1.0
C      1  0.4770140000000  0.5645820000000  0.4936470000000 1.0
C      1  0.5645820000000  0.5063490000000  0.4770140000000 1.0
C      1  0.5064070000000  0.5230400000000  0.4354430000000 1.0
C      1  0.5230490000000  0.5645620000000  0.4936680000000 1.0
C      1  0.4354380000000  0.4936700000000  0.4769520000000 1.0
C      1  0.5645560000000  0.4935940000000  0.5230430000000 1.0
C      1  0.4354230000000  0.5063880000000  0.5229910000000 1.0
C      1  0.4936510000000  0.4770110000000  0.4354190000000 1.0
C      1  0.5063290000000  0.4769550000000  0.5645630000000 1.0
C      1  0.4936130000000  0.5229940000000  0.5645760000000 1.0
C      1  0.4769570000000  0.4354440000000  0.4935960000000 1.0
C      1  0.5229860000000  0.4354180000000  0.5063530000000 1.0
C      1  0.4770090000000  0.5645770000000  0.5063830000000 1.0
C      1  0.5313750000000  0.5119260000000  0.4500940000000 1.0
C      1  0.5118840000000  0.4500570000000  0.5313330000000 1.0
C      1  0.4500830000000  0.5313650000000  0.5119100000000 1.0
C      1  0.4686700000000  0.4881140000000  0.4500560000000 1.0
C      1  0.5313200000000  0.4880460000000  0.5499340000000 1.0
C      1  0.4686360000000  0.5119140000000  0.5499160000000 1.0
C      1  0.4880880000000  0.5499180000000  0.5313620000000 1.0
C      1  0.5119560000000  0.5499320000000  0.4686780000000 1.0
C      1  0.4880720000000  0.4500930000000  0.4686280000000 1.0
C      1  0.5499060000000  0.4686260000000  0.5119300000000 1.0
C      1  0.4500660000000  0.4686800000000  0.4880450000000 1.0
C      1  0.5499440000000  0.5313300000000  0.4881150000000 1.0
C      1  0.5313300000000  0.5118860000000  0.5499440000000 1.0
C      1  0.5119120000000  0.4500820000000  0.4686380000000 1.0
C      1  0.4500940000000  0.5313740000000  0.4880700000000 1.0
C      1  0.4686250000000  0.4880740000000  0.5499060000000 1.0
C      1  0.5313640000000  0.4880860000000  0.4500840000000 1.0
C      1  0.4686800000000  0.5119540000000  0.4500660000000 1.0
C      1  0.4881160000000  0.5499430000000  0.4686670000000 1.0
C      1  0.5119280000000  0.5499070000000  0.5313720000000 1.0
C      1  0.4880440000000  0.4500680000000  0.5313220000000 1.0
C      1  0.5499170000000  0.4686350000000  0.4880900000000 1.0
C      1  0.4500560000000  0.4686700000000  0.5118850000000 1.0
C      1  0.5499340000000  0.5313200000000  0.5119550000000 1.0
C      1  0.4360510000000  0.5199980000000  0.5205500000000 1.0
C      1  0.5200150000000  0.5205870000000  0.4360690000000 1.0
C      1  0.5205340000000  0.4360350000000  0.5199610000000 1.0
C      1  0.5639300000000  0.4799860000000  0.5205920000000 1.0
C      1  0.4360520000000  0.4800590000000  0.4793930000000 1.0
C      1  0.5639660000000  0.5199570000000  0.4794660000000 1.0
C      1  0.4800420000000  0.4794630000000  0.4360350000000 1.0
C      1  0.5199400000000  0.4793950000000  0.5639490000000 1.0
C      1  0.4800030000000  0.5205550000000  0.5639480000000 1.0
C      1  0.4794490000000  0.5639500000000  0.5199940000000 1.0
C      1  0.5206080000000  0.5639470000000  0.4800570000000 1.0
C      1  0.4794100000000  0.4360690000000  0.4799880000000 1.0
C      1  0.4360700000000  0.5200140000000  0.4794080000000 1.0
C      1  0.5199580000000  0.5205370000000  0.5639650000000 1.0
C      1  0.5205510000000  0.4360500000000  0.4800060000000 1.0
C      1  0.5639490000000  0.4800020000000  0.4794500000000 1.0
C      1  0.4360340000000  0.4800430000000  0.5205340000000 1.0
C      1  0.5639480000000  0.5199410000000  0.5206070000000 1.0
C      1  0.4799850000000  0.4794130000000  0.5639310000000 1.0
C      1  0.5199970000000  0.4794450000000  0.4360520000000 1.0
C      1  0.4800600000000  0.5206050000000  0.4360510000000 1.0
C      1  0.4794660000000  0.5639650000000  0.4800390000000 1.0
C      1  0.5205900000000  0.5639310000000  0.5200120000000 1.0
C      1  0.4793920000000  0.4360530000000  0.5199430000000 1.0
C      1  0.5215170000000  0.5134080000000  0.5392680000000 1.0
C      1  0.5134410000000  0.5392390000000  0.5215500000000 1.0
C      1  0.5392570000000  0.5215060000000  0.5134590000000 1.0
C      1  0.4784480000000  0.4865610000000  0.5392380000000 1.0
C      1  0.5215400000000  0.4865730000000  0.4607510000000 1.0
C      1  0.4784950000000  0.5134580000000  0.4607420000000 1.0
C      1  0.4865400000000  0.4607440000000  0.5215070000000 1.0
C      1  0.5134250000000  0.4607490000000  0.4784620000000 1.0
C      1  0.4865940000000  0.5392680000000  0.4784810000000 1.0
C      1  0.4607310000000  0.4784830000000  0.5134070000000 1.0
C      1  0.5392500000000  0.4784590000000  0.4865760000000 1.0
C      1  0.4607620000000  0.5215520000000  0.4865580000000 1.0
C      1  0.5215520000000  0.5134390000000  0.4607620000000 1.0
C      1  0.5134600000000  0.5392560000000  0.4784930000000 1.0
C      1  0.5392690000000  0.5215170000000  0.4865930000000 1.0
C      1  0.4784830000000  0.4865920000000  0.4607320000000 1.0
C      1  0.5215050000000  0.4865420000000  0.5392580000000 1.0
C      1  0.4784600000000  0.5134270000000  0.5392490000000 1.0
C      1  0.4865590000000  0.4607610000000  0.4784500000000 1.0
C      1  0.5134060000000  0.4607320000000  0.5215190000000 1.0
C      1  0.4865750000000  0.5392510000000  0.5215380000000 1.0
C      1  0.4607430000000  0.4784940000000  0.4865410000000 1.0
C      1  0.5392380000000  0.4784480000000  0.5134420000000 1.0
C      1  0.4607500000000  0.5215410000000  0.5134240000000 1.0
C      1  0.5375710000000  0.5468920000000  0.4772120000000 1.0
C      1  0.5468720000000  0.4771410000000  0.5375520000000 1.0
C      1  0.4771720000000  0.5375320000000  0.5469040000000 1.0
C      1  0.4624490000000  0.4531260000000  0.4771410000000 1.0
C      1  0.5375090000000  0.4530750000000  0.5228220000000 1.0
C      1  0.4624710000000  0.5469070000000  0.5228250000000 1.0
C      1  0.4530940000000  0.5228300000000  0.5375280000000 1.0
C      1  0.5469260000000  0.5228180000000  0.4624900000000 1.0
C      1  0.4531070000000  0.4772120000000  0.4624300000000 1.0
C      1  0.5227860000000  0.4624310000000  0.5468950000000 1.0
C      1  0.4771810000000  0.4624890000000  0.4530760000000 1.0
C      1  0.5228610000000  0.5375480000000  0.4531260000000 1.0
C      1  0.5375510000000  0.5468740000000  0.5228590000000 1.0
C      1  0.5469060000000  0.4771700000000  0.4624720000000 1.0
C      1  0.4772140000000  0.5375690000000  0.4531050000000 1.0
C      1  0.4624290000000  0.4531080000000  0.5227880000000 1.0
C      1  0.5375290000000  0.4530930000000  0.4771750000000 1.0
C      1  0.4624910000000  0.5469250000000  0.4771780000000 1.0
C      1  0.4531280000000  0.5228590000000  0.4624480000000 1.0
C      1  0.5468930000000  0.5227880000000  0.5375700000000 1.0
C      1  0.4530740000000  0.4771820000000  0.5375100000000 1.0
C      1  0.5228280000000  0.4624680000000  0.4530960000000 1.0
C      1  0.4771390000000  0.4624520000000  0.5468740000000 1.0
C      1  0.5228190000000  0.5375110000000  0.5469240000000 1.0
C      1  0.5622630000000  0.5253380000000  0.5069580000000 1.0
C      1  0.5253440000000  0.5068840000000  0.5622690000000 1.0
C      1  0.5069370000000  0.5622420000000  0.5253960000000 1.0
C      1  0.4377310000000  0.4746570000000  0.5068820000000 1.0
C      1  0.5622470000000  0.4746070000000  0.4930970000000 1.0
C      1  0.4377590000000  0.5253990000000  0.4930620000000 1.0
C      1  0.4746010000000  0.4930660000000  0.5622410000000 1.0
C      1  0.5253930000000  0.4930930000000  0.4377540000000 1.0
C      1  0.4746630000000  0.5069560000000  0.4377360000000 1.0
C      1  0.4930410000000  0.4377380000000  0.5253410000000 1.0
C      1  0.5069040000000  0.4377520000000  0.4746100000000 1.0
C      1  0.4931190000000  0.5622680000000  0.4746530000000 1.0
C      1  0.5622690000000  0.5253430000000  0.4931180000000 1.0
C      1  0.5253990000000  0.5069340000000  0.4377590000000 1.0
C      1  0.5069590000000  0.5622620000000  0.4746590000000 1.0
C      1  0.4377370000000  0.4746620000000  0.4930420000000 1.0
C      1  0.5622410000000  0.4746010000000  0.5069380000000 1.0
C      1  0.4377530000000  0.5253930000000  0.5069030000000 1.0
C      1  0.4746560000000  0.4931160000000  0.4377310000000 1.0
C      1  0.5253370000000  0.4930440000000  0.5622640000000 1.0
C      1  0.4746070000000  0.5069070000000  0.5622460000000 1.0
C      1  0.4930630000000  0.4377580000000  0.4746040000000 1.0
C      1  0.5068810000000  0.4377320000000  0.5253470000000 1.0
C      1  0.4930960000000  0.5622480000000  0.5253900000000 1.0
C      1  0.4694090000000  0.4430610000000  0.4698380000000 1.0
C      1  0.4430360000000  0.4699120000000  0.4693840000000 1.0
C      1  0.4698860000000  0.4694570000000  0.4430100000000 1.0
C      1  0.5306170000000  0.5569630000000  0.4699110000000 1.0
C      1  0.4694330000000  0.5569660000000  0.5301350000000 1.0
C      1  0.5305400000000  0.4430100000000  0.5301170000000 1.0
C      1  0.5569920000000  0.5301120000000  0.4694590000000 1.0
C      1  0.4430350000000  0.5301390000000  0.5305650000000 1.0
C      1  0.5569380000000  0.4698370000000  0.5305920000000 1.0
C      1  0.5301650000000  0.5305880000000  0.4430610000000 1.0
C      1  0.4698630000000  0.5305700000000  0.5569630000000 1.0
C      1  0.5300870000000  0.4693850000000  0.5569660000000 1.0
C      1  0.4693830000000  0.4430370000000  0.5300890000000 1.0
C      1  0.4430080000000  0.4698880000000  0.5305410000000 1.0
C      1  0.4698350000000  0.4694120000000  0.5569390000000 1.0
C      1  0.5305910000000  0.5569390000000  0.5301620000000 1.0
C      1  0.4694600000000  0.5569900000000  0.4698830000000 1.0
C      1  0.5305670000000  0.4430340000000  0.4698650000000 1.0
C      1  0.5569640000000  0.5300880000000  0.5306160000000 1.0
C      1  0.4430620000000  0.5301630000000  0.4694080000000 1.0
C      1  0.5569650000000  0.4698610000000  0.4694350000000 1.0
C      1  0.5301140000000  0.5305430000000  0.5569900000000 1.0
C      1  0.4699130000000  0.5306150000000  0.4430340000000 1.0
C      1  0.5301370000000  0.4694300000000  0.4430370000000 1.0
C      1  0.4770970000000  0.5498760000000  0.5403540000000 1.0
C      1  0.5499100000000  0.5403320000000  0.4771320000000 1.0
C      1  0.5403120000000  0.4770560000000  0.5498900000000 1.0
C      1  0.5228670000000  0.4500920000000  0.5403350000000 1.0
C      1  0.4770890000000  0.4501450000000  0.4596250000000 1.0
C      1  0.5229470000000  0.5498870000000  0.4596850000000 1.0
C      1  0.4501110000000  0.4596860000000  0.4770550000000 1.0
C      1  0.5498530000000  0.4596240000000  0.5229130000000 1.0
C      1  0.4501260000000  0.5403580000000  0.5229000000000 1.0
C      1  0.4596430000000  0.5229050000000  0.5498730000000 1.0
C      1  0.5403770000000  0.5229090000000  0.4501460000000 1.0
C      1  0.4596670000000  0.4771310000000  0.4500910000000 1.0
C      1  0.4771330000000  0.5499080000000  0.4596650000000 1.0
C      1  0.5498890000000  0.5403140000000  0.5229450000000 1.0
C      1  0.5403570000000  0.4770950000000  0.4501270000000 1.0
C      1  0.5229030000000  0.4501240000000  0.4596460000000 1.0
C      1  0.4770530000000  0.4501130000000  0.5403150000000 1.0
C      1  0.5229110000000  0.5498550000000  0.5403750000000 1.0
C      1  0.4500900000000  0.4596680000000  0.5228680000000 1.0
C      1  0.5498740000000  0.4596420000000  0.4771000000000 1.0
C      1  0.4501470000000  0.5403760000000  0.4770870000000 1.0
C      1  0.4596880000000  0.5229440000000  0.4501100000000 1.0
C      1  0.5403330000000  0.5228690000000  0.5499090000000 1.0
C      1  0.4596230000000  0.4770910000000  0.5498540000000 1.0
END
