TITL C-111945-3168-6 2.29274916879349 1000000 -3710.57151613226 0 0 520 (C1) n - 1
REM
REM in /rds/project/t2_vol4/rds-t2-cs072/BORA/CARBON/from-Arr/AIRSS/Generating-Clusters/GAP-ML-2020/Higher-Symm/Selected-Sizes/Larger-Clusters/Only-C240
REM
REM
REM
REM
REM
REM ./C.cell (db1db5b03a21c153a00b653f6831bbfd)
REM AIRSS Version 0.9.1 bugfix July 2018 build 013d7b7c2542+ Fri, 06 Jul 2018 19:26:36 +0100
REM compiler GCC version 9.3.0
REM options -cpp -mtune=generic -march=x86-64 -g -O0
REM seed -2057268056 26730174 -1275491773 1992651070 1122442397 -421004884 1160625145 826608943 1233952688 946158362 -2022096531 1142957460 1682853735 -1780713561 -510846120 -339384568 541166321 1135945894 -1936796667 -1338011857 779765516 831869247 1263069148 278988331 -1775523017 -859115660 301938538 -1279422321 -1956857791 -503046762 280465471 374492228 363246330
REM
CELL 1.54180  100.00000  100.00000  100.00000   90.00000   90.00000   90.00000
LATT -1
SFAC C  
C      1  0.4796680000000  0.4819190000000  0.4199870000000 1.0
C      1  0.4798310000000  0.4215260000000  0.4941570000000 1.0
C      1  0.4788140000000  0.4714370000000  0.5736240000000 1.0
C      1  0.4796060000000  0.5610280000000  0.5524390000000 1.0
C      1  0.4793770000000  0.5673550000000  0.4586230000000 1.0
C      1  0.5020990000000  0.5809610000000  0.4776050000000 1.0
C      1  0.5020200000000  0.5057570000000  0.4154480000000 1.0
C      1  0.5025240000000  0.4225900000000  0.4706760000000 1.0
C      1  0.5018900000000  0.4479220000000  0.5655910000000 1.0
C      1  0.5017480000000  0.5457950000000  0.5706310000000 1.0
C      1  0.5195670000000  0.4566770000000  0.4651130000000 1.0
C      1  0.5172640000000  0.4531500000000  0.5310360000000 1.0
C      1  0.5170250000000  0.5149150000000  0.5540280000000 1.0
C      1  0.5206980000000  0.5561400000000  0.5016690000000 1.0
C      1  0.5193050000000  0.5203870000000  0.4470320000000 1.0
C      1  0.5191410000000  0.4996200000000  0.5853860000000 1.0
C      1  0.5207830000000  0.5782590000000  0.5295740000000 1.0
C      1  0.5181820000000  0.5522130000000  0.4317610000000 1.0
C      1  0.5207070000000  0.4552800000000  0.4291440000000 1.0
C      1  0.5187270000000  0.4183210000000  0.5241290000000 1.0
C      1  0.4589850000000  0.5396480000000  0.5086980000000 1.0
C      1  0.4610720000000  0.5160860000000  0.4681950000000 1.0
C      1  0.4599450000000  0.4698380000000  0.4685160000000 1.0
C      1  0.4576530000000  0.4658440000000  0.5192910000000 1.0
C      1  0.4570090000000  0.5038750000000  0.5406200000000 1.0
C      1  0.5168380000000  0.5511510000000  0.5720760000000 1.0
C      1  0.5156100000000  0.5849120000000  0.4702910000000 1.0
C      1  0.5169400000000  0.5022700000000  0.4107910000000 1.0
C      1  0.5161730000000  0.4152870000000  0.4738730000000 1.0
C      1  0.5163810000000  0.4481760000000  0.5716490000000 1.0
C      1  0.4784800000000  0.5822580000000  0.5066120000000 1.0
C      1  0.4764920000000  0.5313040000000  0.4232570000000 1.0
C      1  0.4788700000000  0.4381180000000  0.4460520000000 1.0
C      1  0.4767990000000  0.4293980000000  0.5448220000000 1.0
C      1  0.4771440000000  0.5207480000000  0.5827680000000 1.0
C      1  0.5468600000000  0.4404130000000  0.4863810000000 1.0
C      1  0.5494060000000  0.4656530000000  0.5488800000000 1.0
C      1  0.5475260000000  0.5355680000000  0.5479100000000 1.0
C      1  0.5468300000000  0.5562580000000  0.4747650000000 1.0
C      1  0.5486210000000  0.4995520000000  0.4383210000000 1.0
C      1  0.4667160000000  0.5149580000000  0.5122870000000 1.0
C      1  0.4711480000000  0.5071370000000  0.4758900000000 1.0
C      1  0.4695180000000  0.4928380000000  0.4786720000000 1.0
C      1  0.4646550000000  0.4755690000000  0.5114060000000 1.0
C      1  0.4698210000000  0.5034280000000  0.5204860000000 1.0
C      1  0.4692590000000  0.5288530000000  0.5739160000000 1.0
C      1  0.4703850000000  0.5770760000000  0.4956760000000 1.0
C      1  0.4691920000000  0.5189410000000  0.4242950000000 1.0
C      1  0.4702640000000  0.4351950000000  0.4573130000000 1.0
C      1  0.4694360000000  0.4400700000000  0.5512360000000 1.0
C      1  0.5278570000000  0.5388130000000  0.4632050000000 1.0
C      1  0.5292060000000  0.4767270000000  0.4502040000000 1.0
C      1  0.5268460000000  0.4449230000000  0.5078160000000 1.0
C      1  0.5325060000000  0.4824720000000  0.5555030000000 1.0
C      1  0.5290310000000  0.5483050000000  0.5256600000000 1.0
C      1  0.5074880000000  0.4660560000000  0.4704440000000 1.0
C      1  0.5056260000000  0.4609670000000  0.5248790000000 1.0
C      1  0.5052480000000  0.5108380000000  0.5450430000000 1.0
C      1  0.5082760000000  0.5460660000000  0.5016060000000 1.0
C      1  0.5076840000000  0.5168330000000  0.4562760000000 1.0
C      1  0.5204470000000  0.5096380000000  0.4952320000000 1.0
C      1  0.5274910000000  0.5038070000000  0.4846300000000 1.0
C      1  0.5327690000000  0.4850520000000  0.5024100000000 1.0
C      1  0.5298440000000  0.4952340000000  0.5131820000000 1.0
C      1  0.5268990000000  0.5093080000000  0.5080510000000 1.0
C      1  0.5631730000000  0.4987590000000  0.4868050000000 1.0
C      1  0.5630980000000  0.4869350000000  0.4972160000000 1.0
C      1  0.5634940000000  0.4931820000000  0.5111930000000 1.0
C      1  0.5623490000000  0.5087030000000  0.5096240000000 1.0
C      1  0.5614400000000  0.5124010000000  0.4941750000000 1.0
C      1  0.5770590000000  0.4907410000000  0.5185350000000 1.0
C      1  0.5756730000000  0.5138700000000  0.5137470000000 1.0
C      1  0.5707260000000  0.5224880000000  0.4881470000000 1.0
C      1  0.5767210000000  0.4977350000000  0.4795930000000 1.0
C      1  0.5725580000000  0.4756470000000  0.4950010000000 1.0
C      1  0.5506680000000  0.5580170000000  0.5384540000000 1.0
C      1  0.5488140000000  0.5548720000000  0.4504270000000 1.0
C      1  0.5511080000000  0.4762760000000  0.4326970000000 1.0
C      1  0.5496090000000  0.4280670000000  0.5071040000000 1.0
C      1  0.5482380000000  0.4837250000000  0.5682520000000 1.0
C      1  0.5466250000000  0.4551180000000  0.4423390000000 1.0
C      1  0.5435700000000  0.4314850000000  0.5297890000000 1.0
C      1  0.5438510000000  0.5069790000000  0.5721610000000 1.0
C      1  0.5465230000000  0.5700320000000  0.5185330000000 1.0
C      1  0.5433220000000  0.5402200000000  0.4326350000000 1.0
C      1  0.5024070000000  0.4144450000000  0.5058740000000 1.0
C      1  0.5019140000000  0.4797690000000  0.5838140000000 1.0
C      1  0.5033800000000  0.5711740000000  0.5462200000000 1.0
C      1  0.5020770000000  0.5658250000000  0.4449770000000 1.0
C      1  0.5035550000000  0.4705690000000  0.4199080000000 1.0
C      1  0.4727900000000  0.4244440000000  0.4807510000000 1.0
C      1  0.4724890000000  0.4594010000000  0.5670920000000 1.0
C      1  0.4725790000000  0.5506430000000  0.5609300000000 1.0
C      1  0.4724980000000  0.5729050000000  0.4710190000000 1.0
C      1  0.4724460000000  0.4948840000000  0.4198100000000 1.0
C      1  0.5266270000000  0.4786380000000  0.4233070000000 1.0
C      1  0.5273210000000  0.4134850000000  0.5012070000000 1.0
C      1  0.5241010000000  0.4780810000000  0.5777880000000 1.0
C      1  0.5265450000000  0.5628120000000  0.5479920000000 1.0
C      1  0.5265560000000  0.5699110000000  0.4474550000000 1.0
C      1  0.4654570000000  0.4536000000000  0.5206900000000 1.0
C      1  0.4657390000000  0.5030310000000  0.5522110000000 1.0
C      1  0.4658470000000  0.5519140000000  0.5129460000000 1.0
C      1  0.4678210000000  0.5248560000000  0.4574480000000 1.0
C      1  0.4607680000000  0.4593640000000  0.4563380000000 1.0
C      1  0.4342180000000  0.5302270000000  0.4806780000000 1.0
C      1  0.4361090000000  0.4895940000000  0.4655000000000 1.0
C      1  0.4358530000000  0.4636330000000  0.4989080000000 1.0
C      1  0.4328760000000  0.4863820000000  0.5352410000000 1.0
C      1  0.4344800000000  0.5282350000000  0.5234900000000 1.0
C      1  0.4863380000000  0.4872420000000  0.4661220000000 1.0
C      1  0.4838540000000  0.4668480000000  0.4994320000000 1.0
C      1  0.4833930000000  0.4895900000000  0.5334490000000 1.0
C      1  0.4834040000000  0.5283410000000  0.5201840000000 1.0
C      1  0.4827360000000  0.5274800000000  0.4802840000000 1.0
C      1  0.5140600000000  0.4095940000000  0.4987340000000 1.0
C      1  0.5139460000000  0.4717340000000  0.5848560000000 1.0
C      1  0.5152140000000  0.5691130000000  0.5542630000000 1.0
C      1  0.5133670000000  0.5744450000000  0.4474540000000 1.0
C      1  0.5152880000000  0.4771720000000  0.4146920000000 1.0
C      1  0.5106080000000  0.5324350000000  0.5065220000000 1.0
C      1  0.5106100000000  0.5143770000000  0.4708460000000 1.0
C      1  0.5120180000000  0.4794630000000  0.4739740000000 1.0
C      1  0.5098980000000  0.4679110000000  0.5129740000000 1.0
C      1  0.5096410000000  0.5014840000000  0.5351320000000 1.0
C      1  0.4875710000000  0.5163910000000  0.5570730000000 1.0
C      1  0.4885140000000  0.5580060000000  0.5017880000000 1.0
C      1  0.4886220000000  0.5189160000000  0.4440640000000 1.0
C      1  0.4888930000000  0.4548040000000  0.4643540000000 1.0
C      1  0.4870470000000  0.4520690000000  0.5337970000000 1.0
C      1  0.5543500000000  0.5581640000000  0.5153140000000 1.0
C      1  0.5526920000000  0.5341720000000  0.4413400000000 1.0
C      1  0.5543570000000  0.4633990000000  0.4515620000000 1.0
C      1  0.5515760000000  0.4423780000000  0.5248320000000 1.0
C      1  0.5516470000000  0.5045440000000  0.5603150000000 1.0
C      1  0.5610480000000  0.4507050000000  0.5050350000000 1.0
C      1  0.5616510000000  0.4877710000000  0.5466460000000 1.0
C      1  0.5627990000000  0.5388030000000  0.5289980000000 1.0
C      1  0.5590290000000  0.5368960000000  0.4644620000000 1.0
C      1  0.5642070000000  0.4862790000000  0.4513810000000 1.0
C      1  0.4985880000000  0.5535200000000  0.5109540000000 1.0
C      1  0.4977220000000  0.5271390000000  0.4517880000000 1.0
C      1  0.4976710000000  0.4649080000000  0.4585890000000 1.0
C      1  0.4958040000000  0.4496770000000  0.5224720000000 1.0
C      1  0.4962730000000  0.5051160000000  0.5556190000000 1.0
C      1  0.4334590000000  0.5525430000000  0.5139560000000 1.0
C      1  0.4343030000000  0.5278510000000  0.4550460000000 1.0
C      1  0.4332290000000  0.4650800000000  0.4582680000000 1.0
C      1  0.4336300000000  0.4493210000000  0.5205680000000 1.0
C      1  0.4325320000000  0.5034360000000  0.5545710000000 1.0
C      1  0.4731370000000  0.4609300000000  0.4344190000000 1.0
C      1  0.4710490000000  0.4280030000000  0.5191000000000 1.0
C      1  0.4706580000000  0.4975710000000  0.5759650000000 1.0
C      1  0.4715920000000  0.5704530000000  0.5286100000000 1.0
C      1  0.4711470000000  0.5467420000000  0.4436410000000 1.0
C      1  0.4533940000000  0.4613260000000  0.4786060000000 1.0
C      1  0.4521100000000  0.4685170000000  0.5338130000000 1.0
C      1  0.4540710000000  0.5188360000000  0.5397440000000 1.0
C      1  0.4532250000000  0.5429440000000  0.4952190000000 1.0
C      1  0.4557000000000  0.5055940000000  0.4574330000000 1.0
C      1  0.5218580000000  0.5406130000000  0.4244510000000 1.0
C      1  0.5247950000000  0.4446050000000  0.4381510000000 1.0
C      1  0.5221470000000  0.4237080000000  0.5367280000000 1.0
C      1  0.5231870000000  0.5129530000000  0.5831050000000 1.0
C      1  0.5247690000000  0.5812360000000  0.5159320000000 1.0
C      1  0.4922360000000  0.5703370000000  0.4546280000000 1.0
C      1  0.4931660000000  0.4801650000000  0.4169470000000 1.0
C      1  0.4926680000000  0.4166490000000  0.4953820000000 1.0
C      1  0.4919410000000  0.4706380000000  0.5784150000000 1.0
C      1  0.4929040000000  0.5650030000000  0.5541300000000 1.0
C      1  0.5383390000000  0.5025650000000  0.5370130000000 1.0
C      1  0.5378050000000  0.5325630000000  0.5078080000000 1.0
C      1  0.5382570000000  0.5175640000000  0.4712230000000 1.0
C      1  0.5414140000000  0.4748320000000  0.4723450000000 1.0
C      1  0.5389560000000  0.4654460000000  0.5157650000000 1.0
C      1  0.4509150000000  0.5386040000000  0.5512730000000 1.0
C      1  0.4508410000000  0.5601030000000  0.4795470000000 1.0
C      1  0.4512320000000  0.4978540000000  0.4360100000000 1.0
C      1  0.4508510000000  0.4391910000000  0.4829790000000 1.0
C      1  0.4485540000000  0.4606660000000  0.5553390000000 1.0
C      1  0.5069080000000  0.4826420000000  0.5433460000000 1.0
C      1  0.5071610000000  0.5341130000000  0.5295430000000 1.0
C      1  0.5055580000000  0.5382240000000  0.4759890000000 1.0
C      1  0.5096610000000  0.4916130000000  0.4540430000000 1.0
C      1  0.5069980000000  0.4559030000000  0.4973080000000 1.0
C      1  0.4910300000000  0.4311800000000  0.4486200000000 1.0
C      1  0.4888980000000  0.4291260000000  0.5521410000000 1.0
C      1  0.4893150000000  0.5278270000000  0.5847240000000 1.0
C      1  0.4906250000000  0.5866550000000  0.5005550000000 1.0
C      1  0.4883270000000  0.5279110000000  0.4162160000000 1.0
C      1  0.4504440000000  0.5545790000000  0.5334730000000 1.0
C      1  0.4510020000000  0.5472840000000  0.4595590000000 1.0
C      1  0.4519930000000  0.4741810000000  0.4401090000000 1.0
C      1  0.4515410000000  0.4375880000000  0.5062200000000 1.0
C      1  0.4442090000000  0.4817910000000  0.5643380000000 1.0
C      1  0.4590020000000  0.5674130000000  0.4702960000000 1.0
C      1  0.4591440000000  0.4921190000000  0.4253940000000 1.0
C      1  0.4592780000000  0.4278660000000  0.4852230000000 1.0
C      1  0.4590520000000  0.4638940000000  0.5643030000000 1.0
C      1  0.4592790000000  0.5494780000000  0.5551980000000 1.0
C      1  0.5110130000000  0.4085890000000  0.4850580000000 1.0
C      1  0.5119310000000  0.4580260000000  0.5811370000000 1.0
C      1  0.5124000000000  0.5635850000000  0.5667900000000 1.0
C      1  0.5101990000000  0.5838340000000  0.4574560000000 1.0
C      1  0.5125250000000  0.4890850000000  0.4078440000000 1.0
C      1  0.5115190000000  0.4298960000000  0.5435430000000 1.0
C      1  0.5122220000000  0.5209690000000  0.5796470000000 1.0
C      1  0.5145690000000  0.5810870000000  0.5058430000000 1.0
C      1  0.5115790000000  0.5311730000000  0.4233020000000 1.0
C      1  0.5149640000000  0.4386960000000  0.4467620000000 1.0
C      1  0.5424430000000  0.5237000000000  0.5272940000000 1.0
C      1  0.5440080000000  0.5336300000000  0.4853010000000 1.0
C      1  0.5441770000000  0.4964600000000  0.4626650000000 1.0
C      1  0.5432770000000  0.4629940000000  0.4933100000000 1.0
C      1  0.5430000000000  0.4810600000000  0.5323480000000 1.0
C      1  0.4958070000000  0.4890730000000  0.4916970000000 1.0
C      1  0.4948360000000  0.4871220000000  0.5081170000000 1.0
C      1  0.4947870000000  0.5019560000000  0.5146250000000 1.0
C      1  0.4923660000000  0.5124570000000  0.5028150000000 1.0
C      1  0.4944410000000  0.5034750000000  0.4900470000000 1.0
C      1  0.4294670000000  0.5387130000000  0.5146800000000 1.0
C      1  0.4298140000000  0.5246240000000  0.4681940000000 1.0
C      1  0.4300000000000  0.4765760000000  0.4660240000000 1.0
C      1  0.4300390000000  0.4601740000000  0.5117450000000 1.0
C      1  0.4282730000000  0.4984030000000  0.5417880000000 1.0
C      1  0.4123350000000  0.5100830000000  0.4802550000000 1.0
C      1  0.4122970000000  0.4830470000000  0.4834140000000 1.0
C      1  0.4118630000000  0.4786060000000  0.5102360000000 1.0
C      1  0.4113840000000  0.5028700000000  0.5226450000000 1.0
C      1  0.4116540000000  0.5229610000000  0.5043480000000 1.0
C      1  0.4705860000000  0.5658010000000  0.5423410000000 1.0
C      1  0.4702960000000  0.5590670000000  0.4512560000000 1.0
C      1  0.4709970000000  0.4719060000000  0.4249120000000 1.0
C      1  0.4708270000000  0.4231990000000  0.5052840000000 1.0
C      1  0.4695220000000  0.4831790000000  0.5737690000000 1.0
C      1  0.4396340000000  0.4373940000000  0.5152200000000 1.0
C      1  0.4386920000000  0.4945970000000  0.5646160000000 1.0
C      1  0.4391240000000  0.5594370000000  0.5252640000000 1.0
C      1  0.4403580000000  0.5405560000000  0.4521200000000 1.0
C      1  0.4407410000000  0.4657690000000  0.4458420000000 1.0
C      1  0.4646870000000  0.5163620000000  0.4372530000000 1.0
C      1  0.4647500000000  0.4472790000000  0.4634600000000 1.0
C      1  0.4639640000000  0.4491530000000  0.5422780000000 1.0
C      1  0.4631340000000  0.5204880000000  0.5636340000000 1.0
C      1  0.4650230000000  0.5639100000000  0.4972120000000 1.0
C      1  0.5271390000000  0.4630000000000  0.5362070000000 1.0
C      1  0.5269770000000  0.5215840000000  0.5455870000000 1.0
C      1  0.5333460000000  0.5529410000000  0.4951000000000 1.0
C      1  0.5305070000000  0.5113980000000  0.4486040000000 1.0
C      1  0.5294820000000  0.4554300000000  0.4756560000000 1.0
C      1  0.4833390000000  0.5007190000000  0.5243160000000 1.0
C      1  0.4803310000000  0.5198370000000  0.5087200000000 1.0
C      1  0.4839170000000  0.5137760000000  0.4767580000000 1.0
C      1  0.4834230000000  0.4862860000000  0.4805330000000 1.0
C      1  0.4822340000000  0.4765140000000  0.5101300000000 1.0
C      1  0.4357620000000  0.4997560000000  0.4885950000000 1.0
C      1  0.4359170000000  0.4882600000000  0.4968290000000 1.0
C      1  0.4359060000000  0.4924830000000  0.5104870000000 1.0
C      1  0.4356060000000  0.5067740000000  0.5105630000000 1.0
C      1  0.4358670000000  0.5112680000000  0.4970780000000 1.0
C      1  0.5064620000000  0.4676930000000  0.4464050000000 1.0
C      1  0.5042190000000  0.4385950000000  0.5161460000000 1.0
C      1  0.5055970000000  0.4963090000000  0.5641410000000 1.0
C      1  0.5067270000000  0.5579920000000  0.5230190000000 1.0
C      1  0.5055420000000  0.5402260000000  0.4507560000000 1.0
C      1  0.5324860000000  0.5348970000000  0.5208260000000 1.0
C      1  0.5312480000000  0.5298310000000  0.4750940000000 1.0
C      1  0.5343830000000  0.4838660000000  0.4617820000000 1.0
C      1  0.5319620000000  0.4581880000000  0.5049220000000 1.0
C      1  0.5326090000000  0.4892510000000  0.5419330000000 1.0
C      1  0.5538170000000  0.4658710000000  0.4658040000000 1.0
C      1  0.5490400000000  0.4567630000000  0.5247190000000 1.0
C      1  0.5485350000000  0.5084020000000  0.5468380000000 1.0
C      1  0.5553120000000  0.5501300000000  0.5034960000000 1.0
C      1  0.5525560000000  0.5205070000000  0.4427840000000 1.0
C      1  0.4773900000000  0.4260930000000  0.4669590000000 1.0
C      1  0.4769810000000  0.4462590000000  0.5622970000000 1.0
C      1  0.4767290000000  0.5413620000000  0.5710220000000 1.0
C      1  0.4772800000000  0.5796110000000  0.4829100000000 1.0
C      1  0.4767720000000  0.5082370000000  0.4175730000000 1.0
C      1  0.4508350000000  0.5239890000000  0.5548600000000 1.0
C      1  0.4513550000000  0.5585240000000  0.4943070000000 1.0
C      1  0.4517930000000  0.5111180000000  0.4427410000000 1.0
C      1  0.4509530000000  0.4481630000000  0.4717930000000 1.0
C      1  0.4505160000000  0.4548030000000  0.5417130000000 1.0
C      1  0.5732170000000  0.5202040000000  0.4741690000000 1.0
C      1  0.5787340000000  0.4852210000000  0.4736050000000 1.0
C      1  0.5762300000000  0.4699330000000  0.5077740000000 1.0
C      1  0.5769670000000  0.4983210000000  0.5316380000000 1.0
C      1  0.5777030000000  0.5271030000000  0.5107830000000 1.0
C      1  0.5064030000000  0.5470130000000  0.4642630000000 1.0
C      1  0.5084210000000  0.4824770000000  0.4431380000000 1.0
C      1  0.5055740000000  0.4413840000000  0.5009320000000 1.0
C      1  0.5082060000000  0.4827690000000  0.5577950000000 1.0
C      1  0.5083750000000  0.5475950000000  0.5345200000000 1.0
C      1  0.5295390000000  0.4165690000000  0.5149250000000 1.0
C      1  0.5290290000000  0.4902350000000  0.5823900000000 1.0
C      1  0.5309280000000  0.5724310000000  0.5378240000000 1.0
C      1  0.5286240000000  0.5596060000000  0.4379440000000 1.0
C      1  0.5308600000000  0.4647550000000  0.4256470000000 1.0
C      1  0.4583420000000  0.5258540000000  0.4789700000000 1.0
C      1  0.4618930000000  0.4843650000000  0.4667860000000 1.0
C      1  0.4607800000000  0.4706170000000  0.4985970000000 1.0
C      1  0.4613530000000  0.4958590000000  0.5297260000000 1.0
C      1  0.4597050000000  0.5280700000000  0.5179270000000 1.0
C      1  0.4741190000000  0.4882700000000  0.4571440000000 1.0
C      1  0.4721140000000  0.4667870000000  0.4917700000000 1.0
C      1  0.4701520000000  0.4845660000000  0.5344180000000 1.0
C      1  0.4717620000000  0.5303750000000  0.5282890000000 1.0
C      1  0.4700310000000  0.5313480000000  0.4842360000000 1.0
C      1  0.4954780000000  0.5801690000000  0.5223830000000 1.0
C      1  0.4931290000000  0.5460870000000  0.4299080000000 1.0
C      1  0.4959180000000  0.4488080000000  0.4340430000000 1.0
C      1  0.4932000000000  0.4211880000000  0.5301970000000 1.0
C      1  0.4941670000000  0.5050480000000  0.5852680000000 1.0
C      1  0.4925640000000  0.5365490000000  0.4810120000000 1.0
C      1  0.4958230000000  0.4976240000000  0.4645370000000 1.0
C      1  0.4948830000000  0.4617840000000  0.4934330000000 1.0
C      1  0.4936370000000  0.4819460000000  0.5380980000000 1.0
C      1  0.4945620000000  0.5283470000000  0.5278910000000 1.0
C      1  0.5193250000000  0.5025260000000  0.5608580000000 1.0
C      1  0.5207670000000  0.5560600000000  0.5166270000000 1.0
C      1  0.5204400000000  0.5340100000000  0.4516460000000 1.0
C      1  0.5206560000000  0.4654520000000  0.4530790000000 1.0
C      1  0.5187370000000  0.4438970000000  0.5196890000000 1.0
C      1  0.5147590000000  0.4446940000000  0.5442460000000 1.0
C      1  0.5148610000000  0.5256990000000  0.5655410000000 1.0
C      1  0.5175650000000  0.5707110000000  0.4946050000000 1.0
C      1  0.5159190000000  0.5190050000000  0.4314560000000 1.0
C      1  0.5177800000000  0.4406360000000  0.4618610000000 1.0
C      1  0.4495720000000  0.4614270000000  0.4935850000000 1.0
C      1  0.4408070000000  0.4761090000000  0.5402100000000 1.0
C      1  0.4480950000000  0.5283650000000  0.5289660000000 1.0
C      1  0.4474950000000  0.5358830000000  0.4823320000000 1.0
C      1  0.4495720000000  0.4918720000000  0.4598630000000 1.0
C      1  0.4232630000000  0.4715260000000  0.5165110000000 1.0
C      1  0.4225930000000  0.5065410000000  0.5319760000000 1.0
C      1  0.4233360000000  0.5322650000000  0.5038720000000 1.0
C      1  0.4238380000000  0.5123540000000  0.4709850000000 1.0
C      1  0.4240240000000  0.4751340000000  0.4786060000000 1.0
C      1  0.5286440000000  0.4476650000000  0.5642120000000 1.0
C      1  0.5290440000000  0.5458510000000  0.5671320000000 1.0
C      1  0.5276680000000  0.5777840000000  0.4716840000000 1.0
C      1  0.5291990000000  0.5038440000000  0.4177830000000 1.0
C      1  0.5283270000000  0.4217780000000  0.4765490000000 1.0
C      1  0.4296660000000  0.4750870000000  0.4924020000000 1.0
C      1  0.4288750000000  0.4846090000000  0.5213350000000 1.0
C      1  0.4286610000000  0.5150550000000  0.5214740000000 1.0
C      1  0.4290010000000  0.5242850000000  0.4927040000000 1.0
C      1  0.4300050000000  0.4993890000000  0.4745480000000 1.0
C      1  0.4955650000000  0.5068520000000  0.4396780000000 1.0
C      1  0.4960780000000  0.4465910000000  0.4738540000000 1.0
C      1  0.4942990000000  0.4586140000000  0.5445380000000 1.0
C      1  0.4940600000000  0.5290210000000  0.5530410000000 1.0
C      1  0.4950540000000  0.5594710000000  0.4887190000000 1.0
C      1  0.5051130000000  0.4528160000000  0.5518670000000 1.0
C      1  0.5046100000000  0.5348900000000  0.5607780000000 1.0
C      1  0.5054240000000  0.5690350000000  0.4857760000000 1.0
C      1  0.5058940000000  0.5082060000000  0.4297670000000 1.0
C      1  0.5062240000000  0.4370170000000  0.4708420000000 1.0
C      1  0.4990290000000  0.4914690000000  0.4108850000000 1.0
C      1  0.4983780000000  0.4140990000000  0.4828970000000 1.0
C      1  0.4984260000000  0.4578780000000  0.5768080000000 1.0
C      1  0.4988420000000  0.5598700000000  0.5658520000000 1.0
C      1  0.4977430000000  0.5803350000000  0.4627260000000 1.0
C      1  0.5074180000000  0.5060750000000  0.5222650000000 1.0
C      1  0.5025300000000  0.5225760000000  0.5007960000000 1.0
C      1  0.4972660000000  0.5075570000000  0.4757090000000 1.0
C      1  0.5103280000000  0.4829100000000  0.4873310000000 1.0
C      1  0.5077810000000  0.4815580000000  0.5140460000000 1.0
C      1  0.5208330000000  0.4851990000000  0.5216260000000 1.0
C      1  0.5199120000000  0.5145900000000  0.5205090000000 1.0
C      1  0.5140820000000  0.5218270000000  0.4928520000000 1.0
C      1  0.5216920000000  0.5033030000000  0.4710910000000 1.0
C      1  0.5228960000000  0.4764910000000  0.4935500000000 1.0
C      1  0.5037380000000  0.4215310000000  0.5190760000000 1.0
C      1  0.5041000000000  0.4946530000000  0.5812400000000 1.0
C      1  0.5055310000000  0.5733670000000  0.5313310000000 1.0
C      1  0.5038450000000  0.5523330000000  0.4385310000000 1.0
C      1  0.5056320000000  0.4600090000000  0.4307510000000 1.0
C      1  0.4489240000000  0.5345510000000  0.4422390000000 1.0
C      1  0.4471450000000  0.4538820000000  0.4502100000000 1.0
C      1  0.4475970000000  0.4356250000000  0.5272670000000 1.0
C      1  0.4465370000000  0.5056600000000  0.5695380000000 1.0
C      1  0.4468670000000  0.5682030000000  0.5167150000000 1.0
C      1  0.4605900000000  0.5624540000000  0.5217020000000 1.0
C      1  0.4617810000000  0.5371500000000  0.4508420000000 1.0
C      1  0.4638340000000  0.4649140000000  0.4439840000000 1.0
C      1  0.4607610000000  0.4391940000000  0.5193450000000 1.0
C      1  0.4610160000000  0.5056060000000  0.5672540000000 1.0
C      1  0.4894320000000  0.5138590000000  0.4132050000000 1.0
C      1  0.4906390000000  0.4238800000000  0.4611760000000 1.0
C      1  0.4897600000000  0.4392860000000  0.5625670000000 1.0
C      1  0.4896250000000  0.5402970000000  0.5777760000000 1.0
C      1  0.4903580000000  0.5854710000000  0.4861410000000 1.0
C      1  0.4579710000000  0.5599330000000  0.4580670000000 1.0
C      1  0.4584690000000  0.4781890000000  0.4273060000000 1.0
C      1  0.4584770000000  0.4265980000000  0.4993850000000 1.0
C      1  0.4572800000000  0.4775490000000  0.5689080000000 1.0
C      1  0.4582270000000  0.5591850000000  0.5448360000000 1.0
C      1  0.5313570000000  0.5168240000000  0.4263290000000 1.0
C      1  0.5299440000000  0.4336640000000  0.4691200000000 1.0
C      1  0.5296540000000  0.4434720000000  0.5490420000000 1.0
C      1  0.5301810000000  0.5303940000000  0.5666200000000 1.0
C      1  0.5294970000000  0.5724650000000  0.4844630000000 1.0
C      1  0.4997980000000  0.5458630000000  0.4886010000000 1.0
C      1  0.5016200000000  0.5031730000000  0.4526560000000 1.0
C      1  0.4996660000000  0.4585010000000  0.4809820000000 1.0
C      1  0.4983480000000  0.4692370000000  0.5358310000000 1.0
C      1  0.4984080000000  0.5236370000000  0.5403100000000 1.0
C      1  0.5448960000000  0.5625720000000  0.4617750000000 1.0
C      1  0.5466660000000  0.4893470000000  0.4292070000000 1.0
C      1  0.5453800000000  0.4279450000000  0.4934540000000 1.0
C      1  0.5438740000000  0.4716980000000  0.5609450000000 1.0
C      1  0.5464570000000  0.5496660000000  0.5492470000000 1.0
C      1  0.5553240000000  0.4745020000000  0.5388270000000 1.0
C      1  0.5545300000000  0.5285450000000  0.5366800000000 1.0
C      1  0.5521280000000  0.5427180000000  0.4758600000000 1.0
C      1  0.5555420000000  0.4989990000000  0.4514550000000 1.0
C      1  0.5528390000000  0.4517130000000  0.4928440000000 1.0
C      1  0.5556960000000  0.5427860000000  0.4522500000000 1.0
C      1  0.5585170000000  0.4751950000000  0.4444870000000 1.0
C      1  0.5566250000000  0.4392470000000  0.5120420000000 1.0
C      1  0.5563580000000  0.4911770000000  0.5593100000000 1.0
C      1  0.5576400000000  0.5519070000000  0.5279670000000 1.0
C      1  0.5473050000000  0.5186040000000  0.4919110000000 1.0
C      1  0.5498890000000  0.4971080000000  0.4778560000000 1.0
C      1  0.5501240000000  0.4777620000000  0.4953250000000 1.0
C      1  0.5504610000000  0.4878000000000  0.5190310000000 1.0
C      1  0.5486100000000  0.5130100000000  0.5165610000000 1.0
C      1  0.5173380000000  0.5291650000000  0.5196350000000 1.0
C      1  0.5155200000000  0.5267220000000  0.4791160000000 1.0
C      1  0.5193120000000  0.4891470000000  0.4654110000000 1.0
C      1  0.5185050000000  0.4644940000000  0.5016720000000 1.0
C      1  0.5178960000000  0.4894340000000  0.5358950000000 1.0
C      1  0.4986390000000  0.4246910000000  0.5429970000000 1.0
C      1  0.4996370000000  0.5183160000000  0.5852410000000 1.0
C      1  0.5012660000000  0.5843430000000  0.5096640000000 1.0
C      1  0.4985450000000  0.5359940000000  0.4213100000000 1.0
C      1  0.5016250000000  0.4381300000000  0.4421090000000 1.0
C      1  0.5196930000000  0.5499460000000  0.4665110000000 1.0
C      1  0.5219730000000  0.4834780000000  0.4392070000000 1.0
C      1  0.5186110000000  0.4389050000000  0.4976790000000 1.0
C      1  0.5208880000000  0.4783510000000  0.5625770000000 1.0
C      1  0.5217900000000  0.5494770000000  0.5385500000000 1.0
C      1  0.5346050000000  0.4194310000000  0.4898240000000 1.0
C      1  0.5365310000000  0.4589330000000  0.5622540000000 1.0
C      1  0.5354250000000  0.5541810000000  0.5569790000000 1.0
C      1  0.5340350000000  0.5715930000000  0.4599140000000 1.0
C      1  0.5352550000000  0.4909460000000  0.4209120000000 1.0
C      1  0.5425570000000  0.4998000000000  0.5218060000000 1.0
C      1  0.5400730000000  0.5184120000000  0.5053710000000 1.0
C      1  0.5412400000000  0.5088620000000  0.4826960000000 1.0
C      1  0.5471880000000  0.4836700000000  0.4820540000000 1.0
C      1  0.5441120000000  0.4783040000000  0.5085510000000 1.0
C      1  0.5374110000000  0.4434490000000  0.4760300000000 1.0
C      1  0.5367050000000  0.4573710000000  0.5464380000000 1.0
C      1  0.5361500000000  0.5289180000000  0.5532690000000 1.0
C      1  0.5381250000000  0.5613850000000  0.4850510000000 1.0
C      1  0.5408910000000  0.5120630000000  0.4379410000000 1.0
C      1  0.4483570000000  0.5479150000000  0.4736030000000 1.0
C      1  0.4492560000000  0.4877340000000  0.4451260000000 1.0
C      1  0.4504460000000  0.4464460000000  0.4948620000000 1.0
C      1  0.4410850000000  0.4725120000000  0.5539190000000 1.0
C      1  0.4485570000000  0.5407920000000  0.5376920000000 1.0
C      1  0.4138540000000  0.5187190000000  0.4906620000000 1.0
C      1  0.4143330000000  0.4958480000000  0.4793880000000 1.0
C      1  0.4141350000000  0.4780940000000  0.4968480000000 1.0
C      1  0.4133700000000  0.4900820000000  0.5187030000000 1.0
C      1  0.4136860000000  0.5149690000000  0.5151470000000 1.0
C      1  0.4393650000000  0.4517590000000  0.4617950000000 1.0
C      1  0.4406610000000  0.4467530000000  0.5335850000000 1.0
C      1  0.4398880000000  0.5149170000000  0.5601470000000 1.0
C      1  0.4409430000000  0.5618520000000  0.5050480000000 1.0
C      1  0.4418320000000  0.5219470000000  0.4437550000000 1.0
C      1  0.4757150000000  0.4545800000000  0.4699690000000 1.0
C      1  0.4728350000000  0.4569840000000  0.5331690000000 1.0
C      1  0.4738390000000  0.5159190000000  0.5515870000000 1.0
C      1  0.4742560000000  0.5532270000000  0.5008330000000 1.0
C      1  0.4748990000000  0.5154530000000  0.4484040000000 1.0
C      1  0.4792050000000  0.4249590000000  0.5305060000000 1.0
C      1  0.4799420000000  0.5062020000000  0.5827870000000 1.0
C      1  0.4810400000000  0.5781860000000  0.5207830000000 1.0
C      1  0.4791480000000  0.5428090000000  0.4323890000000 1.0
C      1  0.4817630000000  0.4496160000000  0.4368550000000 1.0
C      1  0.5599810000000  0.5142640000000  0.4526710000000 1.0
C      1  0.5671570000000  0.4694450000000  0.4696120000000 1.0
C      1  0.5602640000000  0.4646340000000  0.5272780000000 1.0
C      1  0.5596110000000  0.5136730000000  0.5405700000000 1.0
C      1  0.5673340000000  0.5430390000000  0.5043780000000 1.0
C      1  0.5422620000000  0.5421090000000  0.4978680000000 1.0
C      1  0.5338320000000  0.5077430000000  0.4618380000000 1.0
C      1  0.5335390000000  0.4670380000000  0.4826630000000 1.0
C      1  0.5318240000000  0.4728700000000  0.5264550000000 1.0
C      1  0.5311580000000  0.5151350000000  0.5333060000000 1.0
C      1  0.5413010000000  0.4935570000000  0.5766050000000 1.0
C      1  0.5437210000000  0.5693970000000  0.5328820000000 1.0
C      1  0.5409660000000  0.5531590000000  0.4384580000000 1.0
C      1  0.5438280000000  0.4639440000000  0.4309630000000 1.0
C      1  0.5417550000000  0.4229450000000  0.5181730000000 1.0
C      1  0.5346180000000  0.5175260000000  0.5755410000000 1.0
C      1  0.5371680000000  0.5771220000000  0.5115460000000 1.0
C      1  0.5338910000000  0.5328330000000  0.4250550000000 1.0
C      1  0.5375120000000  0.4450250000000  0.4433860000000 1.0
C      1  0.5338620000000  0.4315340000000  0.5402100000000 1.0
C      1  0.4677070000000  0.5407910000000  0.4943980000000 1.0
C      1  0.4700190000000  0.5011480000000  0.4521380000000 1.0
C      1  0.4689930000000  0.4631000000000  0.4786760000000 1.0
C      1  0.4664600000000  0.4715270000000  0.5369600000000 1.0
C      1  0.4685890000000  0.5235020000000  0.5398500000000 1.0
C      1  0.5667090000000  0.4612180000000  0.5140350000000 1.0
C      1  0.5669260000000  0.5002790000000  0.5407710000000 1.0
C      1  0.5708660000000  0.5376430000000  0.5175730000000 1.0
C      1  0.5649630000000  0.5236750000000  0.4630440000000 1.0
C      1  0.5719120000000  0.4808820000000  0.4617820000000 1.0
C      1  0.5824080000000  0.5051080000000  0.5215270000000 1.0
C      1  0.5742550000000  0.5323720000000  0.4974790000000 1.0
C      1  0.5810310000000  0.5092240000000  0.4747800000000 1.0
C      1  0.5747730000000  0.4733010000000  0.4812890000000 1.0
C      1  0.5833830000000  0.4788750000000  0.5153380000000 1.0
END
