TITL C-114181-47-49 -38.1790569447623 1000000 -1667.38436609536 0 0 240 (C1) n - 1
REM
REM in /home/chem/mssmkc/work/GAP20/Larger-Clusters/Only-C240/New/BUILD-ONLY
REM
REM
REM
REM
REM
REM ./C.cell (daee87de7206da95283bc1c1416dbc6f)
REM
REM compiler GCC version 8.3.0
REM options -cpp -mtune=generic -march=x86-64 -g -O0
REM seed 1435220283 -1287948975 -1546313012 265881772 1947004762 1904386516 -561175122 1253097153 21453598 -986618176 75694393 1364839627 -1247594531 -375479920 -1982512478 -1114959158 822219033 -1415368371 1342495489 -1142362863 -884149735 -719989465 -1663337528 345424572 -572450189 1242122115 -2101143316 -1796184688 -294706971 679663824 1105320277 -282971579 -205474080
REM
CELL 1.54180  100.00000  100.00000  100.00000   90.00000   90.00000   90.00000
LATT -1
SFAC C  
C      1  0.5069000000000  0.5338770000000  0.5671110000000 1.0
C      1  0.5287850000000  0.5589320000000  0.5069400000000 1.0
C      1  0.5610930000000  0.5076590000000  0.5299170000000 1.0
C      1  0.4924090000000  0.4720780000000  0.5644170000000 1.0
C      1  0.5051840000000  0.4695970000000  0.4339110000000 1.0
C      1  0.4966590000000  0.5340230000000  0.4342140000000 1.0
C      1  0.4688670000000  0.4352220000000  0.5078840000000 1.0
C      1  0.5291710000000  0.4379470000000  0.4916580000000 1.0
C      1  0.4686540000000  0.5618620000000  0.4931660000000 1.0
C      1  0.4408600000000  0.4914930000000  0.5294060000000 1.0
C      1  0.5637230000000  0.4878330000000  0.4712860000000 1.0
C      1  0.4380860000000  0.5061360000000  0.4686930000000 1.0
C      1  0.5108500000000  0.5302960000000  0.4366310000000 1.0
C      1  0.5291820000000  0.5596160000000  0.4923490000000 1.0
C      1  0.5653090000000  0.5022920000000  0.4689310000000 1.0
C      1  0.4907540000000  0.4725440000000  0.4348310000000 1.0
C      1  0.5071130000000  0.4718720000000  0.5648050000000 1.0
C      1  0.4919910000000  0.5339230000000  0.5676030000000 1.0
C      1  0.4679360000000  0.4354190000000  0.4930020000000 1.0
C      1  0.5312370000000  0.4359630000000  0.5064330000000 1.0
C      1  0.4690140000000  0.5610630000000  0.5079550000000 1.0
C      1  0.4401040000000  0.4916340000000  0.4694810000000 1.0
C      1  0.5610820000000  0.4930490000000  0.5317190000000 1.0
C      1  0.4382820000000  0.5059340000000  0.5302040000000 1.0
C      1  0.4618860000000  0.4552990000000  0.5219660000000 1.0
C      1  0.4522350000000  0.5190660000000  0.4507630000000 1.0
C      1  0.5190580000000  0.4597830000000  0.4530100000000 1.0
C      1  0.5425910000000  0.5399820000000  0.5153630000000 1.0
C      1  0.4529080000000  0.5463320000000  0.4799310000000 1.0
C      1  0.5444270000000  0.4551440000000  0.4825250000000 1.0
C      1  0.5467250000000  0.4810770000000  0.4541970000000 1.0
C      1  0.4601030000000  0.4843080000000  0.5437790000000 1.0
C      1  0.5460930000000  0.5186520000000  0.5465360000000 1.0
C      1  0.4790600000000  0.5443280000000  0.4497800000000 1.0
C      1  0.5207420000000  0.5416500000000  0.5467470000000 1.0
C      1  0.4837700000000  0.4550420000000  0.5478710000000 1.0
C      1  0.4621070000000  0.4549530000000  0.4786880000000 1.0
C      1  0.4517090000000  0.5182550000000  0.5484080000000 1.0
C      1  0.5163260000000  0.4544750000000  0.5485780000000 1.0
C      1  0.5464620000000  0.5437260000000  0.4816450000000 1.0
C      1  0.4523900000000  0.5454960000000  0.5186940000000 1.0
C      1  0.5403800000000  0.4528070000000  0.5236420000000 1.0
C      1  0.5415740000000  0.4825550000000  0.5454740000000 1.0
C      1  0.4581190000000  0.4853740000000  0.4541760000000 1.0
C      1  0.5465140000000  0.5165780000000  0.4590270000000 1.0
C      1  0.4773520000000  0.5427450000000  0.5483100000000 1.0
C      1  0.5183740000000  0.5448760000000  0.4546350000000 1.0
C      1  0.4824220000000  0.4559130000000  0.4512170000000 1.0
C      1  0.4825470000000  0.4322200000000  0.4922440000000 1.0
C      1  0.4338880000000  0.4909510000000  0.4826290000000 1.0
C      1  0.4927340000000  0.4861110000000  0.4297260000000 1.0
C      1  0.5163000000000  0.5668220000000  0.4924370000000 1.0
C      1  0.4824270000000  0.5668840000000  0.5079880000000 1.0
C      1  0.5169010000000  0.4315630000000  0.5072150000000 1.0
C      1  0.5704010000000  0.5037430000000  0.4827780000000 1.0
C      1  0.4318280000000  0.5054550000000  0.5170010000000 1.0
C      1  0.5682100000000  0.4915330000000  0.5191210000000 1.0
C      1  0.5088980000000  0.5170270000000  0.4312560000000 1.0
C      1  0.4921360000000  0.5197540000000  0.5720710000000 1.0
C      1  0.5072180000000  0.4850510000000  0.5710040000000 1.0
C      1  0.4834240000000  0.4321980000000  0.5070150000000 1.0
C      1  0.4342390000000  0.4907290000000  0.5165190000000 1.0
C      1  0.4922330000000  0.4852100000000  0.5706570000000 1.0
C      1  0.5160710000000  0.5659420000000  0.5074030000000 1.0
C      1  0.4820740000000  0.5675810000000  0.4931980000000 1.0
C      1  0.5155550000000  0.4334770000000  0.4927110000000 1.0
C      1  0.5682130000000  0.5063330000000  0.5171950000000 1.0
C      1  0.4316590000000  0.5057580000000  0.4819260000000 1.0
C      1  0.5691360000000  0.4891070000000  0.4848520000000 1.0
C      1  0.5069640000000  0.5197110000000  0.5717540000000 1.0
C      1  0.4946500000000  0.5201160000000  0.4287110000000 1.0
C      1  0.5072800000000  0.4836050000000  0.4290950000000 1.0
C      1  0.5174780000000  0.5064840000000  0.4336640000000 1.0
C      1  0.5076550000000  0.4335780000000  0.5174200000000 1.0
C      1  0.4314970000000  0.5149780000000  0.5069620000000 1.0
C      1  0.4842210000000  0.4969820000000  0.4305790000000 1.0
C      1  0.5163910000000  0.4952960000000  0.5697620000000 1.0
C      1  0.4820030000000  0.5101980000000  0.5704800000000 1.0
C      1  0.4919300000000  0.5649670000000  0.5178040000000 1.0
C      1  0.5061390000000  0.5665490000000  0.4830550000000 1.0
C      1  0.4916940000000  0.4338940000000  0.4817320000000 1.0
C      1  0.5664430000000  0.4810290000000  0.5104860000000 1.0
C      1  0.4368720000000  0.4815370000000  0.4921880000000 1.0
C      1  0.5689770000000  0.5145170000000  0.4913620000000 1.0
C      1  0.5170010000000  0.5101300000000  0.5702050000000 1.0
C      1  0.5060280000000  0.4360850000000  0.4830560000000 1.0
C      1  0.4314320000000  0.5152660000000  0.4919520000000 1.0
C      1  0.4831390000000  0.4954440000000  0.5692870000000 1.0
C      1  0.5180730000000  0.4919860000000  0.4313940000000 1.0
C      1  0.4835170000000  0.5117070000000  0.4295190000000 1.0
C      1  0.4912750000000  0.5665690000000  0.4829860000000 1.0
C      1  0.5066720000000  0.5642010000000  0.5172640000000 1.0
C      1  0.4930060000000  0.4339940000000  0.5169870000000 1.0
C      1  0.5673890000000  0.4806700000000  0.4957070000000 1.0
C      1  0.4368520000000  0.4812530000000  0.5069800000000 1.0
C      1  0.5673830000000  0.5145250000000  0.5061470000000 1.0
C      1  0.5232080000000  0.4914270000000  0.4698300000000 1.0
C      1  0.4942410000000  0.4699110000000  0.5210580000000 1.0
C      1  0.4630140000000  0.5309090000000  0.4929870000000 1.0
C      1  0.4763060000000  0.5123990000000  0.4663440000000 1.0
C      1  0.5207430000000  0.5092530000000  0.5331170000000 1.0
C      1  0.4758400000000  0.4976670000000  0.5335350000000 1.0
C      1  0.5052500000000  0.5300780000000  0.5347640000000 1.0
C      1  0.4909960000000  0.5335470000000  0.4658740000000 1.0
C      1  0.5056700000000  0.4707120000000  0.4684660000000 1.0
C      1  0.5321360000000  0.4703710000000  0.4963150000000 1.0
C      1  0.4735020000000  0.4667870000000  0.5057700000000 1.0
C      1  0.5311720000000  0.5237480000000  0.5028790000000 1.0
C      1  0.5261480000000  0.4969510000000  0.5353960000000 1.0
C      1  0.4934280000000  0.4724300000000  0.4746000000000 1.0
C      1  0.4631550000000  0.5298950000000  0.5058480000000 1.0
C      1  0.4767980000000  0.5111320000000  0.5323140000000 1.0
C      1  0.5297810000000  0.5035290000000  0.4687820000000 1.0
C      1  0.4738110000000  0.4992400000000  0.4645650000000 1.0
C      1  0.5038120000000  0.5332460000000  0.4688140000000 1.0
C      1  0.4920210000000  0.5310680000000  0.5349880000000 1.0
C      1  0.5082420000000  0.4697060000000  0.5216350000000 1.0
C      1  0.5308090000000  0.4670650000000  0.5089790000000 1.0
C      1  0.4738910000000  0.4690210000000  0.4924750000000 1.0
C      1  0.5289060000000  0.5198380000000  0.4899530000000 1.0
C      1  0.4832910000000  0.4645580000000  0.4821830000000 1.0
C      1  0.4737800000000  0.4886880000000  0.4740310000000 1.0
C      1  0.4843720000000  0.4811750000000  0.4678110000000 1.0
C      1  0.5210950000000  0.5282980000000  0.4811590000000 1.0
C      1  0.4729050000000  0.5297230000000  0.5159960000000 1.0
C      1  0.5197960000000  0.4619880000000  0.5168830000000 1.0
C      1  0.5358450000000  0.5120700000000  0.4792280000000 1.0
C      1  0.4679590000000  0.5187270000000  0.5236900000000 1.0
C      1  0.5275720000000  0.4863310000000  0.5257800000000 1.0
C      1  0.5141500000000  0.5234030000000  0.4694630000000 1.0
C      1  0.4829730000000  0.5214180000000  0.5403540000000 1.0
C      1  0.5159570000000  0.4784860000000  0.5303780000000 1.0
C      1  0.4833550000000  0.4619520000000  0.5150280000000 1.0
C      1  0.4755380000000  0.4870170000000  0.5241100000000 1.0
C      1  0.4866160000000  0.4792690000000  0.5295050000000 1.0
C      1  0.5222000000000  0.5258750000000  0.5137930000000 1.0
C      1  0.4726580000000  0.5316520000000  0.4827130000000 1.0
C      1  0.5233890000000  0.4708090000000  0.4851530000000 1.0
C      1  0.5277780000000  0.5158930000000  0.5224900000000 1.0
C      1  0.4680090000000  0.5205770000000  0.4747390000000 1.0
C      1  0.5296740000000  0.4818740000000  0.4781960000000 1.0
C      1  0.5141020000000  0.5200860000000  0.5405030000000 1.0
C      1  0.4825040000000  0.5236490000000  0.4597640000000 1.0
C      1  0.5149660000000  0.4807690000000  0.4628000000000 1.0
C      1  0.5177350000000  0.4474880000000  0.5372050000000 1.0
C      1  0.4501980000000  0.5316100000000  0.5150450000000 1.0
C      1  0.5317970000000  0.5119340000000  0.4555190000000 1.0
C      1  0.4836330000000  0.5442140000000  0.5334750000000 1.0
C      1  0.5135470000000  0.5462530000000  0.4680990000000 1.0
C      1  0.4819810000000  0.4490320000000  0.4625880000000 1.0
C      1  0.5434840000000  0.4677100000000  0.5181230000000 1.0
C      1  0.4602540000000  0.4697880000000  0.4845740000000 1.0
C      1  0.5522660000000  0.5316640000000  0.4800160000000 1.0
C      1  0.4709270000000  0.4905640000000  0.4513870000000 1.0
C      1  0.5284260000000  0.4880330000000  0.5480280000000 1.0
C      1  0.4631680000000  0.5205330000000  0.5549640000000 1.0
C      1  0.5133230000000  0.4566720000000  0.4673660000000 1.0
C      1  0.4499590000000  0.5324220000000  0.4838640000000 1.0
C      1  0.5349990000000  0.5200600000000  0.5538790000000 1.0
C      1  0.4829070000000  0.5470090000000  0.4658520000000 1.0
C      1  0.5140800000000  0.5424130000000  0.5318960000000 1.0
C      1  0.4828870000000  0.4483090000000  0.5362770000000 1.0
C      1  0.5457910000000  0.4684080000000  0.4877570000000 1.0
C      1  0.4605220000000  0.4690900000000  0.5144080000000 1.0
C      1  0.5448500000000  0.5267060000000  0.5109790000000 1.0
C      1  0.4732060000000  0.4890760000000  0.5463240000000 1.0
C      1  0.5350020000000  0.4804540000000  0.4478450000000 1.0
C      1  0.4636410000000  0.5220120000000  0.4442690000000 1.0
C      1  0.4628300000000  0.4804130000000  0.5230870000000 1.0
C      1  0.4734230000000  0.5308000000000  0.4508220000000 1.0
C      1  0.5226700000000  0.4581350000000  0.4782960000000 1.0
C      1  0.5416230000000  0.5183280000000  0.5226530000000 1.0
C      1  0.4542150000000  0.5229870000000  0.4729520000000 1.0
C      1  0.5431170000000  0.4784430000000  0.4773900000000 1.0
C      1  0.5240190000000  0.4732390000000  0.4539700000000 1.0
C      1  0.4837780000000  0.4787880000000  0.5434400000000 1.0
C      1  0.5242820000000  0.5277250000000  0.5479860000000 1.0
C      1  0.4724570000000  0.5444670000000  0.4758430000000 1.0
C      1  0.5223740000000  0.5388350000000  0.5204170000000 1.0
C      1  0.4757960000000  0.4544320000000  0.5252170000000 1.0
C      1  0.4617370000000  0.4809250000000  0.4754630000000 1.0
C      1  0.4732290000000  0.5287970000000  0.5484020000000 1.0
C      1  0.5262440000000  0.4534010000000  0.5269670000000 1.0
C      1  0.5454560000000  0.5210920000000  0.4725870000000 1.0
C      1  0.4543750000000  0.5220580000000  0.5257570000000 1.0
C      1  0.5404350000000  0.4791940000000  0.5268430000000 1.0
C      1  0.5177310000000  0.4779120000000  0.5444720000000 1.0
C      1  0.4803960000000  0.4797380000000  0.4544430000000 1.0
C      1  0.5217530000000  0.5223180000000  0.4573150000000 1.0
C      1  0.4738060000000  0.5420330000000  0.5230900000000 1.0
C      1  0.5234410000000  0.5418310000000  0.4781970000000 1.0
C      1  0.4753590000000  0.4558140000000  0.4733950000000 1.0
C      1  0.5300520000000  0.4910250000000  0.4396560000000 1.0
C      1  0.4928980000000  0.4396290000000  0.5305690000000 1.0
C      1  0.4387760000000  0.5277820000000  0.4923350000000 1.0
C      1  0.4706750000000  0.5118700000000  0.4366610000000 1.0
C      1  0.5290560000000  0.5098420000000  0.5620250000000 1.0
C      1  0.4724040000000  0.4958610000000  0.5596700000000 1.0
C      1  0.5063410000000  0.5542230000000  0.5279740000000 1.0
C      1  0.4912840000000  0.5579260000000  0.4711330000000 1.0
C      1  0.5061590000000  0.4438830000000  0.4705690000000 1.0
C      1  0.5573490000000  0.4703630000000  0.4962290000000 1.0
C      1  0.4482190000000  0.4719540000000  0.5066790000000 1.0
C      1  0.5581200000000  0.5254760000000  0.5045830000000 1.0
C      1  0.5277230000000  0.4954340000000  0.5607700000000 1.0
C      1  0.4920270000000  0.4405660000000  0.4684640000000 1.0
C      1  0.4387840000000  0.5274650000000  0.5068000000000 1.0
C      1  0.4700560000000  0.5100040000000  0.5621820000000 1.0
C      1  0.5290050000000  0.5053100000000  0.4425710000000 1.0
C      1  0.4721350000000  0.4975600000000  0.4384280000000 1.0
C      1  0.5056860000000  0.5580930000000  0.4713690000000 1.0
C      1  0.4920650000000  0.5551130000000  0.5287330000000 1.0
C      1  0.5075560000000  0.4392840000000  0.5309840000000 1.0
C      1  0.5559520000000  0.4708470000000  0.5104460000000 1.0
C      1  0.4482420000000  0.4722360000000  0.4924490000000 1.0
C      1  0.5606340000000  0.5263830000000  0.4903040000000 1.0
C      1  0.5507430000000  0.5165350000000  0.5340730000000 1.0
C      1  0.5142620000000  0.5408310000000  0.5583770000000 1.0
C      1  0.5322600000000  0.5482260000000  0.5152720000000 1.0
C      1  0.4524700000000  0.4843440000000  0.5328680000000 1.0
C      1  0.5522200000000  0.4810680000000  0.4664640000000 1.0
C      1  0.4461210000000  0.5165720000000  0.4626200000000 1.0
C      1  0.4854190000000  0.4674740000000  0.5527130000000 1.0
C      1  0.5125370000000  0.4615030000000  0.4415090000000 1.0
C      1  0.4885630000000  0.5425930000000  0.4404040000000 1.0
C      1  0.4624170000000  0.4432780000000  0.5163000000000 1.0
C      1  0.5329110000000  0.4482740000000  0.4829120000000 1.0
C      1  0.4635780000000  0.5541250000000  0.4824310000000 1.0
C      1  0.5578710000000  0.5100050000000  0.4609560000000 1.0
C      1  0.5187150000000  0.5333310000000  0.4477630000000 1.0
C      1  0.5345480000000  0.5499390000000  0.4830950000000 1.0
C      1  0.4513560000000  0.4842480000000  0.4655410000000 1.0
C      1  0.5505820000000  0.4847750000000  0.5359440000000 1.0
C      1  0.4461330000000  0.5163370000000  0.5362790000000 1.0
C      1  0.4829180000000  0.4682400000000  0.4457890000000 1.0
C      1  0.5146470000000  0.4668510000000  0.5535580000000 1.0
C      1  0.4841820000000  0.5410040000000  0.5595180000000 1.0
C      1  0.4606250000000  0.4436090000000  0.4855020000000 1.0
C      1  0.5383900000000  0.4419250000000  0.5160890000000 1.0
C      1  0.4642170000000  0.5520040000000  0.5176720000000 1.0
END
