TITL C-111945-3168-3 18.7048789841581 1000000 -3635.30961121532 0 0 520 (C1) n - 1
REM
REM in /rds/project/t2_vol4/rds-t2-cs072/BORA/CARBON/from-Arr/AIRSS/Generating-Clusters/GAP-ML-2020/Higher-Symm/Selected-Sizes/Larger-Clusters/Only-C240
REM
REM
REM
REM
REM
REM ./C.cell (db1db5b03a21c153a00b653f6831bbfd)
REM AIRSS Version 0.9.1 bugfix July 2018 build 013d7b7c2542+ Fri, 06 Jul 2018 19:26:36 +0100
REM compiler GCC version 9.3.0
REM options -cpp -mtune=generic -march=x86-64 -g -O0
REM seed -753256344 -214348548 -116252079 -2087306518 1499564971 -1575024588 41447778 1927963577 1126740637 -1542830640 -1906308615 218132465 1100722981 626330900 1998694483 -1617593617 -819865713 -1409086098 -1905211896 1183065243 413034461 -1309014938 -1723275342 738604063 973921382 -894884694 784684445 2060750360 1018510480 711368080 705029258 -1571514777 -1230564165
REM
CELL 1.54180  100.00000  100.00000  100.00000   90.00000   90.00000   90.00000
LATT -1
SFAC C  
C      1  0.5287540000000  0.4548060000000  0.4904510000000 1.0
C      1  0.5285120000000  0.5314160000000  0.4650330000000 1.0
C      1  0.5285160000000  0.5141470000000  0.5447110000000 1.0
C      1  0.5030110000000  0.4531020000000  0.4903630000000 1.0
C      1  0.5028170000000  0.5321260000000  0.4640560000000 1.0
C      1  0.5027800000000  0.5150090000000  0.5458980000000 1.0
C      1  0.5274130000000  0.5118760000000  0.4381630000000 1.0
C      1  0.5276420000000  0.5472120000000  0.5412110000000 1.0
C      1  0.5278250000000  0.4410330000000  0.5207450000000 1.0
C      1  0.4812220000000  0.4832400000000  0.4566090000000 1.0
C      1  0.4813640000000  0.5459290000000  0.5072600000000 1.0
C      1  0.4811670000000  0.4707700000000  0.5363360000000 1.0
C      1  0.5268380000000  0.4650900000000  0.4444170000000 1.0
C      1  0.5271330000000  0.5655900000000  0.4974930000000 1.0
C      1  0.5265580000000  0.4691980000000  0.5584530000000 1.0
C      1  0.5429410000000  0.4273490000000  0.4975410000000 1.0
C      1  0.5424250000000  0.5389820000000  0.4376680000000 1.0
C      1  0.5424630000000  0.5341570000000  0.5650500000000 1.0
C      1  0.4725040000000  0.5492080000000  0.5725750000000 1.0
C      1  0.4727840000000  0.4126890000000  0.5063200000000 1.0
C      1  0.4723700000000  0.5382650000000  0.4212400000000 1.0
C      1  0.5175780000000  0.4591630000000  0.5476580000000 1.0
C      1  0.5177040000000  0.4793440000000  0.4409530000000 1.0
C      1  0.5179590000000  0.5613440000000  0.5116190000000 1.0
C      1  0.5021330000000  0.5620040000000  0.5112280000000 1.0
C      1  0.5018080000000  0.4592620000000  0.5483720000000 1.0
C      1  0.5019050000000  0.4786030000000  0.4406680000000 1.0
C      1  0.4918140000000  0.5018060000000  0.4477440000000 1.0
C      1  0.4919820000000  0.5442950000000  0.5277710000000 1.0
C      1  0.4919360000000  0.4539070000000  0.5246770000000 1.0
C      1  0.5394540000000  0.4837200000000  0.5259120000000 1.0
C      1  0.5396020000000  0.4861470000000  0.4731580000000 1.0
C      1  0.5397450000000  0.5299660000000  0.5011070000000 1.0
C      1  0.5391860000000  0.4870350000000  0.4995610000000 1.0
C      1  0.5389040000000  0.5073390000000  0.4879140000000 1.0
C      1  0.5394280000000  0.5063160000000  0.5123410000000 1.0
C      1  0.4885830000000  0.5184930000000  0.5432230000000 1.0
C      1  0.4887420000000  0.4535160000000  0.4946320000000 1.0
C      1  0.4886010000000  0.5280780000000  0.4624340000000 1.0
C      1  0.5062660000000  0.4185650000000  0.4729060000000 1.0
C      1  0.5058530000000  0.5645120000000  0.4429180000000 1.0
C      1  0.5056440000000  0.5172010000000  0.5845780000000 1.0
C      1  0.5000040000000  0.4744280000000  0.4801880000000 1.0
C      1  0.5000450000000  0.5300960000000  0.4877220000000 1.0
C      1  0.4999080000000  0.4955810000000  0.5323580000000 1.0
C      1  0.5498880000000  0.4934480000000  0.5762130000000 1.0
C      1  0.5507610000000  0.4380380000000  0.4573450000000 1.0
C      1  0.5503140000000  0.5685230000000  0.4677580000000 1.0
C      1  0.4811640000000  0.4927880000000  0.4766600000000 1.0
C      1  0.4812550000000  0.5238480000000  0.5055140000000 1.0
C      1  0.4811600000000  0.4833950000000  0.5180570000000 1.0
C      1  0.5612470000000  0.4531510000000  0.4765760000000 1.0
C      1  0.5609230000000  0.5445880000000  0.4702740000000 1.0
C      1  0.5606520000000  0.5028700000000  0.5541550000000 1.0
C      1  0.5446490000000  0.5351670000000  0.4869590000000 1.0
C      1  0.5443610000000  0.4932750000000  0.5374790000000 1.0
C      1  0.5447200000000  0.4715780000000  0.4759660000000 1.0
C      1  0.5651460000000  0.4453330000000  0.4997350000000 1.0
C      1  0.5647400000000  0.5284050000000  0.4517020000000 1.0
C      1  0.5647290000000  0.5268900000000  0.5487800000000 1.0
C      1  0.5080430000000  0.4909060000000  0.5597140000000 1.0
C      1  0.5084080000000  0.4531720000000  0.4626240000000 1.0
C      1  0.5083370000000  0.5560150000000  0.4781400000000 1.0
C      1  0.5088110000000  0.5066000000000  0.5580380000000 1.0
C      1  0.5092030000000  0.4468330000000  0.4770650000000 1.0
C      1  0.5089610000000  0.5468030000000  0.4653440000000 1.0
C      1  0.5182490000000  0.4898790000000  0.5472750000000 1.0
C      1  0.5185380000000  0.4644940000000  0.4679460000000 1.0
C      1  0.5185160000000  0.5456580000000  0.4852140000000 1.0
C      1  0.4827600000000  0.4129680000000  0.5164180000000 1.0
C      1  0.4823310000000  0.5294020000000  0.4163690000000 1.0
C      1  0.4825560000000  0.5577700000000  0.5673220000000 1.0
C      1  0.4653590000000  0.4981680000000  0.5634980000000 1.0
C      1  0.4656490000000  0.4459440000000  0.4668380000000 1.0
C      1  0.4656100000000  0.5558790000000  0.4699260000000 1.0
C      1  0.5737500000000  0.5180030000000  0.5008720000000 1.0
C      1  0.5735520000000  0.4883020000000  0.5177300000000 1.0
C      1  0.5745910000000  0.4916650000000  0.4804050000000 1.0
C      1  0.4454490000000  0.4621820000000  0.5300730000000 1.0
C      1  0.4454920000000  0.4928050000000  0.4523740000000 1.0
C      1  0.4455500000000  0.5449450000000  0.5177150000000 1.0
C      1  0.5668080000000  0.5311700000000  0.5231450000000 1.0
C      1  0.5672330000000  0.4634160000000  0.5172080000000 1.0
C      1  0.5668180000000  0.5038690000000  0.4592590000000 1.0
C      1  0.4778760000000  0.4478040000000  0.4358860000000 1.0
C      1  0.4779700000000  0.5816980000000  0.4871060000000 1.0
C      1  0.4775380000000  0.4703410000000  0.5773660000000 1.0
C      1  0.5227850000000  0.4331770000000  0.4556840000000 1.0
C      1  0.5224910000000  0.5721310000000  0.4642340000000 1.0
C      1  0.5220590000000  0.4948700000000  0.5807330000000 1.0
C      1  0.4651030000000  0.5306480000000  0.5228530000000 1.0
C      1  0.4650820000000  0.4649750000000  0.5152060000000 1.0
C      1  0.4650420000000  0.5044170000000  0.4621550000000 1.0
C      1  0.4588280000000  0.5210960000000  0.4940020000000 1.0
C      1  0.4587940000000  0.4947440000000  0.5213540000000 1.0
C      1  0.4588130000000  0.4841930000000  0.4848250000000 1.0
C      1  0.4617510000000  0.4689770000000  0.4644560000000 1.0
C      1  0.4618010000000  0.5463300000000  0.4910280000000 1.0
C      1  0.4616030000000  0.4846660000000  0.5446910000000 1.0
C      1  0.5530730000000  0.5258420000000  0.5590060000000 1.0
C      1  0.5535600000000  0.4369980000000  0.4935140000000 1.0
C      1  0.5531110000000  0.5378000000000  0.4478710000000 1.0
C      1  0.4449370000000  0.5176220000000  0.5254980000000 1.0
C      1  0.4449710000000  0.4691380000000  0.5025550000000 1.0
C      1  0.4449460000000  0.5132640000000  0.4720900000000 1.0
C      1  0.5653740000000  0.5002530000000  0.5211050000000 1.0
C      1  0.5686730000000  0.4842730000000  0.4932090000000 1.0
C      1  0.5668750000000  0.5141680000000  0.4870000000000 1.0
C      1  0.4658370000000  0.4599430000000  0.4871850000000 1.0
C      1  0.4657610000000  0.5312310000000  0.4718030000000 1.0
C      1  0.4657060000000  0.5088870000000  0.5412210000000 1.0
C      1  0.5115280000000  0.4738510000000  0.5142090000000 1.0
C      1  0.5114100000000  0.5011430000000  0.4699600000000 1.0
C      1  0.5116990000000  0.5252850000000  0.5159830000000 1.0
C      1  0.5344600000000  0.5157600000000  0.5006980000000 1.0
C      1  0.5339910000000  0.4912850000000  0.5136700000000 1.0
C      1  0.5337680000000  0.4928940000000  0.4855310000000 1.0
C      1  0.4955110000000  0.4788200000000  0.4264050000000 1.0
C      1  0.4957790000000  0.5742540000000  0.5186070000000 1.0
C      1  0.4954480000000  0.4467360000000  0.5552500000000 1.0
C      1  0.5561840000000  0.4496050000000  0.4514530000000 1.0
C      1  0.5560650000000  0.5671710000000  0.4806110000000 1.0
C      1  0.5555140000000  0.4827680000000  0.5688810000000 1.0
C      1  0.5283000000000  0.5559000000000  0.5625320000000 1.0
C      1  0.5285110000000  0.4182400000000  0.5173650000000 1.0
C      1  0.5279940000000  0.5260920000000  0.4200770000000 1.0
C      1  0.4854780000000  0.4602910000000  0.4646360000000 1.0
C      1  0.4855010000000  0.5506340000000  0.4833340000000 1.0
C      1  0.4852620000000  0.4891430000000  0.5523030000000 1.0
C      1  0.4298680000000  0.5398060000000  0.4895840000000 1.0
C      1  0.4297530000000  0.4892120000000  0.5397360000000 1.0
C      1  0.4298390000000  0.4709960000000  0.4708450000000 1.0
C      1  0.4659410000000  0.5090680000000  0.4761770000000 1.0
C      1  0.4659710000000  0.5161890000000  0.5198510000000 1.0
C      1  0.4659580000000  0.4748140000000  0.5041810000000 1.0
C      1  0.5681920000000  0.5320760000000  0.4649690000000 1.0
C      1  0.5682440000000  0.5135070000000  0.5460190000000 1.0
C      1  0.5684950000000  0.4553560000000  0.4901270000000 1.0
C      1  0.5187810000000  0.4292040000000  0.5140340000000 1.0
C      1  0.5183170000000  0.5235800000000  0.4313210000000 1.0
C      1  0.5185900000000  0.5474420000000  0.5547620000000 1.0
C      1  0.5510920000000  0.4400930000000  0.5317240000000 1.0
C      1  0.5507040000000  0.5027770000000  0.4318790000000 1.0
C      1  0.5510590000000  0.5568300000000  0.5364240000000 1.0
C      1  0.4667580000000  0.4485820000000  0.4965120000000 1.0
C      1  0.4666100000000  0.5288210000000  0.4572960000000 1.0
C      1  0.4666090000000  0.5226470000000  0.5464090000000 1.0
C      1  0.4973780000000  0.4597830000000  0.4571840000000 1.0
C      1  0.4973750000000  0.5573510000000  0.4866460000000 1.0
C      1  0.4970800000000  0.4828910000000  0.5565720000000 1.0
C      1  0.4288510000000  0.5432970000000  0.5285450000000 1.0
C      1  0.4288640000000  0.4537070000000  0.5231180000000 1.0
C      1  0.4287060000000  0.5031230000000  0.4484510000000 1.0
C      1  0.5407550000000  0.5690820000000  0.5019890000000 1.0
C      1  0.5400480000000  0.4633760000000  0.5597550000000 1.0
C      1  0.5402670000000  0.4667320000000  0.4385630000000 1.0
C      1  0.4789410000000  0.4193750000000  0.5282690000000 1.0
C      1  0.4786040000000  0.5158980000000  0.4160890000000 1.0
C      1  0.4788840000000  0.5647770000000  0.5557750000000 1.0
C      1  0.4797980000000  0.4468000000000  0.4696870000000 1.0
C      1  0.4797540000000  0.5529890000000  0.4691600000000 1.0
C      1  0.4795140000000  0.5002310000000  0.5614360000000 1.0
C      1  0.5100460000000  0.5276490000000  0.5455630000000 1.0
C      1  0.5102910000000  0.4471880000000  0.5015350000000 1.0
C      1  0.5099210000000  0.5255120000000  0.4531570000000 1.0
C      1  0.4715670000000  0.5350730000000  0.5100370000000 1.0
C      1  0.4714790000000  0.4738590000000  0.5254800000000 1.0
C      1  0.4714900000000  0.4910780000000  0.4646870000000 1.0
C      1  0.5804970000000  0.5045140000000  0.4999310000000 1.0
C      1  0.5773580000000  0.4907690000000  0.5043810000000 1.0
C      1  0.5780710000000  0.5038730000000  0.4858240000000 1.0
C      1  0.4877040000000  0.5364430000000  0.4845750000000 1.0
C      1  0.4875760000000  0.4951690000000  0.5394120000000 1.0
C      1  0.4877300000000  0.4684470000000  0.4763060000000 1.0
C      1  0.5605590000000  0.4689720000000  0.4756910000000 1.0
C      1  0.5604470000000  0.5368890000000  0.4845430000000 1.0
C      1  0.5602700000000  0.4940960000000  0.5403030000000 1.0
C      1  0.4853290000000  0.4593570000000  0.5730580000000 1.0
C      1  0.4856180000000  0.4570780000000  0.4285750000000 1.0
C      1  0.4857560000000  0.5834080000000  0.4987780000000 1.0
C      1  0.4802240000000  0.4648770000000  0.4879650000000 1.0
C      1  0.4801640000000  0.5281350000000  0.4756460000000 1.0
C      1  0.4801060000000  0.5070750000000  0.5366420000000 1.0
C      1  0.4695760000000  0.5270990000000  0.5751710000000 1.0
C      1  0.4698950000000  0.4215170000000  0.4859420000000 1.0
C      1  0.4695760000000  0.5515350000000  0.4391160000000 1.0
C      1  0.5469340000000  0.5591370000000  0.5225430000000 1.0
C      1  0.5466820000000  0.4508940000000  0.5406030000000 1.0
C      1  0.5465600000000  0.4896620000000  0.4369490000000 1.0
C      1  0.4957900000000  0.4879290000000  0.4522080000000 1.0
C      1  0.4959910000000  0.5473460000000  0.5135240000000 1.0
C      1  0.4957950000000  0.4646780000000  0.5344990000000 1.0
C      1  0.5205270000000  0.4647970000000  0.5344490000000 1.0
C      1  0.5205610000000  0.4880140000000  0.4523870000000 1.0
C      1  0.5208400000000  0.5470970000000  0.5133760000000 1.0
C      1  0.5288230000000  0.5118740000000  0.4172590000000 1.0
C      1  0.5292100000000  0.5653530000000  0.5515740000000 1.0
C      1  0.5292280000000  0.4228320000000  0.5311060000000 1.0
C      1  0.5105070000000  0.4322600000000  0.4776540000000 1.0
C      1  0.5101990000000  0.5535840000000  0.4523950000000 1.0
C      1  0.5099760000000  0.5144470000000  0.5703570000000 1.0
C      1  0.5659320000000  0.5408540000000  0.4981300000000 1.0
C      1  0.5656850000000  0.4799790000000  0.5384640000000 1.0
C      1  0.5655560000000  0.4772310000000  0.4639090000000 1.0
C      1  0.4620330000000  0.4337170000000  0.5390330000000 1.0
C      1  0.4618890000000  0.4992720000000  0.4232050000000 1.0
C      1  0.4621070000000  0.5669390000000  0.5378820000000 1.0
C      1  0.5162100000000  0.4476030000000  0.5665360000000 1.0
C      1  0.5163180000000  0.4686940000000  0.4215320000000 1.0
C      1  0.5166780000000  0.5834610000000  0.5122220000000 1.0
C      1  0.4649170000000  0.4498120000000  0.4423020000000 1.0
C      1  0.4650210000000  0.5751210000000  0.4856450000000 1.0
C      1  0.4646490000000  0.4749260000000  0.5723190000000 1.0
C      1  0.4510250000000  0.4599790000000  0.5156960000000 1.0
C      1  0.4509700000000  0.5064360000000  0.4576010000000 1.0
C      1  0.4510240000000  0.5335910000000  0.5268640000000 1.0
C      1  0.5363180000000  0.5651690000000  0.4629510000000 1.0
C      1  0.5359480000000  0.4993620000000  0.5754230000000 1.0
C      1  0.5366510000000  0.4355880000000  0.4624440000000 1.0
C      1  0.4495110000000  0.4399320000000  0.5392220000000 1.0
C      1  0.4494110000000  0.4959430000000  0.4285630000000 1.0
C      1  0.4495960000000  0.5640050000000  0.5323720000000 1.0
C      1  0.4832190000000  0.4343740000000  0.5059120000000 1.0
C      1  0.4829760000000  0.5278460000000  0.4401970000000 1.0
C      1  0.4830620000000  0.5378560000000  0.5541370000000 1.0
C      1  0.5312630000000  0.5126410000000  0.4517140000000 1.0
C      1  0.5314690000000  0.5350440000000  0.5350980000000 1.0
C      1  0.5315790000000  0.4525210000000  0.5134210000000 1.0
C      1  0.4390860000000  0.4889280000000  0.5506640000000 1.0
C      1  0.4392200000000  0.4616790000000  0.4651570000000 1.0
C      1  0.4392500000000  0.5494130000000  0.4843990000000 1.0
C      1  0.4739550000000  0.4880820000000  0.4882820000000 1.0
C      1  0.4739990000000  0.5161960000000  0.4956010000000 1.0
C      1  0.4739540000000  0.4957970000000  0.5163170000000 1.0
C      1  0.4313000000000  0.4658630000000  0.5290210000000 1.0
C      1  0.4313140000000  0.4919610000000  0.4560010000000 1.0
C      1  0.4313780000000  0.5422410000000  0.5151010000000 1.0
C      1  0.4256100000000  0.5099410000000  0.5101270000000 1.0
C      1  0.4256220000000  0.4862940000000  0.5036030000000 1.0
C      1  0.4256170000000  0.5037710000000  0.4863960000000 1.0
C      1  0.5121640000000  0.4881780000000  0.5326170000000 1.0
C      1  0.5122570000000  0.4779880000000  0.4736470000000 1.0
C      1  0.5123080000000  0.5339230000000  0.4940840000000 1.0
C      1  0.5216390000000  0.5249210000000  0.5376670000000 1.0
C      1  0.5217990000000  0.4555410000000  0.5033380000000 1.0
C      1  0.5214970000000  0.5198990000000  0.4593330000000 1.0
C      1  0.5035130000000  0.4245250000000  0.5311310000000 1.0
C      1  0.5031670000000  0.5108470000000  0.4189120000000 1.0
C      1  0.5034960000000  0.5646090000000  0.5499630000000 1.0
C      1  0.5375580000000  0.5061160000000  0.5351560000000 1.0
C      1  0.5376670000000  0.4670970000000  0.4881950000000 1.0
C      1  0.5374040000000  0.5271070000000  0.4769630000000 1.0
C      1  0.4747440000000  0.5155930000000  0.4401360000000 1.0
C      1  0.4748900000000  0.5440800000000  0.5435380000000 1.0
C      1  0.4749330000000  0.4403690000000  0.5165420000000 1.0
C      1  0.5093580000000  0.4729700000000  0.5289350000000 1.0
C      1  0.5093350000000  0.4886770000000  0.4621710000000 1.0
C      1  0.5095600000000  0.5383340000000  0.5091170000000 1.0
C      1  0.4787440000000  0.5488040000000  0.4281210000000 1.0
C      1  0.4787880000000  0.5379680000000  0.5783010000000 1.0
C      1  0.4791530000000  0.4134360000000  0.4937650000000 1.0
C      1  0.4786750000000  0.5090250000000  0.5217420000000 1.0
C      1  0.4786740000000  0.4767950000000  0.4970740000000 1.0
C      1  0.4786630000000  0.5142730000000  0.4814100000000 1.0
C      1  0.4728510000000  0.4423760000000  0.5416030000000 1.0
C      1  0.4727860000000  0.4927600000000  0.4293400000000 1.0
C      1  0.4729850000000  0.5647710000000  0.5291790000000 1.0
C      1  0.4264080000000  0.4795950000000  0.5293480000000 1.0
C      1  0.4264290000000  0.4847890000000  0.4677230000000 1.0
C      1  0.4264740000000  0.5356140000000  0.5030780000000 1.0
C      1  0.4792970000000  0.5182520000000  0.5697810000000 1.0
C      1  0.4796820000000  0.4306030000000  0.4811270000000 1.0
C      1  0.4793800000000  0.5512180000000  0.4493890000000 1.0
C      1  0.5399050000000  0.5698140000000  0.5162110000000 1.0
C      1  0.5394440000000  0.4508780000000  0.5529210000000 1.0
C      1  0.5395060000000  0.4788240000000  0.4309350000000 1.0
C      1  0.4804150000000  0.4406720000000  0.4933230000000 1.0
C      1  0.4802010000000  0.5355930000000  0.4519750000000 1.0
C      1  0.4801920000000  0.5238060000000  0.5549600000000 1.0
C      1  0.4936780000000  0.5471850000000  0.4269490000000 1.0
C      1  0.4937260000000  0.5397130000000  0.5775020000000 1.0
C      1  0.4940980000000  0.4133530000000  0.4957630000000 1.0
C      1  0.4713660000000  0.4785880000000  0.4301120000000 1.0
C      1  0.4715750000000  0.5712120000000  0.5165550000000 1.0
C      1  0.4713100000000  0.4500700000000  0.5535040000000 1.0
C      1  0.4995940000000  0.4535550000000  0.4323500000000 1.0
C      1  0.4997080000000  0.5819340000000  0.4937990000000 1.0
C      1  0.4992650000000  0.4643890000000  0.5743350000000 1.0
C      1  0.4831180000000  0.5028830000000  0.4347970000000 1.0
C      1  0.4833240000000  0.5550010000000  0.5351950000000 1.0
C      1  0.4832850000000  0.4420960000000  0.5301910000000 1.0
C      1  0.4784650000000  0.4931130000000  0.5810560000000 1.0
C      1  0.4788680000000  0.4332970000000  0.4537700000000 1.0
C      1  0.4788380000000  0.5735480000000  0.4655450000000 1.0
C      1  0.5406670000000  0.4881880000000  0.5517950000000 1.0
C      1  0.5410150000000  0.4615760000000  0.4643620000000 1.0
C      1  0.5410680000000  0.5501670000000  0.4844430000000 1.0
C      1  0.5507040000000  0.5615920000000  0.4932720000000 1.0
C      1  0.5500610000000  0.4744070000000  0.5580250000000 1.0
C      1  0.5503390000000  0.4629360000000  0.4490840000000 1.0
C      1  0.5129300000000  0.5320720000000  0.4413000000000 1.0
C      1  0.5130030000000  0.5346650000000  0.5571780000000 1.0
C      1  0.5133280000000  0.4336410000000  0.5017640000000 1.0
C      1  0.4651480000000  0.5124490000000  0.4202600000000 1.0
C      1  0.4654030000000  0.5629450000000  0.5507560000000 1.0
C      1  0.4654320000000  0.4245790000000  0.5291510000000 1.0
C      1  0.4890970000000  0.5071860000000  0.4210410000000 1.0
C      1  0.4893990000000  0.5647340000000  0.5457610000000 1.0
C      1  0.4893950000000  0.4280810000000  0.5332960000000 1.0
C      1  0.4883010000000  0.5194960000000  0.5177740000000 1.0
C      1  0.4882320000000  0.4750050000000  0.5081790000000 1.0
C      1  0.4881940000000  0.5055740000000  0.4742760000000 1.0
C      1  0.4868240000000  0.4587460000000  0.5104140000000 1.0
C      1  0.4867110000000  0.5117600000000  0.4590660000000 1.0
C      1  0.4867980000000  0.5295660000000  0.5307490000000 1.0
C      1  0.4953060000000  0.5339580000000  0.4211010000000 1.0
C      1  0.4954780000000  0.5513070000000  0.5688980000000 1.0
C      1  0.4957210000000  0.4149370000000  0.5101000000000 1.0
C      1  0.4560090000000  0.4695180000000  0.5616750000000 1.0
C      1  0.4562080000000  0.4617040000000  0.4428890000000 1.0
C      1  0.4563120000000  0.5686380000000  0.4956120000000 1.0
C      1  0.5019350000000  0.5089580000000  0.4761000000000 1.0
C      1  0.5020660000000  0.5162110000000  0.5197960000000 1.0
C      1  0.5019980000000  0.4750500000000  0.5043660000000 1.0
C      1  0.4612550000000  0.4213580000000  0.5067370000000 1.0
C      1  0.4609320000000  0.5335320000000  0.4286280000000 1.0
C      1  0.4610490000000  0.5451900000000  0.5647900000000 1.0
C      1  0.5570290000000  0.4751460000000  0.4528550000000 1.0
C      1  0.5576820000000  0.5519680000000  0.5020070000000 1.0
C      1  0.5570110000000  0.4714650000000  0.5456360000000 1.0
C      1  0.5477720000000  0.5334950000000  0.5127050000000 1.0
C      1  0.5486510000000  0.4729150000000  0.5233050000000 1.0
C      1  0.5479550000000  0.4939110000000  0.4642640000000 1.0
C      1  0.4998640000000  0.4777840000000  0.5807980000000 1.0
C      1  0.5002810000000  0.4412790000000  0.4407660000000 1.0
C      1  0.5003190000000  0.5808350000000  0.4789690000000 1.0
C      1  0.5214620000000  0.4951470000000  0.5211200000000 1.0
C      1  0.5214150000000  0.4845310000000  0.4853260000000 1.0
C      1  0.5217100000000  0.5205240000000  0.4937980000000 1.0
C      1  0.4355940000000  0.5139690000000  0.5373770000000 1.0
C      1  0.4356740000000  0.4606570000000  0.4934500000000 1.0
C      1  0.4356200000000  0.5253820000000  0.4693190000000 1.0
C      1  0.4273130000000  0.5284550000000  0.4805360000000 1.0
C      1  0.4272600000000  0.5027210000000  0.5344170000000 1.0
C      1  0.4273360000000  0.4688430000000  0.4851950000000 1.0
C      1  0.4596690000000  0.5446700000000  0.4758140000000 1.0
C      1  0.4595230000000  0.4986980000000  0.5508040000000 1.0
C      1  0.4597000000000  0.4566740000000  0.4735510000000 1.0
C      1  0.5045240000000  0.4682840000000  0.4917220000000 1.0
C      1  0.5044120000000  0.5233150000000  0.4764970000000 1.0
C      1  0.5043950000000  0.5086580000000  0.5320450000000 1.0
C      1  0.4601190000000  0.4824740000000  0.4701250000000 1.0
C      1  0.4601690000000  0.5346750000000  0.4998750000000 1.0
C      1  0.4600710000000  0.4828630000000  0.5301680000000 1.0
C      1  0.4867730000000  0.5807450000000  0.4747290000000 1.0
C      1  0.4863250000000  0.4815250000000  0.5827550000000 1.0
C      1  0.4867530000000  0.4376360000000  0.4429390000000 1.0
C      1  0.5685110000000  0.4488120000000  0.5144070000000 1.0
C      1  0.5682000000000  0.5137500000000  0.4478290000000 1.0
C      1  0.5680520000000  0.5369410000000  0.5372570000000 1.0
C      1  0.5395550000000  0.4326680000000  0.5252560000000 1.0
C      1  0.5391270000000  0.5120880000000  0.4286530000000 1.0
C      1  0.5394270000000  0.5552070000000  0.5461290000000 1.0
C      1  0.5627840000000  0.4417720000000  0.5247020000000 1.0
C      1  0.5623830000000  0.5080130000000  0.4368480000000 1.0
C      1  0.5624950000000  0.5494260000000  0.5380200000000 1.0
C      1  0.5490520000000  0.4467290000000  0.4825570000000 1.0
C      1  0.5486920000000  0.5422680000000  0.4620580000000 1.0
C      1  0.5485310000000  0.5113440000000  0.5560520000000 1.0
C      1  0.4213510000000  0.4804850000000  0.4902950000000 1.0
C      1  0.4213390000000  0.5182150000000  0.4880570000000 1.0
C      1  0.4213100000000  0.5013010000000  0.5217840000000 1.0
C      1  0.5164600000000  0.4344780000000  0.5499810000000 1.0
C      1  0.5163760000000  0.4895770000000  0.4183300000000 1.0
C      1  0.5167640000000  0.5756730000000  0.5318230000000 1.0
C      1  0.5530780000000  0.5275810000000  0.5239400000000 1.0
C      1  0.5535990000000  0.4654810000000  0.5128630000000 1.0
C      1  0.5532220000000  0.5064990000000  0.4627810000000 1.0
C      1  0.5165900000000  0.4262360000000  0.5386840000000 1.0
C      1  0.5162880000000  0.5034770000000  0.4166580000000 1.0
C      1  0.5166760000000  0.5701540000000  0.5446700000000 1.0
C      1  0.5054230000000  0.5240110000000  0.4231860000000 1.0
C      1  0.5056680000000  0.5543210000000  0.5592320000000 1.0
C      1  0.5058420000000  0.4217890000000  0.5175980000000 1.0
C      1  0.4658220000000  0.4890800000000  0.5742480000000 1.0
C      1  0.4661390000000  0.4411030000000  0.4536190000000 1.0
C      1  0.4661640000000  0.5697360000000  0.4724240000000 1.0
C      1  0.4361380000000  0.4421090000000  0.5204840000000 1.0
C      1  0.4360060000000  0.5112030000000  0.4397680000000 1.0
C      1  0.4361210000000  0.5467570000000  0.5399040000000 1.0
C      1  0.5064240000000  0.4788160000000  0.4172820000000 1.0
C      1  0.5067920000000  0.5820630000000  0.5231130000000 1.0
C      1  0.5064020000000  0.4388520000000  0.5597910000000 1.0
C      1  0.5161210000000  0.5286200000000  0.5696340000000 1.0
C      1  0.5165960000000  0.4258910000000  0.4903460000000 1.0
C      1  0.5161920000000  0.5458460000000  0.4403930000000 1.0
C      1  0.5293950000000  0.5515440000000  0.4927740000000 1.0
C      1  0.5290230000000  0.4802840000000  0.5486620000000 1.0
C      1  0.5293160000000  0.4680760000000  0.4589480000000 1.0
C      1  0.4765100000000  0.5501790000000  0.4944090000000 1.0
C      1  0.4762680000000  0.4797420000000  0.5464330000000 1.0
C      1  0.4764120000000  0.4699800000000  0.4593320000000 1.0
C      1  0.5136560000000  0.4434710000000  0.4493670000000 1.0
C      1  0.5136080000000  0.5723710000000  0.4764360000000 1.0
C      1  0.5131730000000  0.4842020000000  0.5748050000000 1.0
C      1  0.5230220000000  0.4692680000000  0.5075200000000 1.0
C      1  0.5226550000000  0.5094550000000  0.4691070000000 1.0
C      1  0.5229930000000  0.5219010000000  0.5236520000000 1.0
C      1  0.5427800000000  0.5162900000000  0.5431470000000 1.0
C      1  0.5429790000000  0.4552080000000  0.4932720000000 1.0
C      1  0.5427010000000  0.5287600000000  0.4641420000000 1.0
C      1  0.4417580000000  0.5100130000000  0.5112940000000 1.0
C      1  0.4417710000000  0.4852590000000  0.5030890000000 1.0
C      1  0.4417700000000  0.5047410000000  0.4857580000000 1.0
C      1  0.5443590000000  0.5282560000000  0.5349660000000 1.0
C      1  0.5443900000000  0.4562180000000  0.5077290000000 1.0
C      1  0.5441270000000  0.5157700000000  0.4576630000000 1.0
C      1  0.5400430000000  0.5479620000000  0.5603950000000 1.0
C      1  0.5402990000000  0.4241610000000  0.5117330000000 1.0
C      1  0.5397980000000  0.5281280000000  0.4279640000000 1.0
C      1  0.5317940000000  0.5612230000000  0.4483550000000 1.0
C      1  0.5315200000000  0.5140110000000  0.5791810000000 1.0
C      1  0.5321690000000  0.4249680000000  0.4730620000000 1.0
C      1  0.5371330000000  0.5511620000000  0.4697390000000 1.0
C      1  0.5368090000000  0.5004790000000  0.5598760000000 1.0
C      1  0.5373230000000  0.4485450000000  0.4711250000000 1.0
C      1  0.4497930000000  0.4433450000000  0.5125980000000 1.0
C      1  0.4496430000000  0.5174460000000  0.4447660000000 1.0
C      1  0.4497220000000  0.5392430000000  0.5427960000000 1.0
C      1  0.4214820000000  0.5220910000000  0.5019130000000 1.0
C      1  0.4214580000000  0.4873590000000  0.5182150000000 1.0
C      1  0.4214740000000  0.4905500000000  0.4800170000000 1.0
C      1  0.4609440000000  0.5194350000000  0.4327800000000 1.0
C      1  0.4611100000000  0.5486160000000  0.5505090000000 1.0
C      1  0.4611930000000  0.4319880000000  0.5168810000000 1.0
C      1  0.5710740000000  0.5302510000000  0.5080090000000 1.0
C      1  0.5712790000000  0.4761610000000  0.5250290000000 1.0
C      1  0.5708920000000  0.4906170000000  0.4668390000000 1.0
C      1  0.5318530000000  0.4247480000000  0.4874060000000 1.0
C      1  0.5313950000000  0.5490160000000  0.4407740000000 1.0
C      1  0.5313060000000  0.5266000000000  0.5722520000000 1.0
C      1  0.4454560000000  0.4532790000000  0.4750040000000 1.0
C      1  0.4454170000000  0.5451120000000  0.4721690000000 1.0
C      1  0.4452960000000  0.5016760000000  0.5530210000000 1.0
C      1  0.5468160000000  0.4656340000000  0.5365700000000 1.0
C      1  0.5468080000000  0.4858490000000  0.4517470000000 1.0
C      1  0.5472030000000  0.5482850000000  0.5118710000000 1.0
C      1  0.4986620000000  0.4649390000000  0.4445090000000 1.0
C      1  0.4988110000000  0.5656250000000  0.4975190000000 1.0
C      1  0.4984350000000  0.4693350000000  0.5583320000000 1.0
C      1  0.5297320000000  0.4761120000000  0.4958530000000 1.0
C      1  0.5292830000000  0.5160310000000  0.4807990000000 1.0
C      1  0.5296610000000  0.5084740000000  0.5234550000000 1.0
C      1  0.5536500000000  0.5050120000000  0.4888790000000 1.0
C      1  0.5543780000000  0.5023650000000  0.5109170000000 1.0
C      1  0.5544210000000  0.4933730000000  0.4982890000000 1.0
C      1  0.5048070000000  0.5311440000000  0.5807570000000 1.0
C      1  0.5052850000000  0.4149000000000  0.4868620000000 1.0
C      1  0.5048330000000  0.5542500000000  0.4327310000000 1.0
C      1  0.4421760000000  0.4489260000000  0.4880910000000 1.0
C      1  0.4420780000000  0.5359220000000  0.4618840000000 1.0
C      1  0.4420310000000  0.5152050000000  0.5502370000000 1.0
C      1  0.4499480000000  0.4790510000000  0.5530160000000 1.0
C      1  0.4501060000000  0.4645050000000  0.4554370000000 1.0
C      1  0.4501750000000  0.5563880000000  0.4917270000000 1.0
C      1  0.4580360000000  0.5318260000000  0.5665000000000 1.0
C      1  0.4582750000000  0.4265990000000  0.4943260000000 1.0
C      1  0.4580090000000  0.5416790000000  0.4393780000000 1.0
C      1  0.4832890000000  0.5779250000000  0.5119000000000 1.0
C      1  0.4829400000000  0.4507180000000  0.5617430000000 1.0
C      1  0.4830630000000  0.4711580000000  0.4266560000000 1.0
C      1  0.4726310000000  0.4536370000000  0.5103940000000 1.0
C      1  0.4725110000000  0.5142910000000  0.4547130000000 1.0
C      1  0.4725880000000  0.5321300000000  0.5351190000000 1.0
C      1  0.4526420000000  0.4412930000000  0.4969340000000 1.0
C      1  0.4524740000000  0.5320680000000  0.4508180000000 1.0
C      1  0.4524880000000  0.5266980000000  0.5524480000000 1.0
C      1  0.5677270000000  0.5050160000000  0.5343230000000 1.0
C      1  0.5679640000000  0.4699960000000  0.4885000000000 1.0
C      1  0.5675800000000  0.5260240000000  0.4780690000000 1.0
C      1  0.5324460000000  0.4828150000000  0.4589300000000 1.0
C      1  0.5326410000000  0.5440350000000  0.5054890000000 1.0
C      1  0.5324050000000  0.4730610000000  0.5357730000000 1.0
C      1  0.5605040000000  0.4957710000000  0.5674050000000 1.0
C      1  0.5611150000000  0.4450610000000  0.4637620000000 1.0
C      1  0.5609200000000  0.5596490000000  0.4698490000000 1.0
C      1  0.4504760000000  0.4864990000000  0.4396990000000 1.0
C      1  0.4506090000000  0.5590500000000  0.5186440000000 1.0
C      1  0.4504560000000  0.4543080000000  0.5418290000000 1.0
C      1  0.5126790000000  0.4590090000000  0.5735610000000 1.0
C      1  0.5129880000000  0.4569490000000  0.4280520000000 1.0
C      1  0.5131540000000  0.5838380000000  0.4988330000000 1.0
C      1  0.4836300000000  0.4331630000000  0.4675580000000 1.0
C      1  0.4834300000000  0.5616820000000  0.4583750000000 1.0
C      1  0.4831860000000  0.5052040000000  0.5743630000000 1.0
C      1  0.5235980000000  0.5037610000000  0.5526410000000 1.0
C      1  0.5239430000000  0.4530530000000  0.4774280000000 1.0
C      1  0.5237780000000  0.5433790000000  0.4704720000000 1.0
C      1  0.4472660000000  0.5129750000000  0.4976360000000 1.0
C      1  0.4472440000000  0.4956200000000  0.5124970000000 1.0
C      1  0.4472520000000  0.4914130000000  0.4900150000000 1.0
C      1  0.4574220000000  0.5202140000000  0.4785340000000 1.0
C      1  0.4574070000000  0.5085900000000  0.5282970000000 1.0
C      1  0.4574520000000  0.4712550000000  0.4933480000000 1.0
C      1  0.5179130000000  0.5089230000000  0.5823480000000 1.0
C      1  0.5186160000000  0.4246690000000  0.4669600000000 1.0
C      1  0.5182510000000  0.5666080000000  0.4512440000000 1.0
C      1  0.4589730000000  0.4747360000000  0.4368010000000 1.0
C      1  0.4591320000000  0.5673910000000  0.5099170000000 1.0
C      1  0.4588730000000  0.4577340000000  0.5534620000000 1.0
C      1  0.5202680000000  0.5754740000000  0.4896050000000 1.0
C      1  0.5197670000000  0.4712140000000  0.5709470000000 1.0
C      1  0.5201410000000  0.4532410000000  0.4399520000000 1.0
C      1  0.5247500000000  0.4805820000000  0.4270360000000 1.0
C      1  0.5251180000000  0.5726570000000  0.5196510000000 1.0
C      1  0.5247300000000  0.4465110000000  0.5534830000000 1.0
C      1  0.4383070000000  0.5604260000000  0.5397630000000 1.0
C      1  0.4382600000000  0.4353180000000  0.5323520000000 1.0
C      1  0.4381280000000  0.5041480000000  0.4280490000000 1.0
C      1  0.4229330000000  0.5000020000000  0.5000380000000 1.0
END
