TITL C-114178-678-10 -0.0763552312761145 1000000 -1755.55453187011 0 0 240 (T23) n - 1
REM
REM in /home/chem/mssmkc/work/GAP20/Larger-Clusters/Only-C240/New/BUILD-ONLY
REM
REM
REM
REM
REM
REM ./C.cell (daee87de7206da95283bc1c1416dbc6f)
REM
REM compiler GCC version 8.3.0
REM options -cpp -mtune=generic -march=x86-64 -g -O0
REM seed 682551925 1908941982 129027200 -1944032363 -1426264600 744520901 1025572365 2122638152 651798283 -873427755 -49702033 385898164 789864139 1181193918 1495081760 -932411977 -98922781 -333636697 1584619202 1792280132 1999636254 1090500898 -675435610 1599043749 -1242462228 -1832501544 -771656111 -1503628463 -1067643379 255469049 2022308083 -1060149146 -405483917
REM
CELL 1.54180  100.00000  100.00000  100.00000   90.00000   90.00000   90.00000
LATT -1
SFAC C  
C      1  0.4937840000000  0.4473040000000  0.4840320000000 1.0
C      1  0.4472300000000  0.4838730000000  0.4949340000000 1.0
C      1  0.4830130000000  0.4939960000000  0.4475990000000 1.0
C      1  0.4948570000000  0.5527800000000  0.5160700000000 1.0
C      1  0.5054410000000  0.4475000000000  0.5168690000000 1.0
C      1  0.5059180000000  0.5524160000000  0.4830290000000 1.0
C      1  0.4475750000000  0.5169100000000  0.5060100000000 1.0
C      1  0.5525280000000  0.4831870000000  0.5053490000000 1.0
C      1  0.5526680000000  0.5160300000000  0.4937070000000 1.0
C      1  0.4840470000000  0.5062490000000  0.5526960000000 1.0
C      1  0.5169030000000  0.4946450000000  0.5524980000000 1.0
C      1  0.5160360000000  0.5051100000000  0.4472060000000 1.0
C      1  0.4934530000000  0.4834820000000  0.4473330000000 1.0
C      1  0.4469510000000  0.4943060000000  0.4844120000000 1.0
C      1  0.4834440000000  0.4472100000000  0.4946470000000 1.0
C      1  0.4946460000000  0.5166070000000  0.5527740000000 1.0
C      1  0.5055920000000  0.5156200000000  0.4469500000000 1.0
C      1  0.5063100000000  0.4842920000000  0.5529430000000 1.0
C      1  0.4473300000000  0.5064810000000  0.5165360000000 1.0
C      1  0.5527570000000  0.5054200000000  0.4833620000000 1.0
C      1  0.5529610000000  0.4937930000000  0.5156900000000 1.0
C      1  0.4843300000000  0.5530300000000  0.5056420000000 1.0
C      1  0.5164490000000  0.5526890000000  0.4934520000000 1.0
C      1  0.5157780000000  0.4470710000000  0.5062590000000 1.0
C      1  0.4852130000000  0.4365020000000  0.5047450000000 1.0
C      1  0.4362610000000  0.5044230000000  0.4861810000000 1.0
C      1  0.5033900000000  0.4850740000000  0.4364480000000 1.0
C      1  0.4860770000000  0.5637120000000  0.4955120000000 1.0
C      1  0.5138500000000  0.4362190000000  0.4963450000000 1.0
C      1  0.5148610000000  0.5635670000000  0.5033970000000 1.0
C      1  0.4364610000000  0.4965240000000  0.5149610000000 1.0
C      1  0.5637990000000  0.5037200000000  0.5137490000000 1.0
C      1  0.5634790000000  0.4953330000000  0.4851090000000 1.0
C      1  0.5047520000000  0.5148660000000  0.5634790000000 1.0
C      1  0.4963980000000  0.4862160000000  0.5637980000000 1.0
C      1  0.4954590000000  0.5138440000000  0.4362750000000 1.0
C      1  0.4848180000000  0.5035900000000  0.4366240000000 1.0
C      1  0.4364550000000  0.4858690000000  0.5047160000000 1.0
C      1  0.5034210000000  0.4363720000000  0.4858700000000 1.0
C      1  0.4859070000000  0.4966280000000  0.5636380000000 1.0
C      1  0.5140340000000  0.4953310000000  0.4364300000000 1.0
C      1  0.5152410000000  0.5044510000000  0.5633070000000 1.0
C      1  0.4365980000000  0.5150760000000  0.4964240000000 1.0
C      1  0.5636170000000  0.5141990000000  0.5033250000000 1.0
C      1  0.5633290000000  0.4848560000000  0.4955350000000 1.0
C      1  0.5046200000000  0.5635680000000  0.5140570000000 1.0
C      1  0.4963150000000  0.5633790000000  0.4848550000000 1.0
C      1  0.4956440000000  0.4366810000000  0.5152170000000 1.0
C      1  0.5325730000000  0.4567480000000  0.5224660000000 1.0
C      1  0.4572620000000  0.5229890000000  0.5328850000000 1.0
C      1  0.5222400000000  0.5321550000000  0.4563210000000 1.0
C      1  0.5328050000000  0.5427650000000  0.4769470000000 1.0
C      1  0.4667900000000  0.4568540000000  0.4782740000000 1.0
C      1  0.4678320000000  0.5436330000000  0.5223130000000 1.0
C      1  0.4563410000000  0.4776540000000  0.4678910000000 1.0
C      1  0.5430680000000  0.5217900000000  0.4667320000000 1.0
C      1  0.5433290000000  0.4775670000000  0.5324930000000 1.0
C      1  0.5225390000000  0.4675110000000  0.5432780000000 1.0
C      1  0.4782420000000  0.5332230000000  0.5431190000000 1.0
C      1  0.4769790000000  0.4671100000000  0.4572830000000 1.0
C      1  0.5325790000000  0.5217580000000  0.4564440000000 1.0
C      1  0.4573740000000  0.5333140000000  0.5224730000000 1.0
C      1  0.5223470000000  0.4570420000000  0.5329710000000 1.0
C      1  0.5330280000000  0.4777540000000  0.5429670000000 1.0
C      1  0.4666430000000  0.4775100000000  0.4574160000000 1.0
C      1  0.4677510000000  0.5229780000000  0.5431730000000 1.0
C      1  0.4564860000000  0.4673270000000  0.4783000000000 1.0
C      1  0.5430310000000  0.4670660000000  0.5222620000000 1.0
C      1  0.5431100000000  0.5322920000000  0.4769650000000 1.0
C      1  0.5223880000000  0.5426250000000  0.4666280000000 1.0
C      1  0.4782460000000  0.5435160000000  0.5326340000000 1.0
C      1  0.4770190000000  0.4568170000000  0.4677670000000 1.0
C      1  0.5043640000000  0.4609190000000  0.4870150000000 1.0
C      1  0.4610120000000  0.4870540000000  0.5052340000000 1.0
C      1  0.4864070000000  0.5045380000000  0.4611460000000 1.0
C      1  0.5051770000000  0.5390100000000  0.5129000000000 1.0
C      1  0.4950630000000  0.4612150000000  0.5136520000000 1.0
C      1  0.4953960000000  0.5388560000000  0.4864330000000 1.0
C      1  0.4611220000000  0.5135250000000  0.4954650000000 1.0
C      1  0.5387920000000  0.4863940000000  0.4949940000000 1.0
C      1  0.5390740000000  0.5130270000000  0.5043070000000 1.0
C      1  0.4870410000000  0.4956590000000  0.5390930000000 1.0
C      1  0.5136630000000  0.5050030000000  0.5387730000000 1.0
C      1  0.5128890000000  0.4948000000000  0.4609890000000 1.0
C      1  0.5024860000000  0.4858490000000  0.4602560000000 1.0
C      1  0.4600610000000  0.5031270000000  0.4865420000000 1.0
C      1  0.4859420000000  0.4602910000000  0.5034120000000 1.0
C      1  0.5034090000000  0.5141080000000  0.5396920000000 1.0
C      1  0.4967940000000  0.5134740000000  0.4600720000000 1.0
C      1  0.4973110000000  0.4865700000000  0.5399810000000 1.0
C      1  0.4602660000000  0.4974660000000  0.5141730000000 1.0
C      1  0.5396900000000  0.4966390000000  0.4858770000000 1.0
C      1  0.5399830000000  0.5027680000000  0.5134080000000 1.0
C      1  0.4864760000000  0.5399140000000  0.4968350000000 1.0
C      1  0.5141110000000  0.5397590000000  0.5024820000000 1.0
C      1  0.5134710000000  0.4600360000000  0.4972700000000 1.0
C      1  0.5399590000000  0.5495980000000  0.5001220000000 1.0
C      1  0.5502500000000  0.5008700000000  0.5391280000000 1.0
C      1  0.5016470000000  0.5400010000000  0.5495370000000 1.0
C      1  0.5392080000000  0.4498120000000  0.4991680000000 1.0
C      1  0.4607760000000  0.5501720000000  0.4990230000000 1.0
C      1  0.4600570000000  0.4504170000000  0.5016870000000 1.0
C      1  0.5495210000000  0.4983880000000  0.4599770000000 1.0
C      1  0.4497640000000  0.5009390000000  0.4608570000000 1.0
C      1  0.4504660000000  0.4998030000000  0.5400390000000 1.0
C      1  0.5001620000000  0.4599850000000  0.4504460000000 1.0
C      1  0.4989360000000  0.5391660000000  0.4497840000000 1.0
C      1  0.4992550000000  0.4608470000000  0.5502320000000 1.0
C      1  0.5401930000000  0.5010980000000  0.5491790000000 1.0
C      1  0.5498460000000  0.5393780000000  0.5001880000000 1.0
C      1  0.5016970000000  0.5498750000000  0.5393040000000 1.0
C      1  0.5392830000000  0.4983100000000  0.4501080000000 1.0
C      1  0.4607030000000  0.4997440000000  0.5499090000000 1.0
C      1  0.4598210000000  0.5008470000000  0.4508040000000 1.0
C      1  0.5492430000000  0.4598850000000  0.4989230000000 1.0
C      1  0.4501720000000  0.4606390000000  0.5017580000000 1.0
C      1  0.4507400000000  0.5400990000000  0.4991310000000 1.0
C      1  0.5002490000000  0.4501100000000  0.4606780000000 1.0
C      1  0.4990210000000  0.4508010000000  0.5401710000000 1.0
C      1  0.4990330000000  0.5492140000000  0.4598470000000 1.0
C      1  0.4363770000000  0.5249410000000  0.4860860000000 1.0
C      1  0.5239080000000  0.4850000000000  0.4362280000000 1.0
C      1  0.4854780000000  0.4366400000000  0.5252620000000 1.0
C      1  0.4362730000000  0.4760070000000  0.5150570000000 1.0
C      1  0.5639850000000  0.5242360000000  0.5134930000000 1.0
C      1  0.5633640000000  0.4748160000000  0.4853640000000 1.0
C      1  0.5252690000000  0.5146340000000  0.5633310000000 1.0
C      1  0.4758820000000  0.4864490000000  0.5640170000000 1.0
C      1  0.4749410000000  0.5139170000000  0.4364240000000 1.0
C      1  0.4859710000000  0.5635720000000  0.4749940000000 1.0
C      1  0.5135840000000  0.4360100000000  0.4758290000000 1.0
C      1  0.5149670000000  0.5637780000000  0.5239150000000 1.0
C      1  0.4363420000000  0.4863900000000  0.5250800000000 1.0
C      1  0.5237860000000  0.4359240000000  0.4860360000000 1.0
C      1  0.4853110000000  0.5239500000000  0.4361470000000 1.0
C      1  0.4361120000000  0.5145590000000  0.4760650000000 1.0
C      1  0.5640990000000  0.5140250000000  0.5236900000000 1.0
C      1  0.5634470000000  0.4850260000000  0.4751650000000 1.0
C      1  0.5249840000000  0.5637130000000  0.5135270000000 1.0
C      1  0.4759550000000  0.5638330000000  0.4853810000000 1.0
C      1  0.4752740000000  0.4365300000000  0.5150570000000 1.0
C      1  0.4861050000000  0.4762630000000  0.5641100000000 1.0
C      1  0.5135360000000  0.4749660000000  0.4363080000000 1.0
C      1  0.5150480000000  0.5248210000000  0.5634350000000 1.0
C      1  0.5310050000000  0.5504060000000  0.4888560000000 1.0
C      1  0.5509240000000  0.4894500000000  0.5303600000000 1.0
C      1  0.4902510000000  0.5312350000000  0.5505530000000 1.0
C      1  0.5304470000000  0.4491360000000  0.5105920000000 1.0
C      1  0.4697420000000  0.5510410000000  0.5102750000000 1.0
C      1  0.4688060000000  0.4494160000000  0.4902770000000 1.0
C      1  0.5505230000000  0.5097950000000  0.4687300000000 1.0
C      1  0.4489220000000  0.4896830000000  0.4698190000000 1.0
C      1  0.4496310000000  0.5110720000000  0.5310920000000 1.0
C      1  0.4888820000000  0.4689200000000  0.4496340000000 1.0
C      1  0.5102020000000  0.5302170000000  0.4489200000000 1.0
C      1  0.5106660000000  0.4696270000000  0.5508930000000 1.0
C      1  0.5310710000000  0.4900600000000  0.5501030000000 1.0
C      1  0.5504260000000  0.5302310000000  0.4891470000000 1.0
C      1  0.4905090000000  0.5506280000000  0.5303510000000 1.0
C      1  0.5303110000000  0.5094830000000  0.4493460000000 1.0
C      1  0.4698380000000  0.5107950000000  0.5504800000000 1.0
C      1  0.4687790000000  0.4896620000000  0.4500710000000 1.0
C      1  0.5501570000000  0.4690200000000  0.5099510000000 1.0
C      1  0.4493910000000  0.4695970000000  0.4905750000000 1.0
C      1  0.4500260000000  0.5311520000000  0.5103270000000 1.0
C      1  0.4892130000000  0.4495230000000  0.4698310000000 1.0
C      1  0.5100460000000  0.4498940000000  0.5310310000000 1.0
C      1  0.5102320000000  0.5499560000000  0.4687870000000 1.0
C      1  0.5146560000000  0.5544730000000  0.5343590000000 1.0
C      1  0.5546630000000  0.5346640000000  0.5131540000000 1.0
C      1  0.5355430000000  0.5141420000000  0.5538460000000 1.0
C      1  0.5132250000000  0.4453190000000  0.4653900000000 1.0
C      1  0.4861430000000  0.5540860000000  0.4647110000000 1.0
C      1  0.4859760000000  0.4461210000000  0.5355400000000 1.0
C      1  0.5538960000000  0.4645280000000  0.4858720000000 1.0
C      1  0.4458520000000  0.5352350000000  0.4862470000000 1.0
C      1  0.4455890000000  0.4655730000000  0.5147270000000 1.0
C      1  0.5343560000000  0.4853380000000  0.4455270000000 1.0
C      1  0.4646620000000  0.5137390000000  0.4459150000000 1.0
C      1  0.4654380000000  0.4867810000000  0.5547120000000 1.0
C      1  0.5147020000000  0.5351930000000  0.5540650000000 1.0
C      1  0.5549070000000  0.5138440000000  0.5342250000000 1.0
C      1  0.5353610000000  0.5543490000000  0.5131730000000 1.0
C      1  0.5132040000000  0.4645990000000  0.4456840000000 1.0
C      1  0.4862830000000  0.4657330000000  0.5549130000000 1.0
C      1  0.4858110000000  0.5344740000000  0.4453380000000 1.0
C      1  0.5540720000000  0.4853450000000  0.4647970000000 1.0
C      1  0.4457230000000  0.4867490000000  0.5354420000000 1.0
C      1  0.4452980000000  0.5140620000000  0.4655360000000 1.0
C      1  0.5343060000000  0.4451320000000  0.4862010000000 1.0
C      1  0.4648910000000  0.4458880000000  0.5147320000000 1.0
C      1  0.4654420000000  0.5546300000000  0.4858930000000 1.0
C      1  0.5272080000000  0.5191160000000  0.5029130000000 1.0
C      1  0.5195570000000  0.5034080000000  0.5268340000000 1.0
C      1  0.5036950000000  0.5271760000000  0.5190270000000 1.0
C      1  0.5268640000000  0.4804820000000  0.4966010000000 1.0
C      1  0.4730760000000  0.5194620000000  0.4967560000000 1.0
C      1  0.4728520000000  0.4809410000000  0.5037290000000 1.0
C      1  0.5190200000000  0.4963050000000  0.4728190000000 1.0
C      1  0.4804910000000  0.5032350000000  0.4731090000000 1.0
C      1  0.4809310000000  0.4970520000000  0.5272380000000 1.0
C      1  0.5029480000000  0.4727750000000  0.4809130000000 1.0
C      1  0.4967030000000  0.5268970000000  0.4805100000000 1.0
C      1  0.4966540000000  0.4731520000000  0.5195500000000 1.0
C      1  0.5287720000000  0.4985650000000  0.5197720000000 1.0
C      1  0.5202150000000  0.5284400000000  0.4981830000000 1.0
C      1  0.4990140000000  0.5202700000000  0.5284420000000 1.0
C      1  0.5284300000000  0.5010090000000  0.4797150000000 1.0
C      1  0.4715900000000  0.5017750000000  0.5202610000000 1.0
C      1  0.4712080000000  0.4986500000000  0.4802520000000 1.0
C      1  0.5198190000000  0.4712620000000  0.5014580000000 1.0
C      1  0.4797600000000  0.4715360000000  0.4990320000000 1.0
C      1  0.4802060000000  0.5287620000000  0.5013270000000 1.0
C      1  0.4982020000000  0.4797500000000  0.4715830000000 1.0
C      1  0.5015030000000  0.4802160000000  0.5287600000000 1.0
C      1  0.5012810000000  0.5197630000000  0.4712150000000 1.0
C      1  0.5356890000000  0.4530960000000  0.4740480000000 1.0
C      1  0.4537230000000  0.4746290000000  0.5369050000000 1.0
C      1  0.4738230000000  0.5360650000000  0.4535100000000 1.0
C      1  0.5368430000000  0.5463640000000  0.5253020000000 1.0
C      1  0.4636270000000  0.4540780000000  0.5267480000000 1.0
C      1  0.4638400000000  0.5464620000000  0.4739030000000 1.0
C      1  0.4534510000000  0.5260620000000  0.4639280000000 1.0
C      1  0.5458930000000  0.4733210000000  0.4635410000000 1.0
C      1  0.5469320000000  0.5259880000000  0.5356260000000 1.0
C      1  0.4741270000000  0.4643220000000  0.5469570000000 1.0
C      1  0.5267110000000  0.5364670000000  0.5458680000000 1.0
C      1  0.5253380000000  0.4631450000000  0.4536650000000 1.0
C      1  0.5357480000000  0.4733120000000  0.4535630000000 1.0
C      1  0.4536990000000  0.5364820000000  0.4740810000000 1.0
C      1  0.4739640000000  0.4541690000000  0.5369890000000 1.0
C      1  0.5369690000000  0.5261470000000  0.5457840000000 1.0
C      1  0.4634140000000  0.5259010000000  0.4537700000000 1.0
C      1  0.4638690000000  0.4746410000000  0.5468830000000 1.0
C      1  0.4536340000000  0.4642070000000  0.5267510000000 1.0
C      1  0.5458310000000  0.4630750000000  0.4738720000000 1.0
C      1  0.5468370000000  0.5362350000000  0.5252960000000 1.0
C      1  0.4739890000000  0.5462190000000  0.4634780000000 1.0
C      1  0.5266940000000  0.5464490000000  0.5357280000000 1.0
C      1  0.5253540000000  0.4531630000000  0.4638050000000 1.0
END
