TITL C-114178-678-95 -191.325425890281 1000000 -1689.50614057343 0 0 240 (Cs) n - 1
REM
REM in /home/chem/mssmkc/work/GAP20/Larger-Clusters/Only-C240/New/BUILD-ONLY
REM
REM
REM
REM
REM
REM ./C.cell (daee87de7206da95283bc1c1416dbc6f)
REM
REM compiler GCC version 8.3.0
REM options -cpp -mtune=generic -march=x86-64 -g -O0
REM seed 1884410109 613445147 1777050565 1854968248 1536369892 2040425989 10628542 -770011647 556483747 1627569401 -192762545 402445021 1370295316 1836582245 -1924039177 1095429810 1284884461 1407959605 -245528402 747068383 1093038204 1721161708 578377820 -687948038 -1491128669 -2005723586 1162450354 1709821916 -1257740306 1389181837 -1117286960 -850987174 -331751825
REM
CELL 1.54180  100.00000  100.00000  100.00000   90.00000   90.00000   90.00000
LATT -1
SFAC C  
C      1  0.5425040000000  0.5075710000000  0.5547580000000 1.0
C      1  0.5546650000000  0.5389430000000  0.5069460000000 1.0
C      1  0.5073140000000  0.5508770000000  0.5389340000000 1.0
C      1  0.4598520000000  0.4929110000000  0.5539450000000 1.0
C      1  0.4609750000000  0.5074550000000  0.4461210000000 1.0
C      1  0.5389480000000  0.4927610000000  0.4461570000000 1.0
C      1  0.4458400000000  0.4613420000000  0.5073770000000 1.0
C      1  0.4455010000000  0.5392540000000  0.4922780000000 1.0
C      1  0.5539810000000  0.4612240000000  0.4926820000000 1.0
C      1  0.4926600000000  0.4473200000000  0.5392230000000 1.0
C      1  0.4926530000000  0.5540630000000  0.4612050000000 1.0
C      1  0.5073350000000  0.4461600000000  0.4613050000000 1.0
C      1  0.5390120000000  0.5074510000000  0.4461110000000 1.0
C      1  0.5545020000000  0.5392480000000  0.4922650000000 1.0
C      1  0.5073430000000  0.5540630000000  0.4612030000000 1.0
C      1  0.4610370000000  0.4927650000000  0.4461670000000 1.0
C      1  0.4575100000000  0.5075760000000  0.5547680000000 1.0
C      1  0.5401610000000  0.4929070000000  0.5539360000000 1.0
C      1  0.4460130000000  0.4612300000000  0.4926960000000 1.0
C      1  0.4453410000000  0.5389490000000  0.5069600000000 1.0
C      1  0.5541570000000  0.4613360000000  0.5073640000000 1.0
C      1  0.4926490000000  0.4461600000000  0.4613070000000 1.0
C      1  0.4927010000000  0.5508780000000  0.5389360000000 1.0
C      1  0.5073440000000  0.4473200000000  0.5392210000000 1.0
C      1  0.4926200000000  0.4591850000000  0.4549830000000 1.0
C      1  0.4548400000000  0.4927620000000  0.4592400000000 1.0
C      1  0.4591170000000  0.4550940000000  0.4928620000000 1.0
C      1  0.5073630000000  0.5409690000000  0.4549870000000 1.0
C      1  0.5073520000000  0.4605510000000  0.5451430000000 1.0
C      1  0.4925560000000  0.5377380000000  0.5450800000000 1.0
C      1  0.5452570000000  0.5074810000000  0.4591640000000 1.0
C      1  0.5465010000000  0.4928830000000  0.5409290000000 1.0
C      1  0.4518340000000  0.5075350000000  0.5414840000000 1.0
C      1  0.5412150000000  0.5450400000000  0.4924870000000 1.0
C      1  0.5410010000000  0.4552700000000  0.5075920000000 1.0
C      1  0.4587260000000  0.5444890000000  0.5072000000000 1.0
C      1  0.4926550000000  0.4605520000000  0.5451450000000 1.0
C      1  0.4535080000000  0.4928880000000  0.5409400000000 1.0
C      1  0.4589960000000  0.4552740000000  0.5076030000000 1.0
C      1  0.5074600000000  0.5377370000000  0.5450780000000 1.0
C      1  0.5073640000000  0.4591850000000  0.4549810000000 1.0
C      1  0.4926300000000  0.5409700000000  0.4549890000000 1.0
C      1  0.5481780000000  0.5075290000000  0.5414720000000 1.0
C      1  0.5451490000000  0.4927580000000  0.4592290000000 1.0
C      1  0.4547330000000  0.5074860000000  0.4591750000000 1.0
C      1  0.5412800000000  0.5444840000000  0.5071890000000 1.0
C      1  0.5408760000000  0.4550890000000  0.4928510000000 1.0
C      1  0.4587880000000  0.5450450000000  0.4924970000000 1.0
C      1  0.5075760000000  0.5511160000000  0.4924870000000 1.0
C      1  0.4887580000000  0.5076220000000  0.5580670000000 1.0
C      1  0.5526360000000  0.4930140000000  0.5076650000000 1.0
C      1  0.4924480000000  0.4484150000000  0.4929280000000 1.0
C      1  0.4924440000000  0.5503700000000  0.5071750000000 1.0
C      1  0.5075620000000  0.4486720000000  0.5076270000000 1.0
C      1  0.5072190000000  0.4939950000000  0.5533570000000 1.0
C      1  0.5073450000000  0.5075980000000  0.4480620000000 1.0
C      1  0.4926460000000  0.4924910000000  0.4480720000000 1.0
C      1  0.4471700000000  0.5077130000000  0.5077370000000 1.0
C      1  0.4476830000000  0.4930270000000  0.4925800000000 1.0
C      1  0.5524340000000  0.5077490000000  0.4925590000000 1.0
C      1  0.5075630000000  0.5503690000000  0.5071730000000 1.0
C      1  0.4926430000000  0.5075990000000  0.4480640000000 1.0
C      1  0.5523150000000  0.4930210000000  0.4925670000000 1.0
C      1  0.4924340000000  0.4486730000000  0.5076290000000 1.0
C      1  0.4924280000000  0.5511170000000  0.4924890000000 1.0
C      1  0.5075440000000  0.4484140000000  0.4929260000000 1.0
C      1  0.5073400000000  0.4924900000000  0.4480700000000 1.0
C      1  0.5112580000000  0.5076200000000  0.5580640000000 1.0
C      1  0.4927940000000  0.4939960000000  0.5533580000000 1.0
C      1  0.4475640000000  0.5077540000000  0.4925720000000 1.0
C      1  0.4473650000000  0.4930190000000  0.5076780000000 1.0
C      1  0.5528330000000  0.5077070000000  0.5077240000000 1.0
C      1  0.5849890000000  0.4822020000000  0.4917420000000 1.0
C      1  0.4924090000000  0.5841970000000  0.4835210000000 1.0
C      1  0.4823470000000  0.4929470000000  0.5840510000000 1.0
C      1  0.4147050000000  0.5178790000000  0.4913810000000 1.0
C      1  0.4147150000000  0.4822980000000  0.5069470000000 1.0
C      1  0.5856790000000  0.5179170000000  0.5065390000000 1.0
C      1  0.5075910000000  0.4155600000000  0.4829090000000 1.0
C      1  0.5076110000000  0.5826160000000  0.5191530000000 1.0
C      1  0.4924000000000  0.4160870000000  0.5185550000000 1.0
C      1  0.5171050000000  0.5077420000000  0.5809170000000 1.0
C      1  0.5177960000000  0.4924970000000  0.4152900000000 1.0
C      1  0.4821760000000  0.5076960000000  0.4152900000000 1.0
C      1  0.5852840000000  0.4822890000000  0.5069260000000 1.0
C      1  0.4924030000000  0.5826170000000  0.5191540000000 1.0
C      1  0.4821830000000  0.4924980000000  0.4152950000000 1.0
C      1  0.4143240000000  0.5179260000000  0.5065610000000 1.0
C      1  0.4150070000000  0.4822110000000  0.4917630000000 1.0
C      1  0.5852950000000  0.5178700000000  0.4913600000000 1.0
C      1  0.5075960000000  0.4160860000000  0.5185530000000 1.0
C      1  0.5075960000000  0.5841970000000  0.4835190000000 1.0
C      1  0.4923950000000  0.4155610000000  0.4829110000000 1.0
C      1  0.5178030000000  0.5076940000000  0.4152860000000 1.0
C      1  0.5176730000000  0.4929450000000  0.5840470000000 1.0
C      1  0.4829170000000  0.5077440000000  0.5809210000000 1.0
C      1  0.5349810000000  0.5396890000000  0.5293190000000 1.0
C      1  0.5304950000000  0.5335880000000  0.5406950000000 1.0
C      1  0.5421030000000  0.5292130000000  0.5348090000000 1.0
C      1  0.4657380000000  0.4601950000000  0.5296520000000 1.0
C      1  0.4655510000000  0.5406540000000  0.4705310000000 1.0
C      1  0.5342350000000  0.4596160000000  0.4708670000000 1.0
C      1  0.4705850000000  0.4669570000000  0.5406420000000 1.0
C      1  0.4705720000000  0.5342990000000  0.4594180000000 1.0
C      1  0.5293490000000  0.4658560000000  0.4596290000000 1.0
C      1  0.4591920000000  0.4713360000000  0.5344020000000 1.0
C      1  0.4593000000000  0.5294360000000  0.4656280000000 1.0
C      1  0.5405090000000  0.4708140000000  0.4659650000000 1.0
C      1  0.5344460000000  0.5406510000000  0.4705230000000 1.0
C      1  0.5294210000000  0.5342960000000  0.4594110000000 1.0
C      1  0.5406940000000  0.5294320000000  0.4656180000000 1.0
C      1  0.4657530000000  0.4596200000000  0.4708760000000 1.0
C      1  0.4650310000000  0.5396920000000  0.5293280000000 1.0
C      1  0.5342650000000  0.4601910000000  0.5296430000000 1.0
C      1  0.4706370000000  0.4658590000000  0.4596370000000 1.0
C      1  0.4695190000000  0.5335910000000  0.5407020000000 1.0
C      1  0.5294220000000  0.4669530000000  0.5406350000000 1.0
C      1  0.4594790000000  0.4708190000000  0.4659750000000 1.0
C      1  0.4579090000000  0.5292180000000  0.5348190000000 1.0
C      1  0.5408140000000  0.4713310000000  0.5343920000000 1.0
C      1  0.4257000000000  0.4727470000000  0.5068950000000 1.0
C      1  0.5072590000000  0.4263060000000  0.4731040000000 1.0
C      1  0.4725740000000  0.5073660000000  0.4262070000000 1.0
C      1  0.5748560000000  0.5276590000000  0.5064440000000 1.0
C      1  0.5740250000000  0.4726530000000  0.4923500000000 1.0
C      1  0.4254820000000  0.5276570000000  0.4919350000000 1.0
C      1  0.4927350000000  0.5737790000000  0.4733530000000 1.0
C      1  0.4927300000000  0.4271070000000  0.5280460000000 1.0
C      1  0.5072680000000  0.5713360000000  0.5283410000000 1.0
C      1  0.5273940000000  0.4928270000000  0.4262110000000 1.0
C      1  0.5299890000000  0.5073640000000  0.5744460000000 1.0
C      1  0.4711050000000  0.4927850000000  0.5744850000000 1.0
C      1  0.4259700000000  0.4726610000000  0.4923690000000 1.0
C      1  0.5072700000000  0.4271060000000  0.5280450000000 1.0
C      1  0.4700300000000  0.5073680000000  0.5744530000000 1.0
C      1  0.5745190000000  0.5276490000000  0.4919160000000 1.0
C      1  0.5742990000000  0.4727390000000  0.5068760000000 1.0
C      1  0.4251490000000  0.5276670000000  0.5064620000000 1.0
C      1  0.4927470000000  0.5713360000000  0.5283430000000 1.0
C      1  0.4927260000000  0.4263070000000  0.4731060000000 1.0
C      1  0.5072660000000  0.5737780000000  0.4733510000000 1.0
C      1  0.5289130000000  0.4927820000000  0.5744780000000 1.0
C      1  0.5274090000000  0.5073630000000  0.4262000000000 1.0
C      1  0.4725870000000  0.4928290000000  0.4262170000000 1.0
C      1  0.5887280000000  0.4938120000000  0.5133090000000 1.0
C      1  0.5140970000000  0.5869180000000  0.4951610000000 1.0
C      1  0.4932720000000  0.5111160000000  0.5719760000000 1.0
C      1  0.4110230000000  0.5064520000000  0.5130730000000 1.0
C      1  0.4118600000000  0.4936330000000  0.4850500000000 1.0
C      1  0.5882010000000  0.5062610000000  0.4848650000000 1.0
C      1  0.4858600000000  0.4125530000000  0.4944640000000 1.0
C      1  0.4858630000000  0.5863090000000  0.5077910000000 1.0
C      1  0.5141380000000  0.4127520000000  0.5070930000000 1.0
C      1  0.5063770000000  0.4864570000000  0.5882190000000 1.0
C      1  0.5063050000000  0.5142410000000  0.4121040000000 1.0
C      1  0.4936740000000  0.4859490000000  0.4121040000000 1.0
C      1  0.5881360000000  0.4936230000000  0.4850280000000 1.0
C      1  0.5141480000000  0.5863080000000  0.5077880000000 1.0
C      1  0.4936750000000  0.5142420000000  0.4121060000000 1.0
C      1  0.4117960000000  0.5062710000000  0.4848870000000 1.0
C      1  0.4112740000000  0.4938220000000  0.5133310000000 1.0
C      1  0.5889810000000  0.5064420000000  0.5130510000000 1.0
C      1  0.4858540000000  0.4127540000000  0.5070970000000 1.0
C      1  0.4859110000000  0.5869200000000  0.4951650000000 1.0
C      1  0.5141290000000  0.4125510000000  0.4944600000000 1.0
C      1  0.5063030000000  0.4859490000000  0.4121030000000 1.0
C      1  0.5067480000000  0.5111150000000  0.5719740000000 1.0
C      1  0.4936440000000  0.4864580000000  0.5882210000000 1.0
C      1  0.5311120000000  0.4526390000000  0.4830740000000 1.0
C      1  0.4828190000000  0.5312020000000  0.4525050000000 1.0
C      1  0.4516720000000  0.4831400000000  0.5311090000000 1.0
C      1  0.4686340000000  0.5475440000000  0.4828010000000 1.0
C      1  0.4687850000000  0.4531200000000  0.5174620000000 1.0
C      1  0.5313700000000  0.5461560000000  0.5170070000000 1.0
C      1  0.5171900000000  0.4689260000000  0.4525360000000 1.0
C      1  0.5186270000000  0.5295590000000  0.5478680000000 1.0
C      1  0.4828290000000  0.4702920000000  0.5473960000000 1.0
C      1  0.5499180000000  0.5174380000000  0.5316700000000 1.0
C      1  0.5474910000000  0.4830180000000  0.4690470000000 1.0
C      1  0.4522490000000  0.5173090000000  0.4688640000000 1.0
C      1  0.5312140000000  0.4531170000000  0.5174540000000 1.0
C      1  0.4813890000000  0.5295610000000  0.5478720000000 1.0
C      1  0.4524990000000  0.4830230000000  0.4690590000000 1.0
C      1  0.4686390000000  0.5461600000000  0.5170150000000 1.0
C      1  0.4688780000000  0.4526430000000  0.4830820000000 1.0
C      1  0.5313670000000  0.5475410000000  0.4827940000000 1.0
C      1  0.5171800000000  0.4702900000000  0.5473920000000 1.0
C      1  0.5171720000000  0.5312000000000  0.4525010000000 1.0
C      1  0.4827950000000  0.4689280000000  0.4525400000000 1.0
C      1  0.5477460000000  0.5173040000000  0.4688520000000 1.0
C      1  0.5483340000000  0.4831350000000  0.5310970000000 1.0
C      1  0.4500920000000  0.5174430000000  0.5316820000000 1.0
C      1  0.4794640000000  0.5179540000000  0.5554340000000 1.0
C      1  0.5548960000000  0.4834770000000  0.5183110000000 1.0
C      1  0.5184080000000  0.5538390000000  0.4833000000000 1.0
C      1  0.5168340000000  0.4830340000000  0.5539960000000 1.0
C      1  0.5167740000000  0.5183690000000  0.4459690000000 1.0
C      1  0.4832070000000  0.4817280000000  0.4459410000000 1.0
C      1  0.4442850000000  0.5170450000000  0.5184520000000 1.0
C      1  0.4459030000000  0.4834960000000  0.4818430000000 1.0
C      1  0.5544280000000  0.5170210000000  0.4816250000000 1.0
C      1  0.4817050000000  0.4461380000000  0.4835220000000 1.0
C      1  0.4817760000000  0.5519390000000  0.5167860000000 1.0
C      1  0.5183370000000  0.4466630000000  0.5170750000000 1.0
C      1  0.4832140000000  0.5183700000000  0.4459720000000 1.0
C      1  0.5540900000000  0.4834900000000  0.4818300000000 1.0
C      1  0.5182340000000  0.5519370000000  0.5167810000000 1.0
C      1  0.5167780000000  0.4817260000000  0.4459370000000 1.0
C      1  0.5205520000000  0.5179520000000  0.5554290000000 1.0
C      1  0.4831780000000  0.4830360000000  0.5540000000000 1.0
C      1  0.4455690000000  0.5170270000000  0.4816380000000 1.0
C      1  0.4451070000000  0.4834830000000  0.5183250000000 1.0
C      1  0.5557220000000  0.5170390000000  0.5184380000000 1.0
C      1  0.4816610000000  0.4466650000000  0.5170800000000 1.0
C      1  0.4815940000000  0.5538410000000  0.4833050000000 1.0
C      1  0.5182850000000  0.4461360000000  0.4835180000000 1.0
C      1  0.5141490000000  0.4387110000000  0.4712800000000 1.0
C      1  0.4708950000000  0.5142790000000  0.4386180000000 1.0
C      1  0.4380300000000  0.4711660000000  0.5139990000000 1.0
C      1  0.4858200000000  0.5614420000000  0.4712250000000 1.0
C      1  0.4858380000000  0.4395550000000  0.5295100000000 1.0
C      1  0.5141580000000  0.5588150000000  0.5294530000000 1.0
C      1  0.5290620000000  0.4859250000000  0.4386320000000 1.0
C      1  0.5330930000000  0.5146940000000  0.5625570000000 1.0
C      1  0.4701150000000  0.4866040000000  0.5611470000000 1.0
C      1  0.5626060000000  0.5293080000000  0.5136480000000 1.0
C      1  0.5614420000000  0.4710920000000  0.4857410000000 1.0
C      1  0.4380320000000  0.5293710000000  0.4853200000000 1.0
C      1  0.5141630000000  0.4395530000000  0.5295070000000 1.0
C      1  0.4669250000000  0.5146970000000  0.5625650000000 1.0
C      1  0.4385510000000  0.4710990000000  0.4857570000000 1.0
C      1  0.4858550000000  0.5588170000000  0.5294570000000 1.0
C      1  0.4858370000000  0.4387130000000  0.4712830000000 1.0
C      1  0.5141790000000  0.5614400000000  0.4712220000000 1.0
C      1  0.5298990000000  0.4866010000000  0.5611400000000 1.0
C      1  0.5290910000000  0.5142760000000  0.4386110000000 1.0
C      1  0.4709220000000  0.4859280000000  0.4386400000000 1.0
C      1  0.5619680000000  0.5293640000000  0.4853050000000 1.0
C      1  0.5619710000000  0.4711590000000  0.5139840000000 1.0
C      1  0.4374010000000  0.5293150000000  0.5136630000000 1.0
END
