TITL C-114179-1211-34 0.00880554142729659 1000000 -1735.64170978938 0 0 240 (C2v) n - 1
REM
REM in /home/chem/mssmkc/work/GAP20/Larger-Clusters/Only-C240/New/BUILD-ONLY
REM
REM
REM
REM
REM
REM ./C.cell (daee87de7206da95283bc1c1416dbc6f)
REM
REM compiler GCC version 8.3.0
REM options -cpp -mtune=generic -march=x86-64 -g -O0
REM seed 610146560 1555260646 -264008189 -22497677 -67958179 1672649929 270881582 145851119 2123465263 85966284 871629186 1807884049 1324632936 1672975618 336546167 836712094 -1817207581 1131190960 548600015 1549856683 1986218847 1909355916 1077270774 65161949 155260118 556078850 1726522619 -1054910319 121899825 -1147487298 1423494195 -595095780 -1488340739
REM
CELL 1.54180  100.00000  100.00000  100.00000   90.00000   90.00000   90.00000
LATT -1
SFAC C  
C      1  0.4923580000000  0.5546630000000  0.5177630000000 1.0
C      1  0.5175020000000  0.4924350000000  0.5545620000000 1.0
C      1  0.5546140000000  0.5174040000000  0.4925150000000 1.0
C      1  0.4925720000000  0.4452540000000  0.4826750000000 1.0
C      1  0.5076430000000  0.4453400000000  0.5177700000000 1.0
C      1  0.5074270000000  0.5547440000000  0.4826660000000 1.0
C      1  0.5180430000000  0.5082750000000  0.4428220000000 1.0
C      1  0.4825040000000  0.5075730000000  0.5545620000000 1.0
C      1  0.4819510000000  0.4917170000000  0.4428250000000 1.0
C      1  0.5548030000000  0.4823480000000  0.5078890000000 1.0
C      1  0.4453850000000  0.4825950000000  0.4925240000000 1.0
C      1  0.4451980000000  0.5176530000000  0.5078920000000 1.0
C      1  0.4924350000000  0.5175040000000  0.5545610000000 1.0
C      1  0.5174090000000  0.5546120000000  0.4925150000000 1.0
C      1  0.5546620000000  0.4923550000000  0.5177640000000 1.0
C      1  0.4917170000000  0.4819510000000  0.4428260000000 1.0
C      1  0.5082770000000  0.5180410000000  0.4428220000000 1.0
C      1  0.5075700000000  0.4825040000000  0.5545630000000 1.0
C      1  0.5176490000000  0.4451960000000  0.5078940000000 1.0
C      1  0.4823520000000  0.5548050000000  0.5078880000000 1.0
C      1  0.4825910000000  0.4453870000000  0.4925240000000 1.0
C      1  0.5547440000000  0.5074220000000  0.4826670000000 1.0
C      1  0.4452540000000  0.4925750000000  0.4826740000000 1.0
C      1  0.4453400000000  0.5076480000000  0.5177690000000 1.0
C      1  0.5513690000000  0.4687490000000  0.5116120000000 1.0
C      1  0.5109950000000  0.5511940000000  0.4689460000000 1.0
C      1  0.4688440000000  0.5113110000000  0.5514000000000 1.0
C      1  0.5511030000000  0.5310070000000  0.4887530000000 1.0
C      1  0.4486320000000  0.5312530000000  0.5116130000000 1.0
C      1  0.4488960000000  0.4689910000000  0.4887630000000 1.0
C      1  0.5113300000000  0.4486970000000  0.5313990000000 1.0
C      1  0.4890020000000  0.4488010000000  0.4689550000000 1.0
C      1  0.4886730000000  0.5513070000000  0.5313930000000 1.0
C      1  0.4690190000000  0.4877650000000  0.4479330000000 1.0
C      1  0.5311610000000  0.4886970000000  0.5513980000000 1.0
C      1  0.5309750000000  0.5122270000000  0.4479280000000 1.0
C      1  0.5511960000000  0.5109900000000  0.4689470000000 1.0
C      1  0.5113070000000  0.4688440000000  0.5514010000000 1.0
C      1  0.4687530000000  0.5513720000000  0.5116100000000 1.0
C      1  0.5513060000000  0.4886700000000  0.5313940000000 1.0
C      1  0.4486980000000  0.5113350000000  0.5313980000000 1.0
C      1  0.4488010000000  0.4890050000000  0.4689540000000 1.0
C      1  0.5122310000000  0.5309730000000  0.4479280000000 1.0
C      1  0.4877640000000  0.4690190000000  0.4479330000000 1.0
C      1  0.4886980000000  0.5311630000000  0.5513970000000 1.0
C      1  0.4689880000000  0.4488980000000  0.4887630000000 1.0
C      1  0.5310110000000  0.5511000000000  0.4887530000000 1.0
C      1  0.5312480000000  0.4486300000000  0.5116150000000 1.0
C      1  0.5243920000000  0.4856390000000  0.4313020000000 1.0
C      1  0.4393850000000  0.5330690000000  0.4770200000000 1.0
C      1  0.4769350000000  0.4386400000000  0.5329800000000 1.0
C      1  0.5328570000000  0.5230280000000  0.5616140000000 1.0
C      1  0.4756010000000  0.5143510000000  0.4313020000000 1.0
C      1  0.4671500000000  0.4769810000000  0.5616210000000 1.0
C      1  0.4386560000000  0.4671510000000  0.5231050000000 1.0
C      1  0.5606130000000  0.4669280000000  0.4770190000000 1.0
C      1  0.5613460000000  0.5328530000000  0.5230940000000 1.0
C      1  0.4763270000000  0.5598790000000  0.4668370000000 1.0
C      1  0.5230680000000  0.5613650000000  0.5329690000000 1.0
C      1  0.5236700000000  0.4401160000000  0.4668430000000 1.0
C      1  0.5330650000000  0.4393820000000  0.4770220000000 1.0
C      1  0.4386370000000  0.4769410000000  0.5329790000000 1.0
C      1  0.4856420000000  0.5243920000000  0.4313010000000 1.0
C      1  0.5328570000000  0.5613440000000  0.5230930000000 1.0
C      1  0.4671450000000  0.4386590000000  0.5231050000000 1.0
C      1  0.4669330000000  0.5606150000000  0.4770170000000 1.0
C      1  0.4401190000000  0.5236740000000  0.4668410000000 1.0
C      1  0.5598780000000  0.4763210000000  0.4668390000000 1.0
C      1  0.5613660000000  0.5230640000000  0.5329700000000 1.0
C      1  0.4769780000000  0.4671530000000  0.5616210000000 1.0
C      1  0.5230290000000  0.5328560000000  0.5616140000000 1.0
C      1  0.5143510000000  0.4755980000000  0.4313030000000 1.0
C      1  0.4837080000000  0.5548280000000  0.4939530000000 1.0
C      1  0.4936270000000  0.4838710000000  0.5545150000000 1.0
C      1  0.5549170000000  0.4935360000000  0.4843130000000 1.0
C      1  0.4839470000000  0.4455760000000  0.5065030000000 1.0
C      1  0.5162910000000  0.4451710000000  0.4939600000000 1.0
C      1  0.5160530000000  0.5544250000000  0.5064930000000 1.0
C      1  0.4933650000000  0.5174080000000  0.4433050000000 1.0
C      1  0.5063780000000  0.5161370000000  0.5545120000000 1.0
C      1  0.5066290000000  0.4825840000000  0.4433070000000 1.0
C      1  0.5544520000000  0.5063080000000  0.5162910000000 1.0
C      1  0.4450820000000  0.5064620000000  0.4843180000000 1.0
C      1  0.4455500000000  0.4936940000000  0.5162970000000 1.0
C      1  0.4838690000000  0.4936300000000  0.5545140000000 1.0
C      1  0.4935410000000  0.5549170000000  0.4843120000000 1.0
C      1  0.5548270000000  0.4837040000000  0.4939550000000 1.0
C      1  0.4825850000000  0.5066290000000  0.4433060000000 1.0
C      1  0.5174090000000  0.4933630000000  0.4433060000000 1.0
C      1  0.5161370000000  0.5063780000000  0.5545120000000 1.0
C      1  0.4936890000000  0.4455510000000  0.5162980000000 1.0
C      1  0.5063120000000  0.5544510000000  0.5162900000000 1.0
C      1  0.5064580000000  0.4450810000000  0.4843190000000 1.0
C      1  0.5544270000000  0.5160490000000  0.5064940000000 1.0
C      1  0.4455740000000  0.4839520000000  0.5065020000000 1.0
C      1  0.4451720000000  0.5162960000000  0.4939580000000 1.0
C      1  0.4399080000000  0.4498930000000  0.5073330000000 1.0
C      1  0.5098380000000  0.4435190000000  0.4483920000000 1.0
C      1  0.4544730000000  0.5072930000000  0.4396620000000 1.0
C      1  0.4397670000000  0.5502480000000  0.4929380000000 1.0
C      1  0.5600930000000  0.5501090000000  0.5073200000000 1.0
C      1  0.5602320000000  0.4497510000000  0.4929390000000 1.0
C      1  0.5074270000000  0.5601790000000  0.5503680000000 1.0
C      1  0.4901570000000  0.5564730000000  0.4483850000000 1.0
C      1  0.4925790000000  0.4398280000000  0.5503780000000 1.0
C      1  0.4497860000000  0.4926350000000  0.5603790000000 1.0
C      1  0.5455210000000  0.4926980000000  0.4396580000000 1.0
C      1  0.5502210000000  0.5073740000000  0.5603730000000 1.0
C      1  0.4435210000000  0.5098410000000  0.4483910000000 1.0
C      1  0.5072910000000  0.4544710000000  0.4396630000000 1.0
C      1  0.4498880000000  0.4399120000000  0.5073330000000 1.0
C      1  0.4398260000000  0.4925840000000  0.5503770000000 1.0
C      1  0.5601790000000  0.5074230000000  0.5503690000000 1.0
C      1  0.5564740000000  0.4901510000000  0.4483860000000 1.0
C      1  0.5073770000000  0.5502210000000  0.5603720000000 1.0
C      1  0.4926300000000  0.4497870000000  0.5603800000000 1.0
C      1  0.4927030000000  0.5455200000000  0.4396570000000 1.0
C      1  0.4497560000000  0.5602360000000  0.4929370000000 1.0
C      1  0.5502430000000  0.4397630000000  0.4929410000000 1.0
C      1  0.5501130000000  0.5600890000000  0.5073190000000 1.0
C      1  0.4606020000000  0.4499470000000  0.5006410000000 1.0
C      1  0.5000440000000  0.4618840000000  0.4510820000000 1.0
C      1  0.4505140000000  0.5008580000000  0.4607730000000 1.0
C      1  0.4604580000000  0.5502010000000  0.4996910000000 1.0
C      1  0.5393980000000  0.5500530000000  0.5006300000000 1.0
C      1  0.5395420000000  0.4497990000000  0.4996950000000 1.0
C      1  0.5005990000000  0.5395270000000  0.5503540000000 1.0
C      1  0.4999510000000  0.5381090000000  0.4510770000000 1.0
C      1  0.4994060000000  0.4604800000000  0.5503600000000 1.0
C      1  0.4498100000000  0.4994010000000  0.5397030000000 1.0
C      1  0.5494820000000  0.4991360000000  0.4607680000000 1.0
C      1  0.5501940000000  0.5006050000000  0.5396970000000 1.0
C      1  0.4618850000000  0.5000460000000  0.4510810000000 1.0
C      1  0.5008550000000  0.4505130000000  0.4607740000000 1.0
C      1  0.4499440000000  0.4606060000000  0.5006410000000 1.0
C      1  0.4604790000000  0.4994100000000  0.5503590000000 1.0
C      1  0.5395260000000  0.5005980000000  0.5503550000000 1.0
C      1  0.5381100000000  0.4999470000000  0.4510780000000 1.0
C      1  0.5006080000000  0.5501950000000  0.5396960000000 1.0
C      1  0.4993960000000  0.4498110000000  0.5397040000000 1.0
C      1  0.4991400000000  0.5494810000000  0.4607670000000 1.0
C      1  0.4498020000000  0.5395460000000  0.4996930000000 1.0
C      1  0.5501980000000  0.4604540000000  0.4996930000000 1.0
C      1  0.5500560000000  0.5393940000000  0.5006300000000 1.0
C      1  0.4497190000000  0.4707630000000  0.5121080000000 1.0
C      1  0.5119050000000  0.4501440000000  0.4712830000000 1.0
C      1  0.4733890000000  0.5082440000000  0.4545520000000 1.0
C      1  0.4498030000000  0.5293570000000  0.4883180000000 1.0
C      1  0.5502820000000  0.5292380000000  0.5120990000000 1.0
C      1  0.5501960000000  0.4706420000000  0.4883170000000 1.0
C      1  0.5120090000000  0.5503450000000  0.5294510000000 1.0
C      1  0.4880920000000  0.5498520000000  0.4712770000000 1.0
C      1  0.4879940000000  0.4496590000000  0.5294600000000 1.0
C      1  0.4706590000000  0.4879660000000  0.5505360000000 1.0
C      1  0.5266060000000  0.4917490000000  0.4545510000000 1.0
C      1  0.5293460000000  0.5120410000000  0.5505310000000 1.0
C      1  0.4501460000000  0.5119090000000  0.4712820000000 1.0
C      1  0.5082430000000  0.4733880000000  0.4545530000000 1.0
C      1  0.4707590000000  0.4497210000000  0.5121090000000 1.0
C      1  0.4496570000000  0.4879990000000  0.5294590000000 1.0
C      1  0.5503460000000  0.5120060000000  0.5294520000000 1.0
C      1  0.5498510000000  0.4880870000000  0.4712780000000 1.0
C      1  0.5120430000000  0.5293460000000  0.5505310000000 1.0
C      1  0.4879630000000  0.4706610000000  0.5505370000000 1.0
C      1  0.4917520000000  0.5266060000000  0.4545500000000 1.0
C      1  0.4706460000000  0.5501980000000  0.4883150000000 1.0
C      1  0.5293530000000  0.4498000000000  0.4883200000000 1.0
C      1  0.5292420000000  0.5502800000000  0.5120980000000 1.0
C      1  0.4766310000000  0.4666010000000  0.4562630000000 1.0
C      1  0.4563910000000  0.4770300000000  0.4666390000000 1.0
C      1  0.4668540000000  0.4564710000000  0.4767850000000 1.0
C      1  0.4766570000000  0.5335130000000  0.5440170000000 1.0
C      1  0.5233640000000  0.5333920000000  0.4562560000000 1.0
C      1  0.5233480000000  0.4664930000000  0.5440200000000 1.0
C      1  0.4561420000000  0.5233600000000  0.5337280000000 1.0
C      1  0.5436060000000  0.5229650000000  0.4666310000000 1.0
C      1  0.5438610000000  0.4766450000000  0.5337270000000 1.0
C      1  0.4664650000000  0.5438770000000  0.5235990000000 1.0
C      1  0.5331430000000  0.5435260000000  0.4767750000000 1.0
C      1  0.5335370000000  0.4561270000000  0.5236020000000 1.0
C      1  0.4770270000000  0.4563920000000  0.4666400000000 1.0
C      1  0.4564690000000  0.4668570000000  0.4767850000000 1.0
C      1  0.4666000000000  0.4766330000000  0.4562630000000 1.0
C      1  0.4766480000000  0.5438640000000  0.5337250000000 1.0
C      1  0.5233560000000  0.4561410000000  0.5337290000000 1.0
C      1  0.5229700000000  0.5436040000000  0.4666310000000 1.0
C      1  0.4561290000000  0.5335410000000  0.5236000000000 1.0
C      1  0.5438740000000  0.4664620000000  0.5236000000000 1.0
C      1  0.5435290000000  0.5331390000000  0.4767760000000 1.0
C      1  0.4664940000000  0.5233510000000  0.5440180000000 1.0
C      1  0.5335100000000  0.4766550000000  0.5440180000000 1.0
C      1  0.5333950000000  0.5233610000000  0.4562560000000 1.0
C      1  0.5181690000000  0.5373960000000  0.5279800000000 1.0
C      1  0.5278930000000  0.5182550000000  0.5376140000000 1.0
C      1  0.5373510000000  0.5277680000000  0.5182960000000 1.0
C      1  0.5169920000000  0.4634220000000  0.4739500000000 1.0
C      1  0.4818340000000  0.4626080000000  0.5279870000000 1.0
C      1  0.4830050000000  0.5365740000000  0.4739460000000 1.0
C      1  0.5255130000000  0.4845120000000  0.4658510000000 1.0
C      1  0.4721110000000  0.4817510000000  0.5376190000000 1.0
C      1  0.4744830000000  0.5154830000000  0.4658510000000 1.0
C      1  0.5369210000000  0.4726900000000  0.4827890000000 1.0
C      1  0.4626510000000  0.4722350000000  0.5183040000000 1.0
C      1  0.4630770000000  0.5273080000000  0.4827890000000 1.0
C      1  0.5182560000000  0.5278930000000  0.5376140000000 1.0
C      1  0.5277710000000  0.5373500000000  0.5182950000000 1.0
C      1  0.5373970000000  0.5181660000000  0.5279800000000 1.0
C      1  0.5154820000000  0.4744810000000  0.4658520000000 1.0
C      1  0.4845140000000  0.5255140000000  0.4658500000000 1.0
C      1  0.4817480000000  0.4721130000000  0.5376200000000 1.0
C      1  0.5273050000000  0.4630750000000  0.4827900000000 1.0
C      1  0.4726930000000  0.5369230000000  0.4827880000000 1.0
C      1  0.4722310000000  0.4626530000000  0.5183040000000 1.0
C      1  0.5365730000000  0.4830020000000  0.4739470000000 1.0
C      1  0.4634240000000  0.5169940000000  0.4739490000000 1.0
C      1  0.4626060000000  0.4818380000000  0.5279860000000 1.0
C      1  0.5667490000000  0.4559850000000  0.4824490000000 1.0
C      1  0.4795150000000  0.5629310000000  0.4540000000000 1.0
C      1  0.4560090000000  0.4823210000000  0.5672070000000 1.0
C      1  0.5669290000000  0.5439530000000  0.5176790000000 1.0
C      1  0.4332490000000  0.5440120000000  0.4824500000000 1.0
C      1  0.4330720000000  0.4560500000000  0.5176920000000 1.0
C      1  0.4822130000000  0.4330720000000  0.5441480000000 1.0
C      1  0.5204810000000  0.4370620000000  0.4540070000000 1.0
C      1  0.5177920000000  0.5669340000000  0.5441370000000 1.0
C      1  0.4621710000000  0.5123790000000  0.4294520000000 1.0
C      1  0.5439980000000  0.5176890000000  0.5672000000000 1.0
C      1  0.5378220000000  0.4876110000000  0.4294500000000 1.0
C      1  0.5629300000000  0.4795090000000  0.4540020000000 1.0
C      1  0.4823160000000  0.4560120000000  0.5672070000000 1.0
C      1  0.4559910000000  0.5667520000000  0.4824470000000 1.0
C      1  0.5669350000000  0.5177880000000  0.5441380000000 1.0
C      1  0.4330700000000  0.4822190000000  0.5441470000000 1.0
C      1  0.4370650000000  0.5204840000000  0.4540050000000 1.0
C      1  0.4876150000000  0.5378210000000  0.4294490000000 1.0
C      1  0.5123770000000  0.4621680000000  0.4294530000000 1.0
C      1  0.5176910000000  0.5439980000000  0.5671990000000 1.0
C      1  0.4560450000000  0.4330760000000  0.5176930000000 1.0
C      1  0.5439570000000  0.5669260000000  0.5176780000000 1.0
C      1  0.5440070000000  0.4332450000000  0.4824520000000 1.0
END
