TITL C-114181-47-41 228.478254825802 1000000 -1732.78442975171 0 0 240 (C1) n - 1
REM
REM in /home/chem/mssmkc/work/GAP20/Larger-Clusters/Only-C240/New/BUILD-ONLY
REM
REM
REM
REM
REM
REM ./C.cell (daee87de7206da95283bc1c1416dbc6f)
REM
REM compiler GCC version 8.3.0
REM options -cpp -mtune=generic -march=x86-64 -g -O0
REM seed 1732688755 45143996 354420781 1408340211 -1984758818 1850247127 -1920168549 -2037498383 -2030130295 878708931 -1360815538 730169799 275203771 1986072759 -454718189 -2121040887 101640338 1171962664 -1010872273 -1122026049 26299416 1428989272 -286590916 -758989115 -469539275 -719312172 -1628423129 -1007469774 1890249986 1060882420 -2134875340 -1394206010 -1607919574
REM
CELL 1.54180  100.00000  100.00000  100.00000   90.00000   90.00000   90.00000
LATT -1
SFAC C  
C      1  0.4631570000000  0.5500410000000  0.4695570000000 1.0
C      1  0.5497640000000  0.4693120000000  0.4632210000000 1.0
C      1  0.4692380000000  0.4628470000000  0.5497580000000 1.0
C      1  0.5358150000000  0.4498940000000  0.4690110000000 1.0
C      1  0.4640790000000  0.4494090000000  0.5295560000000 1.0
C      1  0.5378160000000  0.5495650000000  0.5298130000000 1.0
C      1  0.4500970000000  0.5299210000000  0.4640050000000 1.0
C      1  0.5497400000000  0.5295600000000  0.5381160000000 1.0
C      1  0.4501300000000  0.4688540000000  0.5356270000000 1.0
C      1  0.5296310000000  0.5377780000000  0.5499320000000 1.0
C      1  0.4692880000000  0.5360160000000  0.4501490000000 1.0
C      1  0.5300600000000  0.4635800000000  0.4497250000000 1.0
C      1  0.4630560000000  0.5505680000000  0.5301100000000 1.0
C      1  0.5499010000000  0.4694200000000  0.5377690000000 1.0
C      1  0.4696140000000  0.4635110000000  0.4496950000000 1.0
C      1  0.5358040000000  0.4508840000000  0.5299070000000 1.0
C      1  0.4636720000000  0.4497010000000  0.4691550000000 1.0
C      1  0.5375130000000  0.5500170000000  0.4698480000000 1.0
C      1  0.4507960000000  0.5298010000000  0.5360570000000 1.0
C      1  0.5504300000000  0.5301000000000  0.4637030000000 1.0
C      1  0.4501010000000  0.4693760000000  0.4635060000000 1.0
C      1  0.5301360000000  0.5364130000000  0.4509540000000 1.0
C      1  0.4695350000000  0.5373950000000  0.5500320000000 1.0
C      1  0.5296910000000  0.4630300000000  0.5506400000000 1.0
C      1  0.4924740000000  0.5075000000000  0.4378580000000 1.0
C      1  0.5071480000000  0.4380360000000  0.4922210000000 1.0
C      1  0.4380010000000  0.4921650000000  0.5071230000000 1.0
C      1  0.5071130000000  0.4932530000000  0.4372490000000 1.0
C      1  0.4918880000000  0.4897810000000  0.5632000000000 1.0
C      1  0.5061330000000  0.5044110000000  0.5626560000000 1.0
C      1  0.4898900000000  0.5631110000000  0.4923240000000 1.0
C      1  0.5044630000000  0.5626900000000  0.5066070000000 1.0
C      1  0.4923970000000  0.4381340000000  0.5065180000000 1.0
C      1  0.5611370000000  0.5062170000000  0.5041980000000 1.0
C      1  0.4381030000000  0.5067930000000  0.4928450000000 1.0
C      1  0.5630850000000  0.4918760000000  0.4895970000000 1.0
C      1  0.4916370000000  0.5041730000000  0.5633820000000 1.0
C      1  0.5068690000000  0.4390530000000  0.5066550000000 1.0
C      1  0.4378360000000  0.4923150000000  0.4925760000000 1.0
C      1  0.5062940000000  0.4899940000000  0.5627760000000 1.0
C      1  0.4926120000000  0.4929740000000  0.4373510000000 1.0
C      1  0.5069440000000  0.5077950000000  0.4380520000000 1.0
C      1  0.4900390000000  0.5628080000000  0.5067290000000 1.0
C      1  0.5042820000000  0.5633210000000  0.4921400000000 1.0
C      1  0.4926220000000  0.4371760000000  0.4920780000000 1.0
C      1  0.5629770000000  0.5065150000000  0.4898480000000 1.0
C      1  0.4384600000000  0.5066430000000  0.5073740000000 1.0
C      1  0.5616330000000  0.4918770000000  0.5039800000000 1.0
C      1  0.5171630000000  0.4683380000000  0.5551620000000 1.0
C      1  0.4683210000000  0.5551780000000  0.5175870000000 1.0
C      1  0.5555650000000  0.5177820000000  0.4689430000000 1.0
C      1  0.4833350000000  0.5339200000000  0.5533830000000 1.0
C      1  0.5169340000000  0.5305530000000  0.4480340000000 1.0
C      1  0.4827230000000  0.4691990000000  0.4471550000000 1.0
C      1  0.5296810000000  0.4484930000000  0.5166950000000 1.0
C      1  0.4696570000000  0.4470390000000  0.4820740000000 1.0
C      1  0.5341150000000  0.5533240000000  0.4837300000000 1.0
C      1  0.4475320000000  0.4823070000000  0.4694930000000 1.0
C      1  0.5535680000000  0.4832070000000  0.5346200000000 1.0
C      1  0.4481910000000  0.5166750000000  0.5299530000000 1.0
C      1  0.5167870000000  0.4688690000000  0.4469720000000 1.0
C      1  0.4684060000000  0.5548300000000  0.4819090000000 1.0
C      1  0.5524300000000  0.5158020000000  0.5340970000000 1.0
C      1  0.4824760000000  0.5303750000000  0.4477160000000 1.0
C      1  0.5158970000000  0.5337700000000  0.5527140000000 1.0
C      1  0.4814890000000  0.4680490000000  0.5548660000000 1.0
C      1  0.5298670000000  0.4476950000000  0.4821950000000 1.0
C      1  0.4692420000000  0.4447710000000  0.5170620000000 1.0
C      1  0.5337440000000  0.5523480000000  0.5160750000000 1.0
C      1  0.4476250000000  0.4821030000000  0.5299500000000 1.0
C      1  0.5551320000000  0.4813380000000  0.4686310000000 1.0
C      1  0.4477980000000  0.5168410000000  0.4699280000000 1.0
C      1  0.4692320000000  0.4927920000000  0.4437830000000 1.0
C      1  0.4927600000000  0.4432850000000  0.4685130000000 1.0
C      1  0.4440090000000  0.4688140000000  0.4924790000000 1.0
C      1  0.5300010000000  0.5073430000000  0.4450610000000 1.0
C      1  0.4688340000000  0.5049800000000  0.5561040000000 1.0
C      1  0.5298630000000  0.4911570000000  0.5578450000000 1.0
C      1  0.5052100000000  0.5559770000000  0.4694190000000 1.0
C      1  0.4912160000000  0.5577730000000  0.5303270000000 1.0
C      1  0.5065420000000  0.4450940000000  0.5296930000000 1.0
C      1  0.5580320000000  0.5297180000000  0.4911430000000 1.0
C      1  0.4445860000000  0.5299490000000  0.5071410000000 1.0
C      1  0.5559710000000  0.4690790000000  0.5051860000000 1.0
C      1  0.4681950000000  0.4908160000000  0.5563190000000 1.0
C      1  0.4924760000000  0.4447260000000  0.5299490000000 1.0
C      1  0.4440830000000  0.4686760000000  0.5066470000000 1.0
C      1  0.5290630000000  0.5054490000000  0.5571620000000 1.0
C      1  0.4690910000000  0.5070040000000  0.4438910000000 1.0
C      1  0.5301590000000  0.4932340000000  0.4445200000000 1.0
C      1  0.5055210000000  0.5570030000000  0.5294620000000 1.0
C      1  0.4910560000000  0.5563720000000  0.4686890000000 1.0
C      1  0.5070130000000  0.4434560000000  0.4686090000000 1.0
C      1  0.5570360000000  0.5290560000000  0.5056820000000 1.0
C      1  0.4442650000000  0.5301230000000  0.4929860000000 1.0
C      1  0.5565240000000  0.4687700000000  0.4907350000000 1.0
C      1  0.4711230000000  0.4806390000000  0.5190580000000 1.0
C      1  0.4812740000000  0.5190080000000  0.4710610000000 1.0
C      1  0.5205860000000  0.4711120000000  0.4795770000000 1.0
C      1  0.5307310000000  0.5204770000000  0.5216830000000 1.0
C      1  0.4712930000000  0.5189300000000  0.4811030000000 1.0
C      1  0.5264850000000  0.4838100000000  0.4804790000000 1.0
C      1  0.5194830000000  0.4802030000000  0.4690630000000 1.0
C      1  0.4816170000000  0.4817730000000  0.5286440000000 1.0
C      1  0.5202160000000  0.5214290000000  0.5308360000000 1.0
C      1  0.4820770000000  0.5281160000000  0.4819500000000 1.0
C      1  0.5211860000000  0.5306120000000  0.5203220000000 1.0
C      1  0.4819570000000  0.4714390000000  0.5188550000000 1.0
C      1  0.4711660000000  0.4805220000000  0.4803860000000 1.0
C      1  0.4819590000000  0.5195720000000  0.5323290000000 1.0
C      1  0.5226590000000  0.4727810000000  0.5184630000000 1.0
C      1  0.5263070000000  0.5201070000000  0.4830280000000 1.0
C      1  0.4723700000000  0.5186690000000  0.5218470000000 1.0
C      1  0.5328690000000  0.4821320000000  0.5204760000000 1.0
C      1  0.5208260000000  0.4831200000000  0.5280240000000 1.0
C      1  0.4812920000000  0.4804520000000  0.4705010000000 1.0
C      1  0.5194920000000  0.5232410000000  0.4712950000000 1.0
C      1  0.4828770000000  0.5280730000000  0.5208690000000 1.0
C      1  0.5206390000000  0.5326170000000  0.4816610000000 1.0
C      1  0.4810470000000  0.4704500000000  0.4804280000000 1.0
C      1  0.4853490000000  0.4867810000000  0.5401190000000 1.0
C      1  0.4877070000000  0.5394900000000  0.4856610000000 1.0
C      1  0.5302220000000  0.4954390000000  0.4860590000000 1.0
C      1  0.5150100000000  0.5211030000000  0.5445320000000 1.0
C      1  0.4845340000000  0.5193770000000  0.4581730000000 1.0
C      1  0.5149030000000  0.4797870000000  0.4565040000000 1.0
C      1  0.5193040000000  0.4585000000000  0.4838490000000 1.0
C      1  0.4877990000000  0.4603450000000  0.5149410000000 1.0
C      1  0.5209870000000  0.5443460000000  0.5151510000000 1.0
C      1  0.4584830000000  0.5152920000000  0.4807630000000 1.0
C      1  0.5442240000000  0.5150610000000  0.5215090000000 1.0
C      1  0.4582180000000  0.4839180000000  0.5191270000000 1.0
C      1  0.4846380000000  0.4801780000000  0.4574760000000 1.0
C      1  0.4870750000000  0.5392880000000  0.5152190000000 1.0
C      1  0.5469750000000  0.4847380000000  0.5218520000000 1.0
C      1  0.5148030000000  0.5203020000000  0.4591450000000 1.0
C      1  0.4845120000000  0.5209520000000  0.5466060000000 1.0
C      1  0.5147230000000  0.4871820000000  0.5391070000000 1.0
C      1  0.5199080000000  0.4601080000000  0.5149400000000 1.0
C      1  0.4806400000000  0.4575370000000  0.4837480000000 1.0
C      1  0.5213280000000  0.5467260000000  0.4850260000000 1.0
C      1  0.4597230000000  0.5149450000000  0.5195010000000 1.0
C      1  0.5303520000000  0.5080220000000  0.4875070000000 1.0
C      1  0.4583040000000  0.4840260000000  0.4804400000000 1.0
C      1  0.4493610000000  0.5067000000000  0.4593530000000 1.0
C      1  0.5067490000000  0.4583950000000  0.4485220000000 1.0
C      1  0.4596870000000  0.4486440000000  0.5066920000000 1.0
C      1  0.5503580000000  0.4925910000000  0.4601660000000 1.0
C      1  0.4490850000000  0.4922260000000  0.5405170000000 1.0
C      1  0.5498170000000  0.5065980000000  0.5448890000000 1.0
C      1  0.4925160000000  0.5409810000000  0.4492480000000 1.0
C      1  0.5067070000000  0.5445370000000  0.5500680000000 1.0
C      1  0.4922920000000  0.4590590000000  0.5507130000000 1.0
C      1  0.5445210000000  0.5495590000000  0.5069230000000 1.0
C      1  0.4592620000000  0.5506460000000  0.4926420000000 1.0
C      1  0.5402670000000  0.4498760000000  0.4923920000000 1.0
C      1  0.4498300000000  0.5064150000000  0.5403970000000 1.0
C      1  0.5066510000000  0.4592890000000  0.5506000000000 1.0
C      1  0.4594060000000  0.4489040000000  0.4924710000000 1.0
C      1  0.5505070000000  0.4924610000000  0.5452140000000 1.0
C      1  0.4494270000000  0.4926450000000  0.4592110000000 1.0
C      1  0.5503250000000  0.5069240000000  0.4604550000000 1.0
C      1  0.4925420000000  0.5447050000000  0.5506430000000 1.0
C      1  0.5066700000000  0.5408970000000  0.4499850000000 1.0
C      1  0.4927110000000  0.4585680000000  0.4486700000000 1.0
C      1  0.5447300000000  0.5499380000000  0.4928420000000 1.0
C      1  0.4592720000000  0.5506460000000  0.5070320000000 1.0
C      1  0.5401250000000  0.4501540000000  0.5064930000000 1.0
C      1  0.5599650000000  0.5179860000000  0.4825720000000 1.0
C      1  0.5167190000000  0.4834460000000  0.5549360000000 1.0
C      1  0.4834530000000  0.5549710000000  0.5171500000000 1.0
C      1  0.4446580000000  0.4819080000000  0.4855210000000 1.0
C      1  0.5559270000000  0.4817640000000  0.5112280000000 1.0
C      1  0.4455370000000  0.5169250000000  0.5144460000000 1.0
C      1  0.4817000000000  0.5108990000000  0.5564100000000 1.0
C      1  0.5171210000000  0.5147400000000  0.4454160000000 1.0
C      1  0.4823430000000  0.4859260000000  0.4442870000000 1.0
C      1  0.5138710000000  0.4461040000000  0.5168650000000 1.0
C      1  0.4857580000000  0.4438120000000  0.4814550000000 1.0
C      1  0.5109660000000  0.5560970000000  0.4823550000000 1.0
C      1  0.5546820000000  0.5162660000000  0.5113780000000 1.0
C      1  0.5173440000000  0.4862290000000  0.4439480000000 1.0
C      1  0.4834930000000  0.5546990000000  0.4821790000000 1.0
C      1  0.4447550000000  0.4816090000000  0.5138270000000 1.0
C      1  0.5593590000000  0.4805720000000  0.4823000000000 1.0
C      1  0.4447450000000  0.5171970000000  0.4857830000000 1.0
C      1  0.4820080000000  0.5141250000000  0.4448010000000 1.0
C      1  0.5160320000000  0.5111800000000  0.5551990000000 1.0
C      1  0.4817260000000  0.4832210000000  0.5548390000000 1.0
C      1  0.5140220000000  0.4448380000000  0.4816700000000 1.0
C      1  0.4845240000000  0.4456510000000  0.5163380000000 1.0
C      1  0.5111690000000  0.5550950000000  0.5164100000000 1.0
C      1  0.5496800000000  0.4589860000000  0.5132380000000 1.0
C      1  0.4587400000000  0.5131070000000  0.5499270000000 1.0
C      1  0.5133750000000  0.5500880000000  0.4592330000000 1.0
C      1  0.4501020000000  0.5411540000000  0.5136610000000 1.0
C      1  0.5531070000000  0.5413570000000  0.4851650000000 1.0
C      1  0.4498150000000  0.4577960000000  0.4857540000000 1.0
C      1  0.5414410000000  0.4848420000000  0.5534140000000 1.0
C      1  0.4582810000000  0.4859010000000  0.4495800000000 1.0
C      1  0.5409290000000  0.5136370000000  0.4512580000000 1.0
C      1  0.4858840000000  0.4491130000000  0.4575520000000 1.0
C      1  0.5132210000000  0.4502730000000  0.5410100000000 1.0
C      1  0.4849030000000  0.5532190000000  0.5418530000000 1.0
C      1  0.5501370000000  0.4577550000000  0.4850400000000 1.0
C      1  0.4580210000000  0.5136280000000  0.4497270000000 1.0
C      1  0.5138690000000  0.5523380000000  0.5402270000000 1.0
C      1  0.4498720000000  0.5412420000000  0.4862820000000 1.0
C      1  0.5523670000000  0.5398470000000  0.5140090000000 1.0
C      1  0.4500040000000  0.4576440000000  0.5132920000000 1.0
C      1  0.5408900000000  0.4863940000000  0.4507310000000 1.0
C      1  0.4571180000000  0.4848730000000  0.5504560000000 1.0
C      1  0.5399180000000  0.5137820000000  0.5525990000000 1.0
C      1  0.4860490000000  0.4495660000000  0.5413080000000 1.0
C      1  0.5137180000000  0.4490570000000  0.4574590000000 1.0
C      1  0.4851620000000  0.5507500000000  0.4574730000000 1.0
C      1  0.4593530000000  0.5275050000000  0.5473690000000 1.0
C      1  0.5277810000000  0.5476400000000  0.4595920000000 1.0
C      1  0.5471920000000  0.4593780000000  0.5277160000000 1.0
C      1  0.5411800000000  0.4709920000000  0.5489760000000 1.0
C      1  0.4585930000000  0.4718330000000  0.4522820000000 1.0
C      1  0.5409800000000  0.5277450000000  0.4533100000000 1.0
C      1  0.4718820000000  0.4521360000000  0.4580080000000 1.0
C      1  0.5273930000000  0.4525770000000  0.5410410000000 1.0
C      1  0.4710460000000  0.5488400000000  0.5415750000000 1.0
C      1  0.4525270000000  0.5410600000000  0.5278050000000 1.0
C      1  0.5488330000000  0.5415590000000  0.4713990000000 1.0
C      1  0.4524950000000  0.4581710000000  0.4716570000000 1.0
C      1  0.4583090000000  0.5276380000000  0.4525780000000 1.0
C      1  0.5281300000000  0.5484740000000  0.5402080000000 1.0
C      1  0.5471690000000  0.4579920000000  0.4711160000000 1.0
C      1  0.5407390000000  0.4722380000000  0.4525190000000 1.0
C      1  0.4578800000000  0.4709140000000  0.5472600000000 1.0
C      1  0.5400020000000  0.5280740000000  0.5487970000000 1.0
C      1  0.4719670000000  0.4519090000000  0.5408840000000 1.0
C      1  0.5277200000000  0.4521250000000  0.4578630000000 1.0
C      1  0.4712300000000  0.5475200000000  0.4581480000000 1.0
C      1  0.4522430000000  0.5410560000000  0.4721620000000 1.0
C      1  0.5486260000000  0.5399520000000  0.5283940000000 1.0
C      1  0.4526640000000  0.4579250000000  0.5272750000000 1.0
END
