TITL C-114179-1211-49 -0.0077930708142878 1000000 -1642.42033388913 0 0 240 (C1) n - 1
REM
REM in /home/chem/mssmkc/work/GAP20/Larger-Clusters/Only-C240/New/BUILD-ONLY
REM
REM
REM
REM
REM
REM ./C.cell (daee87de7206da95283bc1c1416dbc6f)
REM
REM compiler GCC version 8.3.0
REM options -cpp -mtune=generic -march=x86-64 -g -O0
REM seed -803794857 -597004103 -845585415 804561809 691061562 -1698167424 -889110248 -1866029659 -882484869 1983558184 -1028414687 -766402653 1665721882 -2091196120 -1631057799 -531250871 1869823123 1858935444 1369351508 -405748552 977005254 -582431178 641312416 -239287416 -1292184103 1821636463 1831841151 28043191 -1802962159 -1219593225 1473929487 -751686002 -1412024023
REM
CELL 1.54180  100.00000  100.00000  100.00000   90.00000   90.00000   90.00000
LATT -1
SFAC C  
C      1  0.5109600000000  0.4983270000000  0.4345740000000 1.0
C      1  0.4985130000000  0.4355600000000  0.5121080000000 1.0
C      1  0.4359890000000  0.5105360000000  0.5006560000000 1.0
C      1  0.4919420000000  0.5023140000000  0.5640190000000 1.0
C      1  0.4905040000000  0.4979790000000  0.4354450000000 1.0
C      1  0.5127930000000  0.5023100000000  0.5646600000000 1.0
C      1  0.4989880000000  0.4353460000000  0.4913010000000 1.0
C      1  0.5008410000000  0.5649310000000  0.5094880000000 1.0
C      1  0.5004030000000  0.5643110000000  0.4887890000000 1.0
C      1  0.5640880000000  0.5082580000000  0.4977310000000 1.0
C      1  0.5650870000000  0.4873780000000  0.4976870000000 1.0
C      1  0.4356020000000  0.4898950000000  0.5001790000000 1.0
C      1  0.4358780000000  0.4999960000000  0.5109420000000 1.0
C      1  0.5089290000000  0.4354030000000  0.5018980000000 1.0
C      1  0.5005880000000  0.5085310000000  0.4353420000000 1.0
C      1  0.5650690000000  0.4980620000000  0.4873330000000 1.0
C      1  0.4358760000000  0.5004570000000  0.4898760000000 1.0
C      1  0.5642500000000  0.4979620000000  0.5078660000000 1.0
C      1  0.4884120000000  0.4354270000000  0.5013190000000 1.0
C      1  0.5109400000000  0.5646240000000  0.4989520000000 1.0
C      1  0.4902290000000  0.5645420000000  0.4993620000000 1.0
C      1  0.5021570000000  0.5127510000000  0.5647510000000 1.0
C      1  0.5022380000000  0.4921220000000  0.5640350000000 1.0
C      1  0.5008550000000  0.4877640000000  0.4347290000000 1.0
C      1  0.4452650000000  0.4554720000000  0.4950170000000 1.0
C      1  0.4564500000000  0.4953950000000  0.4457150000000 1.0
C      1  0.4988650000000  0.4438390000000  0.4560040000000 1.0
C      1  0.5537580000000  0.4532620000000  0.5036060000000 1.0
C      1  0.5548100000000  0.5432430000000  0.4960320000000 1.0
C      1  0.4466420000000  0.5446580000000  0.5054670000000 1.0
C      1  0.5467830000000  0.4965030000000  0.5529690000000 1.0
C      1  0.5454080000000  0.5019340000000  0.4434360000000 1.0
C      1  0.4569450000000  0.5042400000000  0.5550490000000 1.0
C      1  0.5029780000000  0.4465370000000  0.5467650000000 1.0
C      1  0.5035030000000  0.5534360000000  0.4542610000000 1.0
C      1  0.4980210000000  0.5565750000000  0.5445640000000 1.0
C      1  0.4988280000000  0.4534140000000  0.4459300000000 1.0
C      1  0.4464680000000  0.4952680000000  0.4551480000000 1.0
C      1  0.4543710000000  0.4452740000000  0.4957240000000 1.0
C      1  0.5031890000000  0.4569280000000  0.5559420000000 1.0
C      1  0.4971650000000  0.5468540000000  0.5542010000000 1.0
C      1  0.5030230000000  0.5434830000000  0.4446560000000 1.0
C      1  0.5557720000000  0.4966890000000  0.5425820000000 1.0
C      1  0.4468340000000  0.5046790000000  0.5456990000000 1.0
C      1  0.5549210000000  0.5028230000000  0.4532610000000 1.0
C      1  0.5434400000000  0.4442030000000  0.5035800000000 1.0
C      1  0.4557400000000  0.5548040000000  0.5044570000000 1.0
C      1  0.5451050000000  0.5531350000000  0.4959260000000 1.0
C      1  0.4845520000000  0.4454260000000  0.4745340000000 1.0
C      1  0.4463860000000  0.4750290000000  0.4845770000000 1.0
C      1  0.4757820000000  0.4822560000000  0.4469000000000 1.0
C      1  0.5144810000000  0.4465260000000  0.5268350000000 1.0
C      1  0.5155300000000  0.5527490000000  0.4738950000000 1.0
C      1  0.4854450000000  0.5549600000000  0.5253900000000 1.0
C      1  0.5540040000000  0.4731710000000  0.5141810000000 1.0
C      1  0.5533740000000  0.5239980000000  0.4827210000000 1.0
C      1  0.4473910000000  0.5251540000000  0.5161120000000 1.0
C      1  0.5268930000000  0.4856820000000  0.5534980000000 1.0
C      1  0.5260250000000  0.5145330000000  0.4449640000000 1.0
C      1  0.4762270000000  0.5172730000000  0.5532660000000 1.0
C      1  0.4743100000000  0.4460170000000  0.4840000000000 1.0
C      1  0.4858550000000  0.4723900000000  0.4460040000000 1.0
C      1  0.4467260000000  0.4849260000000  0.4749650000000 1.0
C      1  0.5244330000000  0.4464810000000  0.5169270000000 1.0
C      1  0.4756180000000  0.5541090000000  0.5157980000000 1.0
C      1  0.5256120000000  0.5528570000000  0.4838100000000 1.0
C      1  0.5167830000000  0.4759710000000  0.5535280000000 1.0
C      1  0.4858450000000  0.5273890000000  0.5538150000000 1.0
C      1  0.5160200000000  0.5241750000000  0.4457790000000 1.0
C      1  0.5536160000000  0.4832860000000  0.5237370000000 1.0
C      1  0.4471510000000  0.5152970000000  0.5258520000000 1.0
C      1  0.5541460000000  0.5143340000000  0.4726390000000 1.0
C      1  0.5173230000000  0.5444310000000  0.5626370000000 1.0
C      1  0.5383350000000  0.5600620000000  0.5187010000000 1.0
C      1  0.5520610000000  0.5279870000000  0.5546520000000 1.0
C      1  0.4693740000000  0.5588180000000  0.4560140000000 1.0
C      1  0.4684520000000  0.4420720000000  0.5449660000000 1.0
C      1  0.5213370000000  0.4612850000000  0.4396710000000 1.0
C      1  0.4367980000000  0.5533450000000  0.4785740000000 1.0
C      1  0.4360060000000  0.4469600000000  0.5222620000000 1.0
C      1  0.5558210000000  0.4475820000000  0.4723590000000 1.0
C      1  0.4408860000000  0.5175440000000  0.4575900000000 1.0
C      1  0.4402280000000  0.4827420000000  0.5429440000000 1.0
C      1  0.5636420000000  0.4827020000000  0.4563210000000 1.0
C      1  0.5449230000000  0.5594190000000  0.5293400000000 1.0
C      1  0.5243100000000  0.5546700000000  0.5631170000000 1.0
C      1  0.5444110000000  0.5186910000000  0.5583790000000 1.0
C      1  0.4374440000000  0.5430400000000  0.4854930000000 1.0
C      1  0.5593460000000  0.4554820000000  0.4815120000000 1.0
C      1  0.4366480000000  0.4572260000000  0.5152830000000 1.0
C      1  0.4808120000000  0.5599720000000  0.4609530000000 1.0
C      1  0.5318630000000  0.4545490000000  0.4404530000000 1.0
C      1  0.4799530000000  0.4406710000000  0.5403050000000 1.0
C      1  0.4440660000000  0.5269760000000  0.4499200000000 1.0
C      1  0.5649470000000  0.4755600000000  0.4462840000000 1.0
C      1  0.4432270000000  0.4734100000000  0.5507800000000 1.0
C      1  0.4688240000000  0.4900670000000  0.5422340000000 1.0
C      1  0.4890660000000  0.5409590000000  0.4680120000000 1.0
C      1  0.5414130000000  0.4669710000000  0.4892560000000 1.0
C      1  0.5328410000000  0.4884540000000  0.4576370000000 1.0
C      1  0.5328310000000  0.5108030000000  0.5408710000000 1.0
C      1  0.4688510000000  0.5098550000000  0.4581280000000 1.0
C      1  0.5112170000000  0.5423510000000  0.5322780000000 1.0
C      1  0.5112000000000  0.4580130000000  0.4689850000000 1.0
C      1  0.4886360000000  0.4590990000000  0.5327460000000 1.0
C      1  0.4571970000000  0.4679530000000  0.5108470000000 1.0
C      1  0.4578780000000  0.5319430000000  0.4894460000000 1.0
C      1  0.5413530000000  0.5307660000000  0.5097280000000 1.0
C      1  0.5427190000000  0.4878650000000  0.4672630000000 1.0
C      1  0.4675520000000  0.5418320000000  0.4898780000000 1.0
C      1  0.4898230000000  0.4694030000000  0.5420650000000 1.0
C      1  0.4586370000000  0.4894380000000  0.5327330000000 1.0
C      1  0.5419330000000  0.5100630000000  0.5304590000000 1.0
C      1  0.4588830000000  0.5103180000000  0.4678310000000 1.0
C      1  0.5317420000000  0.5408450000000  0.5104490000000 1.0
C      1  0.4667320000000  0.4579450000000  0.5103700000000 1.0
C      1  0.5311920000000  0.4576940000000  0.4899130000000 1.0
C      1  0.5116460000000  0.4675920000000  0.4589510000000 1.0
C      1  0.4895060000000  0.5309660000000  0.4583200000000 1.0
C      1  0.5119120000000  0.5328610000000  0.5422910000000 1.0
C      1  0.5603510000000  0.5014770000000  0.4749500000000 1.0
C      1  0.5037330000000  0.4794200000000  0.5588940000000 1.0
C      1  0.4777090000000  0.5595090000000  0.5024380000000 1.0
C      1  0.4406670000000  0.5025960000000  0.5237730000000 1.0
C      1  0.4406170000000  0.4977970000000  0.4770280000000 1.0
C      1  0.5589630000000  0.4963480000000  0.5204080000000 1.0
C      1  0.4986450000000  0.4753410000000  0.4401330000000 1.0
C      1  0.4987050000000  0.5251960000000  0.5601040000000 1.0
C      1  0.5026780000000  0.5211090000000  0.4407200000000 1.0
C      1  0.5233280000000  0.5591370000000  0.4965510000000 1.0
C      1  0.5214180000000  0.4406320000000  0.5039020000000 1.0
C      1  0.4761900000000  0.4404310000000  0.4974420000000 1.0
C      1  0.4793090000000  0.5041930000000  0.5587740000000 1.0
C      1  0.5601960000000  0.4749230000000  0.5011110000000 1.0
C      1  0.5027790000000  0.5589400000000  0.4763180000000 1.0
C      1  0.5233900000000  0.5011370000000  0.4395710000000 1.0
C      1  0.4783200000000  0.4954570000000  0.4411690000000 1.0
C      1  0.5251880000000  0.4987980000000  0.5596870000000 1.0
C      1  0.4399320000000  0.4771250000000  0.4972280000000 1.0
C      1  0.5585050000000  0.5207770000000  0.4959480000000 1.0
C      1  0.4408010000000  0.5231440000000  0.5035240000000 1.0
C      1  0.4986800000000  0.5603620000000  0.5223190000000 1.0
C      1  0.5015220000000  0.4406830000000  0.5245950000000 1.0
C      1  0.4976250000000  0.4403620000000  0.4784880000000 1.0
C      1  0.5310670000000  0.5092460000000  0.5203160000000 1.0
C      1  0.5099220000000  0.5213190000000  0.5331480000000 1.0
C      1  0.5203800000000  0.5318530000000  0.5101870000000 1.0
C      1  0.4681040000000  0.5094990000000  0.4792500000000 1.0
C      1  0.4676330000000  0.4901160000000  0.5211440000000 1.0
C      1  0.5334040000000  0.4897740000000  0.4786470000000 1.0
C      1  0.4904640000000  0.5203640000000  0.4686540000000 1.0
C      1  0.4902530000000  0.4796410000000  0.5313940000000 1.0
C      1  0.5106270000000  0.4789950000000  0.4678770000000 1.0
C      1  0.4786960000000  0.5319310000000  0.4903390000000 1.0
C      1  0.4781260000000  0.4676330000000  0.5100140000000 1.0
C      1  0.5207540000000  0.4683760000000  0.4907270000000 1.0
C      1  0.5208250000000  0.5098610000000  0.5324050000000 1.0
C      1  0.5308880000000  0.5202590000000  0.5092750000000 1.0
C      1  0.5096220000000  0.5321430000000  0.5215700000000 1.0
C      1  0.4796200000000  0.5091890000000  0.4685320000000 1.0
C      1  0.5219040000000  0.4899410000000  0.4676440000000 1.0
C      1  0.4792550000000  0.4906520000000  0.5315610000000 1.0
C      1  0.4675730000000  0.5208570000000  0.4902340000000 1.0
C      1  0.5327570000000  0.4788400000000  0.4901880000000 1.0
C      1  0.4670610000000  0.4788630000000  0.5101170000000 1.0
C      1  0.4899120000000  0.5319100000000  0.4793860000000 1.0
C      1  0.5099250000000  0.4684260000000  0.4795550000000 1.0
C      1  0.4892160000000  0.4677640000000  0.5211000000000 1.0
C      1  0.4927720000000  0.4450940000000  0.5360930000000 1.0
C      1  0.4443110000000  0.5349080000000  0.4948270000000 1.0
C      1  0.5343040000000  0.4928630000000  0.4440800000000 1.0
C      1  0.5068540000000  0.4445500000000  0.4680250000000 1.0
C      1  0.5069790000000  0.5559890000000  0.5333580000000 1.0
C      1  0.4934860000000  0.5549360000000  0.4650870000000 1.0
C      1  0.5545280000000  0.5316510000000  0.5047150000000 1.0
C      1  0.5553580000000  0.4630130000000  0.4928510000000 1.0
C      1  0.4434290000000  0.4652340000000  0.5057980000000 1.0
C      1  0.4682040000000  0.4954910000000  0.5552370000000 1.0
C      1  0.4675770000000  0.5041880000000  0.4452550000000 1.0
C      1  0.5370010000000  0.5071330000000  0.5547160000000 1.0
C      1  0.5320940000000  0.4444810000000  0.4949940000000 1.0
C      1  0.4942110000000  0.5320390000000  0.4450220000000 1.0
C      1  0.4449010000000  0.4940860000000  0.5358310000000 1.0
C      1  0.4649370000000  0.4448270000000  0.5052720000000 1.0
C      1  0.5342090000000  0.5548200000000  0.5060490000000 1.0
C      1  0.4662500000000  0.5551140000000  0.4947680000000 1.0
C      1  0.5074730000000  0.5366680000000  0.5560920000000 1.0
C      1  0.4947000000000  0.4686090000000  0.5553260000000 1.0
C      1  0.5084500000000  0.4648600000000  0.4447070000000 1.0
C      1  0.5565740000000  0.4925460000000  0.4635730000000 1.0
C      1  0.4449830000000  0.5060770000000  0.4648770000000 1.0
C      1  0.5552430000000  0.5052410000000  0.5311610000000 1.0
C      1  0.5160960000000  0.5378360000000  0.4500000000000 1.0
C      1  0.5382810000000  0.4502750000000  0.5165490000000 1.0
C      1  0.4519220000000  0.5165860000000  0.5392330000000 1.0
C      1  0.4849500000000  0.5409030000000  0.5492280000000 1.0
C      1  0.4860230000000  0.4587260000000  0.4501500000000 1.0
C      1  0.5162570000000  0.4620510000000  0.5499500000000 1.0
C      1  0.4608560000000  0.4507940000000  0.4832030000000 1.0
C      1  0.4622690000000  0.5493280000000  0.5170030000000 1.0
C      1  0.5391640000000  0.5481630000000  0.4836340000000 1.0
C      1  0.5498310000000  0.5150570000000  0.4590380000000 1.0
C      1  0.5497090000000  0.4836540000000  0.5375020000000 1.0
C      1  0.4515740000000  0.4833380000000  0.4616410000000 1.0
C      1  0.4524110000000  0.5385570000000  0.5172530000000 1.0
C      1  0.5151340000000  0.4512430000000  0.5403350000000 1.0
C      1  0.5397730000000  0.5149370000000  0.4485230000000 1.0
C      1  0.5493280000000  0.5377640000000  0.4829870000000 1.0
C      1  0.4509630000000  0.4615550000000  0.4831690000000 1.0
C      1  0.5491480000000  0.4598960000000  0.5156360000000 1.0
C      1  0.4853250000000  0.4486750000000  0.4606050000000 1.0
C      1  0.5156670000000  0.5481540000000  0.4602580000000 1.0
C      1  0.4849790000000  0.5513690000000  0.5390980000000 1.0
C      1  0.4625310000000  0.5170750000000  0.5491140000000 1.0
C      1  0.5401260000000  0.4844620000000  0.5483630000000 1.0
C      1  0.4621670000000  0.4825700000000  0.4516660000000 1.0
C      1  0.4663300000000  0.4997010000000  0.4901260000000 1.0
C      1  0.5008860000000  0.4895800000000  0.4647030000000 1.0
C      1  0.4890170000000  0.4655270000000  0.4998570000000 1.0
C      1  0.5308340000000  0.4991510000000  0.5094340000000 1.0
C      1  0.5355430000000  0.5000070000000  0.4892720000000 1.0
C      1  0.4658840000000  0.5000350000000  0.5103450000000 1.0
C      1  0.5003830000000  0.4905550000000  0.5306140000000 1.0
C      1  0.5008320000000  0.5097200000000  0.4669940000000 1.0
C      1  0.4996910000000  0.5106770000000  0.5353870000000 1.0
C      1  0.5097190000000  0.4666230000000  0.5005760000000 1.0
C      1  0.5095820000000  0.5347380000000  0.5006280000000 1.0
C      1  0.4893180000000  0.5336680000000  0.5007060000000 1.0
C      1  0.4906840000000  0.4993160000000  0.4669740000000 1.0
C      1  0.4655800000000  0.4895880000000  0.5000490000000 1.0
C      1  0.4995700000000  0.4665160000000  0.4901000000000 1.0
C      1  0.5100420000000  0.5000800000000  0.5350880000000 1.0
C      1  0.4900200000000  0.5009520000000  0.5310840000000 1.0
C      1  0.5112710000000  0.5000200000000  0.4648050000000 1.0
C      1  0.5354560000000  0.4896330000000  0.4998650000000 1.0
C      1  0.4662710000000  0.5101420000000  0.5003750000000 1.0
C      1  0.5308990000000  0.5094830000000  0.4990040000000 1.0
C      1  0.4992490000000  0.4654620000000  0.5103100000000 1.0
C      1  0.4993000000000  0.5347250000000  0.5110770000000 1.0
C      1  0.4996750000000  0.5336960000000  0.4904720000000 1.0
END
