TITL C-114180-423-12 12.194079848636 1000000 -1706.16217097696 0 0 240 (C1) n - 1
REM
REM in /home/chem/mssmkc/work/GAP20/Larger-Clusters/Only-C240/New/BUILD-ONLY
REM
REM
REM
REM
REM
REM ./C.cell (daee87de7206da95283bc1c1416dbc6f)
REM
REM compiler GCC version 8.3.0
REM options -cpp -mtune=generic -march=x86-64 -g -O0
REM seed -1793015510 -2118841055 -1406009680 552919445 -1068759985 156202325 -1843497465 51279367 698268653 -474709444 630830314 802492149 1323719408 1299384128 1803741817 -1731694405 866973446 -1175929561 -1711347829 429773638 943750614 -1559147787 -1323801888 1727587573 -1762672606 318738712 -1522153901 373978298 -614321284 270532831 -908409918 -419389723 -1708349742
REM
CELL 1.54180  100.00000  100.00000  100.00000   90.00000   90.00000   90.00000
LATT -1
SFAC C  
C      1  0.5157740000000  0.4427670000000  0.5281780000000 1.0
C      1  0.4439110000000  0.5272500000000  0.5158370000000 1.0
C      1  0.5277470000000  0.5159170000000  0.4458230000000 1.0
C      1  0.4851710000000  0.5576650000000  0.5279590000000 1.0
C      1  0.5140930000000  0.5613360000000  0.4711630000000 1.0
C      1  0.4836060000000  0.4425450000000  0.4725070000000 1.0
C      1  0.5562280000000  0.4722030000000  0.5156200000000 1.0
C      1  0.4454730000000  0.4716930000000  0.4850150000000 1.0
C      1  0.5572450000000  0.5270750000000  0.4835830000000 1.0
C      1  0.4715580000000  0.4865300000000  0.4397170000000 1.0
C      1  0.5275320000000  0.4851960000000  0.5564480000000 1.0
C      1  0.4727200000000  0.5143740000000  0.5544680000000 1.0
C      1  0.5150860000000  0.4445990000000  0.4730750000000 1.0
C      1  0.4443680000000  0.5272900000000  0.4840670000000 1.0
C      1  0.5274200000000  0.5153900000000  0.5566650000000 1.0
C      1  0.4829350000000  0.5581290000000  0.4724690000000 1.0
C      1  0.5148620000000  0.5550660000000  0.5262490000000 1.0
C      1  0.4854700000000  0.4431320000000  0.5281770000000 1.0
C      1  0.5580250000000  0.4713500000000  0.4859640000000 1.0
C      1  0.4438990000000  0.4717120000000  0.5154190000000 1.0
C      1  0.5558710000000  0.5269970000000  0.5151050000000 1.0
C      1  0.4727720000000  0.4844890000000  0.5554970000000 1.0
C      1  0.5268420000000  0.4838280000000  0.4452530000000 1.0
C      1  0.4724790000000  0.5176270000000  0.4428660000000 1.0
C      1  0.4628820000000  0.4718480000000  0.4519920000000 1.0
C      1  0.4675270000000  0.4546910000000  0.4659610000000 1.0
C      1  0.4584110000000  0.4650990000000  0.4634030000000 1.0
C      1  0.5348940000000  0.5371470000000  0.4583920000000 1.0
C      1  0.4659920000000  0.5353860000000  0.5429230000000 1.0
C      1  0.5342320000000  0.4639490000000  0.5451450000000 1.0
C      1  0.5286250000000  0.5489050000000  0.4625120000000 1.0
C      1  0.4647020000000  0.5468590000000  0.5363750000000 1.0
C      1  0.5359170000000  0.4544170000000  0.5352570000000 1.0
C      1  0.5449120000000  0.5337370000000  0.4676690000000 1.0
C      1  0.4561530000000  0.5354810000000  0.5316240000000 1.0
C      1  0.5447700000000  0.4650290000000  0.5361970000000 1.0
C      1  0.4650990000000  0.4636150000000  0.5451890000000 1.0
C      1  0.4640640000000  0.4543520000000  0.5349850000000 1.0
C      1  0.4543840000000  0.4642720000000  0.5364060000000 1.0
C      1  0.5340610000000  0.5354100000000  0.5447180000000 1.0
C      1  0.4653810000000  0.5379400000000  0.4546260000000 1.0
C      1  0.5350370000000  0.4677720000000  0.4572410000000 1.0
C      1  0.5350180000000  0.5435460000000  0.5335660000000 1.0
C      1  0.4627850000000  0.5460880000000  0.4657230000000 1.0
C      1  0.5358760000000  0.4564710000000  0.4669680000000 1.0
C      1  0.5443150000000  0.5334710000000  0.5358200000000 1.0
C      1  0.4546320000000  0.5350870000000  0.4631810000000 1.0
C      1  0.5470640000000  0.4633940000000  0.4656080000000 1.0
C      1  0.5072090000000  0.4368350000000  0.4825190000000 1.0
C      1  0.4373560000000  0.4817520000000  0.5071830000000 1.0
C      1  0.4822680000000  0.5093920000000  0.4354930000000 1.0
C      1  0.4912680000000  0.5657490000000  0.4820490000000 1.0
C      1  0.5069320000000  0.5632600000000  0.5171210000000 1.0
C      1  0.4933220000000  0.4361200000000  0.5180700000000 1.0
C      1  0.5634840000000  0.5174130000000  0.5072880000000 1.0
C      1  0.4373100000000  0.5174680000000  0.4923010000000 1.0
C      1  0.5645540000000  0.4817540000000  0.4935290000000 1.0
C      1  0.5182260000000  0.4932220000000  0.4384770000000 1.0
C      1  0.4822770000000  0.4925030000000  0.5630580000000 1.0
C      1  0.5175130000000  0.5074470000000  0.5638230000000 1.0
C      1  0.5077480000000  0.4358760000000  0.5181620000000 1.0
C      1  0.4377880000000  0.4816090000000  0.4927370000000 1.0
C      1  0.4821680000000  0.5069180000000  0.5626490000000 1.0
C      1  0.4925770000000  0.5645400000000  0.5176980000000 1.0
C      1  0.5058610000000  0.5664780000000  0.4813270000000 1.0
C      1  0.4925650000000  0.4366160000000  0.4819040000000 1.0
C      1  0.5634460000000  0.5178710000000  0.4925970000000 1.0
C      1  0.4374720000000  0.5179270000000  0.5069320000000 1.0
C      1  0.5638540000000  0.4818990000000  0.5078480000000 1.0
C      1  0.5176020000000  0.4929830000000  0.5637860000000 1.0
C      1  0.4817830000000  0.4948270000000  0.4348540000000 1.0
C      1  0.5181340000000  0.5079700000000  0.4380940000000 1.0
C      1  0.4316870000000  0.4918680000000  0.4854510000000 1.0
C      1  0.4929600000000  0.4868650000000  0.4305930000000 1.0
C      1  0.4853950000000  0.4305610000000  0.4927050000000 1.0
C      1  0.5694280000000  0.5070670000000  0.4853500000000 1.0
C      1  0.4316690000000  0.5072650000000  0.5143690000000 1.0
C      1  0.5698170000000  0.4922800000000  0.5151260000000 1.0
C      1  0.5082480000000  0.5154210000000  0.4314500000000 1.0
C      1  0.4921130000000  0.5145430000000  0.5689420000000 1.0
C      1  0.5072970000000  0.4855250000000  0.5697650000000 1.0
C      1  0.5139820000000  0.5710030000000  0.4922730000000 1.0
C      1  0.4849180000000  0.5710920000000  0.5078040000000 1.0
C      1  0.5149730000000  0.4300480000000  0.5076250000000 1.0
C      1  0.4315150000000  0.4924390000000  0.5142430000000 1.0
C      1  0.4924370000000  0.4853600000000  0.5695850000000 1.0
C      1  0.4859970000000  0.4304980000000  0.5074870000000 1.0
C      1  0.5696890000000  0.5071740000000  0.5147320000000 1.0
C      1  0.4314370000000  0.5068430000000  0.4852100000000 1.0
C      1  0.5703050000000  0.4923010000000  0.4861110000000 1.0
C      1  0.5069530000000  0.5148050000000  0.5695240000000 1.0
C      1  0.4932930000000  0.5162670000000  0.4305480000000 1.0
C      1  0.5075470000000  0.4861900000000  0.4323100000000 1.0
C      1  0.5142580000000  0.5692110000000  0.5068410000000 1.0
C      1  0.4842680000000  0.5709060000000  0.4929230000000 1.0
C      1  0.5146170000000  0.4306230000000  0.4927280000000 1.0
C      1  0.4710970000000  0.5563310000000  0.5280660000000 1.0
C      1  0.5549900000000  0.5240540000000  0.4696460000000 1.0
C      1  0.5264790000000  0.4710860000000  0.5545250000000 1.0
C      1  0.5297370000000  0.4449170000000  0.5268340000000 1.0
C      1  0.4695100000000  0.4439770000000  0.4748900000000 1.0
C      1  0.5285970000000  0.5594540000000  0.4717390000000 1.0
C      1  0.4482980000000  0.4727990000000  0.4710530000000 1.0
C      1  0.5540940000000  0.4734800000000  0.5296210000000 1.0
C      1  0.4451840000000  0.5259550000000  0.5298520000000 1.0
C      1  0.4734790000000  0.5283090000000  0.5523990000000 1.0
C      1  0.5271010000000  0.5299060000000  0.4481570000000 1.0
C      1  0.4720090000000  0.4720280000000  0.4413230000000 1.0
C      1  0.4691260000000  0.5549840000000  0.4748760000000 1.0
C      1  0.5541220000000  0.5259490000000  0.5291820000000 1.0
C      1  0.5245940000000  0.4699280000000  0.4470340000000 1.0
C      1  0.5289530000000  0.4467270000000  0.4742680000000 1.0
C      1  0.4713310000000  0.4450140000000  0.5272060000000 1.0
C      1  0.5287320000000  0.5522730000000  0.5243440000000 1.0
C      1  0.4452740000000  0.4726900000000  0.5295640000000 1.0
C      1  0.5565670000000  0.4716010000000  0.4719240000000 1.0
C      1  0.4461600000000  0.5258580000000  0.4699540000000 1.0
C      1  0.4744120000000  0.5315780000000  0.4455280000000 1.0
C      1  0.5259410000000  0.5292950000000  0.5544260000000 1.0
C      1  0.4738040000000  0.4704570000000  0.5540640000000 1.0
C      1  0.5448260000000  0.4490860000000  0.5074670000000 1.0
C      1  0.4497610000000  0.5062620000000  0.5444250000000 1.0
C      1  0.5080250000000  0.5463600000000  0.4493800000000 1.0
C      1  0.4560610000000  0.5503310000000  0.5095310000000 1.0
C      1  0.5435070000000  0.5503010000000  0.4896660000000 1.0
C      1  0.4551130000000  0.4482620000000  0.4942300000000 1.0
C      1  0.5505730000000  0.4930040000000  0.5448360000000 1.0
C      1  0.4498020000000  0.4923290000000  0.4548770000000 1.0
C      1  0.5494300000000  0.5039110000000  0.4562660000000 1.0
C      1  0.4896050000000  0.4565410000000  0.4496470000000 1.0
C      1  0.5076490000000  0.4550740000000  0.5513720000000 1.0
C      1  0.4924480000000  0.5444310000000  0.5497680000000 1.0
C      1  0.5449720000000  0.4491870000000  0.4932330000000 1.0
C      1  0.4502730000000  0.5066310000000  0.4546990000000 1.0
C      1  0.5066940000000  0.5443180000000  0.5498160000000 1.0
C      1  0.4555500000000  0.5495380000000  0.4953260000000 1.0
C      1  0.5436340000000  0.5485470000000  0.5039970000000 1.0
C      1  0.4553560000000  0.4483310000000  0.5083940000000 1.0
C      1  0.5502160000000  0.4898030000000  0.4570030000000 1.0
C      1  0.4495270000000  0.4920950000000  0.5445610000000 1.0
C      1  0.5508560000000  0.5072120000000  0.5450460000000 1.0
C      1  0.4933990000000  0.4551640000000  0.5510890000000 1.0
C      1  0.5037780000000  0.4560770000000  0.4513650000000 1.0
C      1  0.4937530000000  0.5466040000000  0.4498590000000 1.0
C      1  0.4319850000000  0.4924420000000  0.5288090000000 1.0
C      1  0.4941560000000  0.5307300000000  0.4319800000000 1.0
C      1  0.5291510000000  0.4317190000000  0.4928540000000 1.0
C      1  0.5685310000000  0.5070360000000  0.5292970000000 1.0
C      1  0.4325950000000  0.5062590000000  0.4707050000000 1.0
C      1  0.5695000000000  0.4915820000000  0.4715110000000 1.0
C      1  0.5066220000000  0.4716090000000  0.4329360000000 1.0
C      1  0.4928120000000  0.4708640000000  0.5685440000000 1.0
C      1  0.5064610000000  0.5292840000000  0.5680490000000 1.0
C      1  0.4697980000000  0.5689620000000  0.4939410000000 1.0
C      1  0.5287070000000  0.5672720000000  0.5062850000000 1.0
C      1  0.4714230000000  0.4308740000000  0.5079870000000 1.0
C      1  0.4329400000000  0.4918130000000  0.4710970000000 1.0
C      1  0.4921050000000  0.5289660000000  0.5674540000000 1.0
C      1  0.5294530000000  0.4312220000000  0.5072240000000 1.0
C      1  0.5687330000000  0.5058210000000  0.4708620000000 1.0
C      1  0.4319620000000  0.5067690000000  0.5288980000000 1.0
C      1  0.5684490000000  0.4926690000000  0.5295520000000 1.0
C      1  0.5071920000000  0.4710390000000  0.5687070000000 1.0
C      1  0.4925490000000  0.4721820000000  0.4311400000000 1.0
C      1  0.5085570000000  0.5298820000000  0.4325610000000 1.0
C      1  0.4704200000000  0.5695520000000  0.5082050000000 1.0
C      1  0.5286020000000  0.5694780000000  0.4922540000000 1.0
C      1  0.4708930000000  0.4305010000000  0.4936590000000 1.0
C      1  0.5463190000000  0.5346220000000  0.5075690000000 1.0
C      1  0.5360410000000  0.5084380000000  0.5473810000000 1.0
C      1  0.5075400000000  0.5459210000000  0.5347880000000 1.0
C      1  0.4536720000000  0.4633180000000  0.5089650000000 1.0
C      1  0.5476060000000  0.4639080000000  0.4926170000000 1.0
C      1  0.4536470000000  0.5356340000000  0.4911110000000 1.0
C      1  0.4646630000000  0.4911190000000  0.5454100000000 1.0
C      1  0.5365520000000  0.4838700000000  0.4569910000000 1.0
C      1  0.4639910000000  0.5108220000000  0.4519270000000 1.0
C      1  0.4928590000000  0.4524820000000  0.5363540000000 1.0
C      1  0.5075990000000  0.4539470000000  0.4652980000000 1.0
C      1  0.4895880000000  0.5492440000000  0.4636350000000 1.0
C      1  0.5450270000000  0.5373680000000  0.4826840000000 1.0
C      1  0.5356290000000  0.5083290000000  0.4550730000000 1.0
C      1  0.5135640000000  0.5486910000000  0.4624540000000 1.0
C      1  0.4541940000000  0.4632020000000  0.4929940000000 1.0
C      1  0.5467480000000  0.4640200000000  0.5083250000000 1.0
C      1  0.4559080000000  0.5366460000000  0.5153910000000 1.0
C      1  0.4628860000000  0.4868710000000  0.4524790000000 1.0
C      1  0.5356940000000  0.4925150000000  0.5469720000000 1.0
C      1  0.4646940000000  0.5070240000000  0.5449090000000 1.0
C      1  0.4826180000000  0.4549560000000  0.4625980000000 1.0
C      1  0.5088290000000  0.4521310000000  0.5366750000000 1.0
C      1  0.4918760000000  0.5469590000000  0.5349810000000 1.0
C      1  0.4628190000000  0.4393210000000  0.4864020000000 1.0
C      1  0.4426180000000  0.4844140000000  0.4643270000000 1.0
C      1  0.4838790000000  0.4645770000000  0.4390600000000 1.0
C      1  0.5359740000000  0.5612290000000  0.4837540000000 1.0
C      1  0.4639830000000  0.5601640000000  0.5161590000000 1.0
C      1  0.5365040000000  0.4404500000000  0.5150520000000 1.0
C      1  0.5589700000000  0.5121420000000  0.4631730000000 1.0
C      1  0.4409270000000  0.5141990000000  0.5367040000000 1.0
C      1  0.5588340000000  0.4851630000000  0.5364480000000 1.0
C      1  0.5157950000000  0.5367520000000  0.4422570000000 1.0
C      1  0.4847210000000  0.5355790000000  0.5576230000000 1.0
C      1  0.5149910000000  0.4641250000000  0.5594090000000 1.0
C      1  0.4644270000000  0.4402040000000  0.5157030000000 1.0
C      1  0.4408700000000  0.4845900000000  0.5361690000000 1.0
C      1  0.4854280000000  0.4636960000000  0.5590700000000 1.0
C      1  0.5354340000000  0.5567220000000  0.5124520000000 1.0
C      1  0.4629930000000  0.5587900000000  0.4871920000000 1.0
C      1  0.5359790000000  0.4414500000000  0.4855280000000 1.0
C      1  0.5591000000000  0.5146150000000  0.5361860000000 1.0
C      1  0.4417480000000  0.5139220000000  0.4634920000000 1.0
C      1  0.5602080000000  0.4835330000000  0.4649290000000 1.0
C      1  0.5142280000000  0.5361400000000  0.5586530000000 1.0
C      1  0.4864360000000  0.5379470000000  0.4411850000000 1.0
C      1  0.5125310000000  0.4636140000000  0.4428380000000 1.0
C      1  0.4924030000000  0.5340930000000  0.5264630000000 1.0
C      1  0.5333580000000  0.5296330000000  0.4896500000000 1.0
C      1  0.5286350000000  0.4948190000000  0.5334850000000 1.0
C      1  0.5078210000000  0.4652830000000  0.5288360000000 1.0
C      1  0.4895780000000  0.4665100000000  0.4702880000000 1.0
C      1  0.5072990000000  0.5370440000000  0.4709360000000 1.0
C      1  0.4680930000000  0.4701670000000  0.4951350000000 1.0
C      1  0.5333200000000  0.4714990000000  0.5058500000000 1.0
C      1  0.4677270000000  0.5298460000000  0.5078270000000 1.0
C      1  0.4705040000000  0.5049770000000  0.5303040000000 1.0
C      1  0.5286770000000  0.5033480000000  0.4670290000000 1.0
C      1  0.4714460000000  0.4931560000000  0.4638490000000 1.0
C      1  0.4947040000000  0.5377360000000  0.4714580000000 1.0
C      1  0.5352230000000  0.5268140000000  0.5017880000000 1.0
C      1  0.5295090000000  0.4909020000000  0.4689980000000 1.0
C      1  0.5017700000000  0.4649320000000  0.4730340000000 1.0
C      1  0.4951910000000  0.4658330000000  0.5290850000000 1.0
C      1  0.5049340000000  0.5322550000000  0.5271580000000 1.0
C      1  0.4674610000000  0.4701070000000  0.5078010000000 1.0
C      1  0.5345730000000  0.4724420000000  0.4932490000000 1.0
C      1  0.4657360000000  0.5283950000000  0.4954040000000 1.0
C      1  0.4720950000000  0.5057300000000  0.4633110000000 1.0
C      1  0.5284670000000  0.5074670000000  0.5339350000000 1.0
C      1  0.4709950000000  0.4923550000000  0.5311410000000 1.0
END
