TITL C-114181-47-31 6.55150959594488 1000000 -1742.20888781593 0 0 240 (Td) n - 1
REM
REM in /home/chem/mssmkc/work/GAP20/Larger-Clusters/Only-C240/New/BUILD-ONLY
REM
REM
REM
REM
REM
REM ./C.cell (daee87de7206da95283bc1c1416dbc6f)
REM
REM compiler GCC version 8.3.0
REM options -cpp -mtune=generic -march=x86-64 -g -O0
REM seed 1225450756 1643450424 -678311178 986911381 -101158759 -1385519592 2005171226 -1776957132 884292466 1514141993 -10400669 706001586 -615337730 -706757981 1902593422 -1143756699 -1575934079 134589668 -1185930700 -1952380997 -1634284613 359940208 -132281581 -988599823 1775383999 -547517472 -449720427 -1987897651 -1445632893 812013816 -1099412077 -92913253 2097542865
REM
CELL 1.54180  100.00000  100.00000  100.00000   90.00000   90.00000   90.00000
LATT -1
SFAC C  
C      1  0.5145960000000  0.5244500000000  0.5623910000000 1.0
C      1  0.5244510000000  0.5623900000000  0.5145990000000 1.0
C      1  0.5623900000000  0.5145960000000  0.5244530000000 1.0
C      1  0.4854000000000  0.4755500000000  0.5623900000000 1.0
C      1  0.5145990000000  0.4755490000000  0.4376100000000 1.0
C      1  0.4854050000000  0.5244510000000  0.4376090000000 1.0
C      1  0.4755480000000  0.4376100000000  0.5145960000000 1.0
C      1  0.5244500000000  0.4376090000000  0.4854030000000 1.0
C      1  0.4755510000000  0.5623910000000  0.4854020000000 1.0
C      1  0.4376080000000  0.4854040000000  0.5244480000000 1.0
C      1  0.5623910000000  0.4854010000000  0.4755520000000 1.0
C      1  0.4376100000000  0.5145990000000  0.4755470000000 1.0
C      1  0.5244490000000  0.5145970000000  0.5623920000000 1.0
C      1  0.5623910000000  0.5244490000000  0.5146000000000 1.0
C      1  0.5145980000000  0.5623900000000  0.5244510000000 1.0
C      1  0.4755470000000  0.4854030000000  0.5623900000000 1.0
C      1  0.4755520000000  0.5145980000000  0.4376080000000 1.0
C      1  0.5244530000000  0.4854020000000  0.4376100000000 1.0
C      1  0.4376080000000  0.4755510000000  0.5145950000000 1.0
C      1  0.4376100000000  0.5244520000000  0.4854000000000 1.0
C      1  0.5623910000000  0.4755480000000  0.4854050000000 1.0
C      1  0.4854000000000  0.4376090000000  0.5244500000000 1.0
C      1  0.4854050000000  0.5623910000000  0.4755490000000 1.0
C      1  0.5145970000000  0.4376090000000  0.4755500000000 1.0
C      1  0.4678020000000  0.5523810000000  0.5116320000000 1.0
C      1  0.5523820000000  0.5116320000000  0.4678030000000 1.0
C      1  0.5116300000000  0.4678010000000  0.5523810000000 1.0
C      1  0.5321970000000  0.4476190000000  0.5116340000000 1.0
C      1  0.4678010000000  0.4476200000000  0.4883660000000 1.0
C      1  0.5322000000000  0.5523800000000  0.4883680000000 1.0
C      1  0.4476210000000  0.4883680000000  0.4677990000000 1.0
C      1  0.5523790000000  0.4883660000000  0.5322000000000 1.0
C      1  0.4476190000000  0.5116340000000  0.5321970000000 1.0
C      1  0.4883660000000  0.5321990000000  0.5523800000000 1.0
C      1  0.5116360000000  0.5321990000000  0.4476200000000 1.0
C      1  0.4883680000000  0.4678020000000  0.4476190000000 1.0
C      1  0.5523790000000  0.4678000000000  0.5116350000000 1.0
C      1  0.5116350000000  0.5523800000000  0.4678020000000 1.0
C      1  0.4678000000000  0.5116330000000  0.5523790000000 1.0
C      1  0.4476200000000  0.5322000000000  0.5116310000000 1.0
C      1  0.4476200000000  0.4678020000000  0.4883650000000 1.0
C      1  0.5523810000000  0.5321980000000  0.4883690000000 1.0
C      1  0.4883670000000  0.4476200000000  0.4678010000000 1.0
C      1  0.4883670000000  0.5523800000000  0.5321980000000 1.0
C      1  0.5116310000000  0.4476190000000  0.5321990000000 1.0
C      1  0.5321960000000  0.4883660000000  0.5523810000000 1.0
C      1  0.5322010000000  0.5116330000000  0.4476210000000 1.0
C      1  0.4678030000000  0.4883680000000  0.4476180000000 1.0
C      1  0.4806970000000  0.5583900000000  0.5095060000000 1.0
C      1  0.5583910000000  0.5095050000000  0.4806980000000 1.0
C      1  0.5095040000000  0.4806960000000  0.5583900000000 1.0
C      1  0.5193020000000  0.4416100000000  0.5095070000000 1.0
C      1  0.4806950000000  0.4416110000000  0.4904930000000 1.0
C      1  0.5193050000000  0.5583890000000  0.4904950000000 1.0
C      1  0.4416110000000  0.4904950000000  0.4806940000000 1.0
C      1  0.5583890000000  0.4904920000000  0.5193060000000 1.0
C      1  0.4416100000000  0.5095070000000  0.5193020000000 1.0
C      1  0.4904920000000  0.5193040000000  0.5583890000000 1.0
C      1  0.5095090000000  0.5193040000000  0.4416110000000 1.0
C      1  0.4904950000000  0.4806970000000  0.4416100000000 1.0
C      1  0.5583890000000  0.4806950000000  0.5095080000000 1.0
C      1  0.5095080000000  0.5583900000000  0.4806970000000 1.0
C      1  0.4806940000000  0.5095070000000  0.5583890000000 1.0
C      1  0.4416100000000  0.5193050000000  0.5095040000000 1.0
C      1  0.4416100000000  0.4806970000000  0.4904910000000 1.0
C      1  0.5583900000000  0.5193030000000  0.4904960000000 1.0
C      1  0.4904930000000  0.4416100000000  0.4806960000000 1.0
C      1  0.4904940000000  0.5583900000000  0.5193040000000 1.0
C      1  0.5095050000000  0.4416100000000  0.5193040000000 1.0
C      1  0.5193020000000  0.4904930000000  0.5583900000000 1.0
C      1  0.5193060000000  0.5095060000000  0.4416110000000 1.0
C      1  0.4806980000000  0.4904940000000  0.4416090000000 1.0
C      1  0.5553420000000  0.4954820000000  0.4846210000000 1.0
C      1  0.4954810000000  0.4846190000000  0.5553420000000 1.0
C      1  0.4846200000000  0.5553420000000  0.4954830000000 1.0
C      1  0.4446590000000  0.5045180000000  0.4846170000000 1.0
C      1  0.5553410000000  0.5045160000000  0.5153830000000 1.0
C      1  0.4446570000000  0.4954840000000  0.5153790000000 1.0
C      1  0.5045150000000  0.5153810000000  0.5553420000000 1.0
C      1  0.4954850000000  0.5153810000000  0.4446580000000 1.0
C      1  0.5045190000000  0.4846190000000  0.4446580000000 1.0
C      1  0.5153800000000  0.4446580000000  0.4954830000000 1.0
C      1  0.4846180000000  0.4446580000000  0.5045160000000 1.0
C      1  0.5153820000000  0.5553420000000  0.5045180000000 1.0
C      1  0.4954850000000  0.5553420000000  0.4846190000000 1.0
C      1  0.4846170000000  0.4954830000000  0.5553410000000 1.0
C      1  0.5553420000000  0.4846180000000  0.4954850000000 1.0
C      1  0.5045170000000  0.4446580000000  0.4846190000000 1.0
C      1  0.5045180000000  0.5553420000000  0.5153810000000 1.0
C      1  0.4954810000000  0.4446580000000  0.5153810000000 1.0
C      1  0.5153790000000  0.5045170000000  0.5553420000000 1.0
C      1  0.5153830000000  0.4954830000000  0.4446590000000 1.0
C      1  0.4846210000000  0.5045180000000  0.4446580000000 1.0
C      1  0.4446590000000  0.5153820000000  0.4954810000000 1.0
C      1  0.4446580000000  0.4846200000000  0.5045150000000 1.0
C      1  0.5553420000000  0.5153800000000  0.5045190000000 1.0
C      1  0.4656330000000  0.5237930000000  0.5447490000000 1.0
C      1  0.5237940000000  0.5447500000000  0.4656350000000 1.0
C      1  0.5447480000000  0.4656330000000  0.5237940000000 1.0
C      1  0.5343640000000  0.4762070000000  0.5447510000000 1.0
C      1  0.4656350000000  0.4762080000000  0.4552490000000 1.0
C      1  0.5343680000000  0.5237920000000  0.4552510000000 1.0
C      1  0.4762080000000  0.4552510000000  0.4656330000000 1.0
C      1  0.5237900000000  0.4552490000000  0.5343670000000 1.0
C      1  0.4762070000000  0.5447500000000  0.5343650000000 1.0
C      1  0.4552500000000  0.5343670000000  0.5237910000000 1.0
C      1  0.5447510000000  0.5343650000000  0.4762090000000 1.0
C      1  0.4552500000000  0.4656350000000  0.4762060000000 1.0
C      1  0.5237900000000  0.4656340000000  0.5447510000000 1.0
C      1  0.5447520000000  0.5237920000000  0.4656360000000 1.0
C      1  0.4656340000000  0.5447510000000  0.5237910000000 1.0
C      1  0.4762070000000  0.5343660000000  0.5447490000000 1.0
C      1  0.4762090000000  0.4656350000000  0.4552490000000 1.0
C      1  0.5237950000000  0.5343650000000  0.4552510000000 1.0
C      1  0.4552510000000  0.4762090000000  0.4656320000000 1.0
C      1  0.4552490000000  0.5237930000000  0.5343640000000 1.0
C      1  0.5447480000000  0.4762070000000  0.5343670000000 1.0
C      1  0.5343640000000  0.4552490000000  0.5237930000000 1.0
C      1  0.5343680000000  0.5447490000000  0.4762090000000 1.0
C      1  0.4656340000000  0.4552510000000  0.4762060000000 1.0
C      1  0.5278030000000  0.5481620000000  0.5381700000000 1.0
C      1  0.5481620000000  0.5381680000000  0.5278050000000 1.0
C      1  0.5381680000000  0.5278020000000  0.5481640000000 1.0
C      1  0.4721940000000  0.4518380000000  0.5381680000000 1.0
C      1  0.5278040000000  0.4518370000000  0.4618320000000 1.0
C      1  0.4721990000000  0.5481630000000  0.4618300000000 1.0
C      1  0.4518360000000  0.4618320000000  0.5278010000000 1.0
C      1  0.5481630000000  0.4618300000000  0.4721980000000 1.0
C      1  0.4518400000000  0.5381700000000  0.4721950000000 1.0
C      1  0.4618290000000  0.4721970000000  0.5481610000000 1.0
C      1  0.5381700000000  0.4721960000000  0.4518390000000 1.0
C      1  0.4618330000000  0.5278040000000  0.4518360000000 1.0
C      1  0.5481610000000  0.5278020000000  0.5381710000000 1.0
C      1  0.5381690000000  0.5481610000000  0.5278050000000 1.0
C      1  0.5278020000000  0.5381680000000  0.5481630000000 1.0
C      1  0.4518360000000  0.4721970000000  0.5381670000000 1.0
C      1  0.4518400000000  0.5278040000000  0.4618300000000 1.0
C      1  0.5481630000000  0.4721960000000  0.4618330000000 1.0
C      1  0.4618290000000  0.4518380000000  0.5278020000000 1.0
C      1  0.4618330000000  0.5481630000000  0.4721950000000 1.0
C      1  0.5381690000000  0.4518370000000  0.4721980000000 1.0
C      1  0.4721940000000  0.4618320000000  0.5481610000000 1.0
C      1  0.4721990000000  0.5381700000000  0.4518370000000 1.0
C      1  0.5278040000000  0.4618310000000  0.4518390000000 1.0
C      1  0.4982270000000  0.5471840000000  0.4630060000000 1.0
C      1  0.5471830000000  0.4630050000000  0.4982260000000 1.0
C      1  0.4630040000000  0.4982250000000  0.5471820000000 1.0
C      1  0.5017760000000  0.4528160000000  0.4630060000000 1.0
C      1  0.4982230000000  0.4528160000000  0.5369940000000 1.0
C      1  0.5017750000000  0.5471840000000  0.5369940000000 1.0
C      1  0.4528170000000  0.5369950000000  0.4982230000000 1.0
C      1  0.5471840000000  0.5369930000000  0.5017770000000 1.0
C      1  0.4528160000000  0.4630070000000  0.5017730000000 1.0
C      1  0.5369920000000  0.5017740000000  0.5471850000000 1.0
C      1  0.4630080000000  0.5017760000000  0.4528150000000 1.0
C      1  0.5369960000000  0.4982240000000  0.4528180000000 1.0
C      1  0.5471850000000  0.4982240000000  0.4630080000000 1.0
C      1  0.4630070000000  0.5471840000000  0.4982240000000 1.0
C      1  0.4982220000000  0.4630060000000  0.5471840000000 1.0
C      1  0.4528180000000  0.5017760000000  0.4630040000000 1.0
C      1  0.4528150000000  0.4982260000000  0.5369920000000 1.0
C      1  0.5471820000000  0.5017740000000  0.5369960000000 1.0
C      1  0.5369930000000  0.4528160000000  0.4982260000000 1.0
C      1  0.5369950000000  0.5471830000000  0.5017770000000 1.0
C      1  0.4630050000000  0.4528170000000  0.5017740000000 1.0
C      1  0.5017740000000  0.5369940000000  0.5471840000000 1.0
C      1  0.5017760000000  0.4630060000000  0.4528160000000 1.0
C      1  0.4982270000000  0.5369940000000  0.4528160000000 1.0
C      1  0.5094460000000  0.4805570000000  0.4705830000000 1.0
C      1  0.4805560000000  0.4705830000000  0.5094440000000 1.0
C      1  0.4705840000000  0.5094450000000  0.4805560000000 1.0
C      1  0.4905570000000  0.5194440000000  0.4705820000000 1.0
C      1  0.5094440000000  0.5194430000000  0.5294180000000 1.0
C      1  0.4905540000000  0.4805570000000  0.5294170000000 1.0
C      1  0.5194440000000  0.5294170000000  0.5094460000000 1.0
C      1  0.4805580000000  0.5294180000000  0.4905550000000 1.0
C      1  0.5194430000000  0.4705820000000  0.4905560000000 1.0
C      1  0.5294180000000  0.4905550000000  0.4805580000000 1.0
C      1  0.4705820000000  0.4905560000000  0.5194420000000 1.0
C      1  0.5294170000000  0.5094440000000  0.5194440000000 1.0
C      1  0.4805580000000  0.5094450000000  0.4705820000000 1.0
C      1  0.4705820000000  0.4805570000000  0.5094440000000 1.0
C      1  0.5094450000000  0.4705830000000  0.4805570000000 1.0
C      1  0.5194440000000  0.4905550000000  0.4705830000000 1.0
C      1  0.5194420000000  0.5094440000000  0.5294180000000 1.0
C      1  0.4805550000000  0.4905550000000  0.5294170000000 1.0
C      1  0.5294170000000  0.5194430000000  0.5094460000000 1.0
C      1  0.5294170000000  0.4805560000000  0.4905560000000 1.0
C      1  0.4705830000000  0.5194440000000  0.4905540000000 1.0
C      1  0.4905560000000  0.5294180000000  0.4805560000000 1.0
C      1  0.4905540000000  0.4705830000000  0.5194430000000 1.0
C      1  0.5094450000000  0.5294170000000  0.5194440000000 1.0
C      1  0.4952630000000  0.4772680000000  0.5419380000000 1.0
C      1  0.4772690000000  0.5419390000000  0.4952650000000 1.0
C      1  0.5419390000000  0.4952650000000  0.4772700000000 1.0
C      1  0.5047340000000  0.5227320000000  0.5419390000000 1.0
C      1  0.4952670000000  0.5227320000000  0.4580610000000 1.0
C      1  0.5047360000000  0.4772680000000  0.4580620000000 1.0
C      1  0.5227310000000  0.4580610000000  0.4952660000000 1.0
C      1  0.4772670000000  0.4580620000000  0.5047340000000 1.0
C      1  0.5227320000000  0.5419380000000  0.5047360000000 1.0
C      1  0.4580620000000  0.5047360000000  0.4772670000000 1.0
C      1  0.5419380000000  0.5047340000000  0.5227330000000 1.0
C      1  0.4580610000000  0.4952660000000  0.5227300000000 1.0
C      1  0.4772670000000  0.4952660000000  0.5419380000000 1.0
C      1  0.5419380000000  0.4772670000000  0.4952670000000 1.0
C      1  0.4952670000000  0.5419390000000  0.4772680000000 1.0
C      1  0.5227300000000  0.5047340000000  0.5419390000000 1.0
C      1  0.5227330000000  0.4952650000000  0.4580620000000 1.0
C      1  0.4772700000000  0.5047350000000  0.4580610000000 1.0
C      1  0.4580620000000  0.5227330000000  0.4952640000000 1.0
C      1  0.4580610000000  0.4772690000000  0.5047330000000 1.0
C      1  0.5419390000000  0.5227310000000  0.5047360000000 1.0
C      1  0.5047350000000  0.4580610000000  0.4772680000000 1.0
C      1  0.5047350000000  0.5419380000000  0.5227320000000 1.0
C      1  0.4952640000000  0.4580610000000  0.5227310000000 1.0
C      1  0.5152380000000  0.4638240000000  0.4449910000000 1.0
C      1  0.4638230000000  0.4449920000000  0.5152350000000 1.0
C      1  0.4449930000000  0.5152380000000  0.4638230000000 1.0
C      1  0.4847660000000  0.5361760000000  0.4449900000000 1.0
C      1  0.5152360000000  0.5361750000000  0.5550100000000 1.0
C      1  0.4847600000000  0.4638250000000  0.5550080000000 1.0
C      1  0.5361760000000  0.5550080000000  0.5152380000000 1.0
C      1  0.4638260000000  0.5550100000000  0.4847620000000 1.0
C      1  0.5361750000000  0.4449900000000  0.4847640000000 1.0
C      1  0.5550100000000  0.4847620000000  0.4638260000000 1.0
C      1  0.4449890000000  0.4847640000000  0.5361730000000 1.0
C      1  0.5550080000000  0.5152360000000  0.5361780000000 1.0
C      1  0.4638270000000  0.5152380000000  0.4449900000000 1.0
C      1  0.4449900000000  0.4638250000000  0.5152350000000 1.0
C      1  0.5152370000000  0.4449910000000  0.4638250000000 1.0
C      1  0.5361770000000  0.4847630000000  0.4449920000000 1.0
C      1  0.5361740000000  0.5152360000000  0.5550100000000 1.0
C      1  0.4638220000000  0.4847640000000  0.5550080000000 1.0
C      1  0.5550090000000  0.5361740000000  0.5152390000000 1.0
C      1  0.5550090000000  0.4638230000000  0.4847650000000 1.0
C      1  0.4449920000000  0.5361770000000  0.4847610000000 1.0
C      1  0.4847650000000  0.5550100000000  0.4638240000000 1.0
C      1  0.4847610000000  0.4449910000000  0.5361750000000 1.0
C      1  0.5152370000000  0.5550090000000  0.5361760000000 1.0
END
