TITL C-114179-1211-67 -13.6210250159586 1000000 -1665.7505769317 0 0 240 (Td) n - 1
REM
REM in /home/chem/mssmkc/work/GAP20/Larger-Clusters/Only-C240/New/BUILD-ONLY
REM
REM
REM
REM
REM
REM ./C.cell (daee87de7206da95283bc1c1416dbc6f)
REM
REM compiler GCC version 8.3.0
REM options -cpp -mtune=generic -march=x86-64 -g -O0
REM seed 611299084 -1417393736 693639050 -640691944 1030334997 1545185449 56388781 -104236688 596651312 265281483 1151904057 -761515396 1821886899 -711532225 1941964526 107885009 -1887157772 -1020073078 1725723506 1735229776 1748517829 470185928 1007494825 -1754696642 -1586448618 1727175577 -869678474 69897075 -1995401686 -1211409851 -1498613013 38623212 -405508313
REM
CELL 1.54180  100.00000  100.00000  100.00000   90.00000   90.00000   90.00000
LATT -1
SFAC C  
C      1  0.4993090000000  0.5562080000000  0.4798880000000 1.0
C      1  0.4798940000000  0.4993140000000  0.5562100000000 1.0
C      1  0.5562090000000  0.4798920000000  0.4993090000000 1.0
C      1  0.5006980000000  0.5562130000000  0.5200970000000 1.0
C      1  0.4993010000000  0.4437920000000  0.5201120000000 1.0
C      1  0.5006920000000  0.4437870000000  0.4799030000000 1.0
C      1  0.5201060000000  0.4992960000000  0.4437900000000 1.0
C      1  0.4798970000000  0.5006890000000  0.4437890000000 1.0
C      1  0.5201030000000  0.5007010000000  0.5562110000000 1.0
C      1  0.4437880000000  0.4798990000000  0.5006960000000 1.0
C      1  0.5562120000000  0.5201010000000  0.5006940000000 1.0
C      1  0.4437910000000  0.5201080000000  0.4993010000000 1.0
C      1  0.4798990000000  0.5562120000000  0.4992970000000 1.0
C      1  0.5562110000000  0.4992990000000  0.4798970000000 1.0
C      1  0.4993020000000  0.4799030000000  0.5562130000000 1.0
C      1  0.5201080000000  0.5562090000000  0.5006880000000 1.0
C      1  0.5201010000000  0.4437880000000  0.4993130000000 1.0
C      1  0.4798920000000  0.4437910000000  0.5007020000000 1.0
C      1  0.4437890000000  0.4993120000000  0.5201030000000 1.0
C      1  0.4437900000000  0.5006960000000  0.4798940000000 1.0
C      1  0.5562100000000  0.5006940000000  0.5201060000000 1.0
C      1  0.5006950000000  0.4798880000000  0.4437920000000 1.0
C      1  0.5006950000000  0.5201120000000  0.5562080000000 1.0
C      1  0.4993080000000  0.5200970000000  0.4437870000000 1.0
C      1  0.5375950000000  0.5143260000000  0.5486200000000 1.0
C      1  0.5486230000000  0.5375940000000  0.5143190000000 1.0
C      1  0.5143250000000  0.5486250000000  0.5375890000000 1.0
C      1  0.4624070000000  0.5143180000000  0.4513760000000 1.0
C      1  0.5375960000000  0.4856690000000  0.4513820000000 1.0
C      1  0.4624020000000  0.4856870000000  0.5486220000000 1.0
C      1  0.4513820000000  0.5375970000000  0.4856720000000 1.0
C      1  0.5486190000000  0.4623990000000  0.4856840000000 1.0
C      1  0.4513760000000  0.4624100000000  0.5143260000000 1.0
C      1  0.4856820000000  0.5486170000000  0.4623980000000 1.0
C      1  0.5143200000000  0.4513730000000  0.4624110000000 1.0
C      1  0.4856730000000  0.4513850000000  0.5376010000000 1.0
C      1  0.5486210000000  0.5143240000000  0.5375950000000 1.0
C      1  0.5143240000000  0.5376010000000  0.5486170000000 1.0
C      1  0.5375980000000  0.5486200000000  0.5143170000000 1.0
C      1  0.4513810000000  0.5143210000000  0.4624010000000 1.0
C      1  0.4513770000000  0.4856860000000  0.5375960000000 1.0
C      1  0.5486210000000  0.4856690000000  0.4624080000000 1.0
C      1  0.4856820000000  0.5375900000000  0.4513740000000 1.0
C      1  0.4856740000000  0.4624120000000  0.5486260000000 1.0
C      1  0.5143210000000  0.4623970000000  0.4513840000000 1.0
C      1  0.4624080000000  0.5486220000000  0.4856700000000 1.0
C      1  0.4624010000000  0.4513830000000  0.5143280000000 1.0
C      1  0.5375920000000  0.4513740000000  0.4856850000000 1.0
C      1  0.4502300000000  0.5114490000000  0.5394560000000 1.0
C      1  0.5394550000000  0.4502290000000  0.5114480000000 1.0
C      1  0.5114440000000  0.5394510000000  0.4502250000000 1.0
C      1  0.5497720000000  0.5114320000000  0.4605410000000 1.0
C      1  0.4502300000000  0.4885580000000  0.4605420000000 1.0
C      1  0.5497680000000  0.4885620000000  0.5394610000000 1.0
C      1  0.4605380000000  0.4502310000000  0.4885650000000 1.0
C      1  0.5394620000000  0.5497660000000  0.4885540000000 1.0
C      1  0.4605440000000  0.5497740000000  0.5114330000000 1.0
C      1  0.4885610000000  0.5394660000000  0.5497650000000 1.0
C      1  0.5114360000000  0.4605470000000  0.5497760000000 1.0
C      1  0.4885580000000  0.4605360000000  0.4502350000000 1.0
C      1  0.5394610000000  0.5114310000000  0.4502290000000 1.0
C      1  0.5114360000000  0.4502340000000  0.5394650000000 1.0
C      1  0.4502320000000  0.5394630000000  0.5114340000000 1.0
C      1  0.4605410000000  0.5114490000000  0.5497680000000 1.0
C      1  0.4605420000000  0.4885560000000  0.4502300000000 1.0
C      1  0.5394570000000  0.4885640000000  0.5497730000000 1.0
C      1  0.4885570000000  0.4502250000000  0.4605480000000 1.0
C      1  0.4885620000000  0.5497760000000  0.5394520000000 1.0
C      1  0.5114450000000  0.5497640000000  0.4605350000000 1.0
C      1  0.5497730000000  0.5394540000000  0.4885560000000 1.0
C      1  0.5497670000000  0.4605400000000  0.5114470000000 1.0
C      1  0.4502270000000  0.4605430000000  0.4885640000000 1.0
C      1  0.5001840000000  0.5659850000000  0.4895220000000 1.0
C      1  0.4895290000000  0.5001890000000  0.5659860000000 1.0
C      1  0.5659860000000  0.4895260000000  0.5001830000000 1.0
C      1  0.4998250000000  0.5659880000000  0.5104610000000 1.0
C      1  0.5001750000000  0.4340150000000  0.5104780000000 1.0
C      1  0.4998160000000  0.4340120000000  0.4895390000000 1.0
C      1  0.5104710000000  0.5001700000000  0.4340140000000 1.0
C      1  0.4895320000000  0.4998130000000  0.4340130000000 1.0
C      1  0.5104680000000  0.4998280000000  0.5659870000000 1.0
C      1  0.4340130000000  0.4895350000000  0.4998200000000 1.0
C      1  0.5659870000000  0.5104650000000  0.4998210000000 1.0
C      1  0.4340140000000  0.5104740000000  0.5001760000000 1.0
C      1  0.4895350000000  0.5659870000000  0.5001710000000 1.0
C      1  0.5659870000000  0.5001740000000  0.4895320000000 1.0
C      1  0.5001770000000  0.4895390000000  0.5659880000000 1.0
C      1  0.5104740000000  0.5659860000000  0.4998120000000 1.0
C      1  0.5104650000000  0.4340130000000  0.5001880000000 1.0
C      1  0.4895260000000  0.4340140000000  0.4998290000000 1.0
C      1  0.4340130000000  0.5001850000000  0.5104680000000 1.0
C      1  0.4340140000000  0.4998240000000  0.4895290000000 1.0
C      1  0.5659860000000  0.4998170000000  0.5104710000000 1.0
C      1  0.4998220000000  0.4895220000000  0.4340150000000 1.0
C      1  0.4998200000000  0.5104780000000  0.5659850000000 1.0
C      1  0.5001820000000  0.5104610000000  0.4340120000000 1.0
C      1  0.4425070000000  0.5263230000000  0.4631370000000 1.0
C      1  0.4631370000000  0.4425110000000  0.5263310000000 1.0
C      1  0.5263230000000  0.4631330000000  0.4425100000000 1.0
C      1  0.5574960000000  0.5263250000000  0.5368560000000 1.0
C      1  0.4425020000000  0.4736850000000  0.5368600000000 1.0
C      1  0.5574940000000  0.4736670000000  0.4631470000000 1.0
C      1  0.5368550000000  0.4424990000000  0.4736850000000 1.0
C      1  0.4631470000000  0.5574940000000  0.4736680000000 1.0
C      1  0.5368610000000  0.5574960000000  0.5263170000000 1.0
C      1  0.4736720000000  0.4631510000000  0.5574990000000 1.0
C      1  0.5263250000000  0.5368640000000  0.5574910000000 1.0
C      1  0.4736800000000  0.5368520000000  0.4424990000000 1.0
C      1  0.4631450000000  0.5263190000000  0.4425000000000 1.0
C      1  0.5263210000000  0.4424980000000  0.4631500000000 1.0
C      1  0.4425020000000  0.4631490000000  0.5263270000000 1.0
C      1  0.5368580000000  0.5263290000000  0.5574930000000 1.0
C      1  0.5368580000000  0.4736660000000  0.4425090000000 1.0
C      1  0.4631390000000  0.4736860000000  0.5574980000000 1.0
C      1  0.4736710000000  0.4425110000000  0.5368650000000 1.0
C      1  0.4736810000000  0.5574920000000  0.4631340000000 1.0
C      1  0.5263270000000  0.5574980000000  0.5368510000000 1.0
C      1  0.5574930000000  0.4631350000000  0.4736820000000 1.0
C      1  0.5574970000000  0.5368580000000  0.5263210000000 1.0
C      1  0.4425080000000  0.5368580000000  0.4736700000000 1.0
C      1  0.4633990000000  0.5568560000000  0.4528320000000 1.0
C      1  0.4528360000000  0.4634050000000  0.5568630000000 1.0
C      1  0.5568570000000  0.4528310000000  0.4634020000000 1.0
C      1  0.5366090000000  0.5568630000000  0.5471530000000 1.0
C      1  0.4633890000000  0.4431490000000  0.5471670000000 1.0
C      1  0.5366030000000  0.4431320000000  0.4528480000000 1.0
C      1  0.5471590000000  0.4633830000000  0.4431460000000 1.0
C      1  0.4528440000000  0.5366020000000  0.4431340000000 1.0
C      1  0.5471610000000  0.5366100000000  0.5568560000000 1.0
C      1  0.4431360000000  0.4528490000000  0.5366110000000 1.0
C      1  0.5568620000000  0.5471610000000  0.5366010000000 1.0
C      1  0.4431440000000  0.5471590000000  0.4633860000000 1.0
C      1  0.4528450000000  0.5568580000000  0.4633850000000 1.0
C      1  0.5568580000000  0.4633840000000  0.4528460000000 1.0
C      1  0.4633890000000  0.4528500000000  0.5568650000000 1.0
C      1  0.5471630000000  0.5568610000000  0.5366000000000 1.0
C      1  0.5471570000000  0.4431320000000  0.4634030000000 1.0
C      1  0.4528350000000  0.4431480000000  0.5366120000000 1.0
C      1  0.4431370000000  0.4634040000000  0.5471630000000 1.0
C      1  0.4431440000000  0.5366040000000  0.4528340000000 1.0
C      1  0.5568610000000  0.5366080000000  0.5471570000000 1.0
C      1  0.5366040000000  0.4528300000000  0.4431470000000 1.0
C      1  0.5366080000000  0.5471650000000  0.5568540000000 1.0
C      1  0.4633990000000  0.5471550000000  0.4431330000000 1.0
C      1  0.4996220000000  0.5342430000000  0.4454400000000 1.0
C      1  0.4454430000000  0.4996270000000  0.5342490000000 1.0
C      1  0.5342460000000  0.4454420000000  0.4996260000000 1.0
C      1  0.5003830000000  0.5342570000000  0.5545510000000 1.0
C      1  0.4996150000000  0.4657570000000  0.5545600000000 1.0
C      1  0.5003810000000  0.4657430000000  0.4454490000000 1.0
C      1  0.5545570000000  0.4996100000000  0.4657520000000 1.0
C      1  0.4454450000000  0.5003810000000  0.4657490000000 1.0
C      1  0.5545550000000  0.5003820000000  0.5342510000000 1.0
C      1  0.4657460000000  0.4454470000000  0.5003880000000 1.0
C      1  0.5342540000000  0.5545530000000  0.5003750000000 1.0
C      1  0.4657540000000  0.5545580000000  0.4996100000000 1.0
C      1  0.4454470000000  0.5342540000000  0.4996120000000 1.0
C      1  0.5342510000000  0.4996090000000  0.4454450000000 1.0
C      1  0.4996140000000  0.4454490000000  0.5342570000000 1.0
C      1  0.5545580000000  0.5342460000000  0.5003790000000 1.0
C      1  0.5545530000000  0.4657460000000  0.4996240000000 1.0
C      1  0.4454420000000  0.4657540000000  0.5003850000000 1.0
C      1  0.4657490000000  0.4996280000000  0.5545550000000 1.0
C      1  0.4657520000000  0.5003770000000  0.4454430000000 1.0
C      1  0.5342490000000  0.5003870000000  0.5545570000000 1.0
C      1  0.5003790000000  0.4454400000000  0.4657570000000 1.0
C      1  0.5003840000000  0.5545600000000  0.5342430000000 1.0
C      1  0.4996230000000  0.5545510000000  0.4657430000000 1.0
C      1  0.4629080000000  0.5154070000000  0.4735130000000 1.0
C      1  0.4735130000000  0.4629100000000  0.5154120000000 1.0
C      1  0.5154070000000  0.4735100000000  0.4629100000000 1.0
C      1  0.5370940000000  0.5154090000000  0.5264830000000 1.0
C      1  0.4629040000000  0.4845980000000  0.5264850000000 1.0
C      1  0.5370930000000  0.4845860000000  0.4735190000000 1.0
C      1  0.5264820000000  0.4629020000000  0.4845980000000 1.0
C      1  0.4735190000000  0.5370940000000  0.4845870000000 1.0
C      1  0.5264860000000  0.5370940000000  0.5154030000000 1.0
C      1  0.4845900000000  0.4735220000000  0.5370970000000 1.0
C      1  0.5154080000000  0.5264880000000  0.5370910000000 1.0
C      1  0.4845950000000  0.5264800000000  0.4629020000000 1.0
C      1  0.4735180000000  0.5154040000000  0.4629040000000 1.0
C      1  0.5154060000000  0.4629020000000  0.4735210000000 1.0
C      1  0.4629040000000  0.4735210000000  0.5154100000000 1.0
C      1  0.5264840000000  0.5154110000000  0.5370920000000 1.0
C      1  0.5264840000000  0.4845860000000  0.4629090000000 1.0
C      1  0.4735140000000  0.4845990000000  0.5370950000000 1.0
C      1  0.4845890000000  0.4629110000000  0.5264880000000 1.0
C      1  0.4845960000000  0.5370910000000  0.4735110000000 1.0
C      1  0.5154090000000  0.5370960000000  0.5264790000000 1.0
C      1  0.5370920000000  0.4735120000000  0.4845970000000 1.0
C      1  0.5370950000000  0.5264830000000  0.5154050000000 1.0
C      1  0.4629080000000  0.5264840000000  0.4845880000000 1.0
C      1  0.5427530000000  0.4939730000000  0.4839240000000 1.0
C      1  0.4839250000000  0.5427530000000  0.4939710000000 1.0
C      1  0.4939750000000  0.4839280000000  0.5427550000000 1.0
C      1  0.4572460000000  0.4939830000000  0.5160780000000 1.0
C      1  0.5427530000000  0.5060220000000  0.5160790000000 1.0
C      1  0.4572480000000  0.5060230000000  0.4839200000000 1.0
C      1  0.5160810000000  0.5427530000000  0.5060170000000 1.0
C      1  0.4839190000000  0.4572490000000  0.5060280000000 1.0
C      1  0.5160760000000  0.4572450000000  0.4939840000000 1.0
C      1  0.5060220000000  0.4839160000000  0.4572490000000 1.0
C      1  0.4939800000000  0.5160730000000  0.4572450000000 1.0
C      1  0.5060220000000  0.5160840000000  0.5427510000000 1.0
C      1  0.4839200000000  0.4939840000000  0.5427530000000 1.0
C      1  0.4939810000000  0.5427510000000  0.4839160000000 1.0
C      1  0.5427520000000  0.4839180000000  0.4939810000000 1.0
C      1  0.5160790000000  0.4939710000000  0.4572480000000 1.0
C      1  0.5160780000000  0.5060270000000  0.5427530000000 1.0
C      1  0.4839230000000  0.5060180000000  0.4572460000000 1.0
C      1  0.5060250000000  0.5427550000000  0.5160730000000 1.0
C      1  0.5060200000000  0.4572450000000  0.4839270000000 1.0
C      1  0.4939740000000  0.4572500000000  0.5160840000000 1.0
C      1  0.4572460000000  0.4839250000000  0.5060230000000 1.0
C      1  0.4572480000000  0.5160800000000  0.4939740000000 1.0
C      1  0.5427540000000  0.5160760000000  0.5060210000000 1.0
C      1  0.5243810000000  0.4657970000000  0.5447950000000 1.0
C      1  0.5447930000000  0.5243770000000  0.4657900000000 1.0
C      1  0.4657950000000  0.5447960000000  0.5243780000000 1.0
C      1  0.4756140000000  0.4657880000000  0.4552140000000 1.0
C      1  0.5243880000000  0.5342000000000  0.4552060000000 1.0
C      1  0.4756160000000  0.5342150000000  0.5447850000000 1.0
C      1  0.4552110000000  0.5243920000000  0.5342030000000 1.0
C      1  0.5447880000000  0.4756170000000  0.5342120000000 1.0
C      1  0.4552090000000  0.4756140000000  0.4657950000000 1.0
C      1  0.5342110000000  0.5447850000000  0.4756100000000 1.0
C      1  0.4657900000000  0.4552090000000  0.4756200000000 1.0
C      1  0.5342040000000  0.4552110000000  0.5243920000000 1.0
C      1  0.5447870000000  0.4657930000000  0.5243910000000 1.0
C      1  0.4657930000000  0.5243930000000  0.5447860000000 1.0
C      1  0.5243890000000  0.5447840000000  0.4657870000000 1.0
C      1  0.4552080000000  0.4657920000000  0.4756180000000 1.0
C      1  0.4552120000000  0.5342140000000  0.5243790000000 1.0
C      1  0.5447930000000  0.5342010000000  0.4756120000000 1.0
C      1  0.5342100000000  0.5243770000000  0.4552070000000 1.0
C      1  0.5342050000000  0.4756190000000  0.5447940000000 1.0
C      1  0.4657920000000  0.4756110000000  0.4552120000000 1.0
C      1  0.4756170000000  0.5447960000000  0.5342010000000 1.0
C      1  0.4756130000000  0.4552070000000  0.4657980000000 1.0
C      1  0.5243810000000  0.4552130000000  0.5342140000000 1.0
END
