TITL C-1156305-3276-2 -5.22201456377779 1000000 -1664.49198591585 0 0 240 (C1) n - 1
REM
REM in /nfs/bkarasulu/CARBON/AIRSS/Generating-Clusters/GAP-ML-2020/Higher-Symm/Selected-Sizes/Larger-Clusters/Only-C240
REM
REM
REM
REM
REM
REM ./C.cell (db1db5b03a21c153a00b653f6831bbfd)
REM
REM compiler GCC version 9.2.1 20190827 (Red Hat 9.2.1-1)
REM options -cpp -mtune=generic -march=x86-64 -g -O0 -fpre-include=/usr/include/finclude/math-vector-fortran.h
REM seed 419891698 775455786 -1037497278 1648183798 -343539149 -2050924184 599095160 166791789 1036953925 -886040308 -853827487 -391378104 1088512137 698528349 -1041918477 1022213976 793568330 -614061098 -430300160 613636229 -567956417 -1171536292 1643239453 -987077655 -865796820 186359817 -1700004586 32342324 -1107553457 -336042522 -1951920988 1726673331 -1087738213
REM
CELL 1.54180  100.00000  100.00000  100.00000   90.00000   90.00000   90.00000
LATT -1
SFAC C  
C      1  0.4684570000000  0.5398760000000  0.4491840000000 1.0
C      1  0.5508230000000  0.5150610000000  0.4508320000000 1.0
C      1  0.4854680000000  0.4486260000000  0.4495160000000 1.0
C      1  0.4705050000000  0.4576090000000  0.5510070000000 1.0
C      1  0.5517140000000  0.4859600000000  0.5488180000000 1.0
C      1  0.4794070000000  0.5480330000000  0.5491180000000 1.0
C      1  0.5351270000000  0.4609340000000  0.5496580000000 1.0
C      1  0.4520270000000  0.4809160000000  0.5535040000000 1.0
C      1  0.5084190000000  0.5526890000000  0.5502620000000 1.0
C      1  0.5334890000000  0.5397740000000  0.4506700000000 1.0
C      1  0.4507000000000  0.5151260000000  0.4488100000000 1.0
C      1  0.5153780000000  0.4489910000000  0.4513710000000 1.0
C      1  0.5648630000000  0.4741300000000  0.4966310000000 1.0
C      1  0.4455310000000  0.4620860000000  0.5012030000000 1.0
C      1  0.4837930000000  0.5669090000000  0.4958420000000 1.0
C      1  0.5739430000000  0.5305920000000  0.5020500000000 1.0
C      1  0.4488320000000  0.5421630000000  0.4986160000000 1.0
C      1  0.4826500000000  0.4334850000000  0.5031390000000 1.0
C      1  0.4365820000000  0.5100290000000  0.4997440000000 1.0
C      1  0.5519750000000  0.5499690000000  0.5032330000000 1.0
C      1  0.5134690000000  0.4291680000000  0.5040280000000 1.0
C      1  0.4362950000000  0.4953260000000  0.5016150000000 1.0
C      1  0.5482260000000  0.4480280000000  0.4979950000000 1.0
C      1  0.5148630000000  0.5679050000000  0.4974220000000 1.0
C      1  0.5102330000000  0.4823760000000  0.4932160000000 1.0
C      1  0.4774650000000  0.4976610000000  0.4944450000000 1.0
C      1  0.5080220000000  0.5195550000000  0.4934910000000 1.0
C      1  0.5140180000000  0.5157510000000  0.5061090000000 1.0
C      1  0.4782270000000  0.5045000000000  0.5073190000000 1.0
C      1  0.5044120000000  0.4789130000000  0.5060120000000 1.0
C      1  0.4878820000000  0.5152800000000  0.5066220000000 1.0
C      1  0.5175050000000  0.5018540000000  0.5059930000000 1.0
C      1  0.4903500000000  0.4809020000000  0.5064760000000 1.0
C      1  0.4839730000000  0.4849020000000  0.4940460000000 1.0
C      1  0.5174980000000  0.4947510000000  0.4933930000000 1.0
C      1  0.4937710000000  0.5186080000000  0.4938030000000 1.0
C      1  0.4933220000000  0.5478000000000  0.4804450000000 1.0
C      1  0.5426920000000  0.4782110000000  0.4832110000000 1.0
C      1  0.4557980000000  0.4753070000000  0.4808530000000 1.0
C      1  0.4931440000000  0.4522010000000  0.5187560000000 1.0
C      1  0.5436460000000  0.5167920000000  0.5173760000000 1.0
C      1  0.4607590000000  0.5274130000000  0.5172490000000 1.0
C      1  0.5077500000000  0.4498270000000  0.5197090000000 1.0
C      1  0.4528600000000  0.5152370000000  0.5192310000000 1.0
C      1  0.5408580000000  0.5306340000000  0.5164690000000 1.0
C      1  0.5080870000000  0.5479840000000  0.4809440000000 1.0
C      1  0.4505810000000  0.4890250000000  0.4808220000000 1.0
C      1  0.5344280000000  0.4655890000000  0.4835130000000 1.0
C      1  0.5164150000000  0.5226450000000  0.4568210000000 1.0
C      1  0.5109080000000  0.4731140000000  0.4572240000000 1.0
C      1  0.4721820000000  0.5031320000000  0.4566280000000 1.0
C      1  0.5163850000000  0.4767730000000  0.5420720000000 1.0
C      1  0.5131600000000  0.5274860000000  0.5425430000000 1.0
C      1  0.4712540000000  0.4970570000000  0.5446580000000 1.0
C      1  0.4858440000000  0.4761860000000  0.5438290000000 1.0
C      1  0.4867160000000  0.5246160000000  0.5425400000000 1.0
C      1  0.5299350000000  0.4991670000000  0.5420560000000 1.0
C      1  0.4858570000000  0.5228800000000  0.4564680000000 1.0
C      1  0.4847160000000  0.4741440000000  0.4567540000000 1.0
C      1  0.5296660000000  0.5001480000000  0.4572930000000 1.0
C      1  0.4655480000000  0.4728300000000  0.4705610000000 1.0
C      1  0.4884170000000  0.5400420000000  0.4701750000000 1.0
C      1  0.5394800000000  0.4867060000000  0.4724840000000 1.0
C      1  0.4706780000000  0.5291460000000  0.5272420000000 1.0
C      1  0.4893170000000  0.4602120000000  0.5294560000000 1.0
C      1  0.5392150000000  0.5065560000000  0.5225280000000 1.0
C      1  0.5308520000000  0.5338790000000  0.5270630000000 1.0
C      1  0.5142440000000  0.4577070000000  0.5292290000000 1.0
C      1  0.4556630000000  0.5075910000000  0.5308760000000 1.0
C      1  0.5249720000000  0.4655310000000  0.4731780000000 1.0
C      1  0.5132380000000  0.5398470000000  0.4708630000000 1.0
C      1  0.4556660000000  0.4968150000000  0.4704840000000 1.0
C      1  0.4615610000000  0.4922350000000  0.5543190000000 1.0
C      1  0.5135710000000  0.5386340000000  0.5514610000000 1.0
C      1  0.5197680000000  0.4647450000000  0.5509520000000 1.0
C      1  0.4596970000000  0.5020340000000  0.4481470000000 1.0
C      1  0.5205780000000  0.4637100000000  0.4501110000000 1.0
C      1  0.5184860000000  0.5355500000000  0.4487770000000 1.0
C      1  0.5407060000000  0.5042220000000  0.4490470000000 1.0
C      1  0.4825500000000  0.4632160000000  0.4478350000000 1.0
C      1  0.4835470000000  0.5354570000000  0.4480400000000 1.0
C      1  0.5413890000000  0.4967730000000  0.5501250000000 1.0
C      1  0.4762270000000  0.5326210000000  0.5500730000000 1.0
C      1  0.4852760000000  0.4625600000000  0.5517560000000 1.0
C      1  0.4647890000000  0.4881780000000  0.5680360000000 1.0
C      1  0.5090720000000  0.5382970000000  0.5654650000000 1.0
C      1  0.5241130000000  0.4697040000000  0.5649570000000 1.0
C      1  0.4627780000000  0.5071750000000  0.4340200000000 1.0
C      1  0.5155040000000  0.4627220000000  0.4355430000000 1.0
C      1  0.5230770000000  0.5310830000000  0.4347010000000 1.0
C      1  0.5389560000000  0.5082320000000  0.4350080000000 1.0
C      1  0.4878190000000  0.4626250000000  0.4341190000000 1.0
C      1  0.4793070000000  0.5307930000000  0.4338650000000 1.0
C      1  0.5396110000000  0.4932720000000  0.5644310000000 1.0
C      1  0.4817500000000  0.5340770000000  0.5645940000000 1.0
C      1  0.4819190000000  0.4663980000000  0.5662640000000 1.0
C      1  0.4858770000000  0.4988570000000  0.5661000000000 1.0
C      1  0.5083290000000  0.5140520000000  0.5650960000000 1.0
C      1  0.5091800000000  0.4880500000000  0.5647110000000 1.0
C      1  0.4855150000000  0.4986980000000  0.4340600000000 1.0
C      1  0.5092700000000  0.4863870000000  0.4345460000000 1.0
C      1  0.5081290000000  0.5122040000000  0.4345180000000 1.0
C      1  0.5166590000000  0.4988250000000  0.4343850000000 1.0
C      1  0.4926180000000  0.4861060000000  0.4341780000000 1.0
C      1  0.4939680000000  0.5120680000000  0.4342920000000 1.0
C      1  0.5167070000000  0.5019850000000  0.5648350000000 1.0
C      1  0.4918330000000  0.5118030000000  0.5654590000000 1.0
C      1  0.4952860000000  0.4864520000000  0.5649820000000 1.0
C      1  0.4470040000000  0.5499030000000  0.4887270000000 1.0
C      1  0.5773920000000  0.5300220000000  0.4893300000000 1.0
C      1  0.4803200000000  0.4279500000000  0.4919230000000 1.0
C      1  0.4446600000000  0.4543510000000  0.5111920000000 1.0
C      1  0.5710930000000  0.4730770000000  0.5076560000000 1.0
C      1  0.4809640000000  0.5718950000000  0.5071850000000 1.0
C      1  0.5525040000000  0.4435840000000  0.5091470000000 1.0
C      1  0.4318080000000  0.4896860000000  0.5130880000000 1.0
C      1  0.5156430000000  0.5739490000000  0.5085990000000 1.0
C      1  0.5540700000000  0.5554020000000  0.4920980000000 1.0
C      1  0.4315790000000  0.5158840000000  0.4885440000000 1.0
C      1  0.5148650000000  0.4239860000000  0.4924660000000 1.0
C      1  0.4570760000000  0.5202690000000  0.4369040000000 1.0
C      1  0.5369520000000  0.5322850000000  0.4385080000000 1.0
C      1  0.5082170000000  0.4505850000000  0.4386820000000 1.0
C      1  0.4585340000000  0.4751870000000  0.5655910000000 1.0
C      1  0.5380740000000  0.4690170000000  0.5614450000000 1.0
C      1  0.5008240000000  0.5500470000000  0.5629430000000 1.0
C      1  0.5465140000000  0.4806190000000  0.5618780000000 1.0
C      1  0.4677910000000  0.4644320000000  0.5637570000000 1.0
C      1  0.4869350000000  0.5472200000000  0.5616050000000 1.0
C      1  0.5455100000000  0.5208650000000  0.4380660000000 1.0
C      1  0.4653190000000  0.5320630000000  0.4370550000000 1.0
C      1  0.4940690000000  0.4498890000000  0.4372510000000 1.0
C      1  0.4851930000000  0.4994800000000  0.4506750000000 1.0
C      1  0.5087760000000  0.5118160000000  0.4507980000000 1.0
C      1  0.5075020000000  0.4858950000000  0.4509730000000 1.0
C      1  0.4851340000000  0.4992990000000  0.5495350000000 1.0
C      1  0.5091100000000  0.4881370000000  0.5478890000000 1.0
C      1  0.5081730000000  0.5143690000000  0.5487740000000 1.0
C      1  0.5167300000000  0.5015210000000  0.5485730000000 1.0
C      1  0.4937680000000  0.4870970000000  0.5490170000000 1.0
C      1  0.4927200000000  0.5128110000000  0.5487580000000 1.0
C      1  0.5163490000000  0.4987660000000  0.4507970000000 1.0
C      1  0.4935070000000  0.5119340000000  0.4507690000000 1.0
C      1  0.4920050000000  0.4859240000000  0.4507660000000 1.0
C      1  0.4686080000000  0.5029330000000  0.4705000000000 1.0
C      1  0.5159210000000  0.5256660000000  0.4706930000000 1.0
C      1  0.5118690000000  0.4713910000000  0.4714410000000 1.0
C      1  0.4674710000000  0.4991390000000  0.5309740000000 1.0
C      1  0.5152500000000  0.4722260000000  0.5286870000000 1.0
C      1  0.5171680000000  0.5285320000000  0.5285820000000 1.0
C      1  0.5298610000000  0.4979300000000  0.5276120000000 1.0
C      1  0.4850810000000  0.4737870000000  0.5298140000000 1.0
C      1  0.4847680000000  0.5257160000000  0.5284530000000 1.0
C      1  0.5307420000000  0.4978370000000  0.4715320000000 1.0
C      1  0.4860400000000  0.5260720000000  0.4703500000000 1.0
C      1  0.4800360000000  0.4742370000000  0.4705130000000 1.0
C      1  0.4310960000000  0.4834580000000  0.5237150000000 1.0
C      1  0.5143470000000  0.5759580000000  0.5212440000000 1.0
C      1  0.5538390000000  0.4431130000000  0.5219640000000 1.0
C      1  0.4309970000000  0.5214820000000  0.4775490000000 1.0
C      1  0.5156050000000  0.4233270000000  0.4796090000000 1.0
C      1  0.5528020000000  0.5567400000000  0.4791630000000 1.0
C      1  0.5757920000000  0.5286210000000  0.4768510000000 1.0
C      1  0.4801550000000  0.4259870000000  0.4792040000000 1.0
C      1  0.4487190000000  0.5543790000000  0.4767510000000 1.0
C      1  0.5730550000000  0.4733380000000  0.5204110000000 1.0
C      1  0.4789750000000  0.5724690000000  0.5199120000000 1.0
C      1  0.4472470000000  0.4491730000000  0.5226950000000 1.0
C      1  0.5405640000000  0.5470150000000  0.4593370000000 1.0
C      1  0.5163360000000  0.4387270000000  0.4598540000000 1.0
C      1  0.4416240000000  0.5203800000000  0.4568170000000 1.0
C      1  0.5430440000000  0.4533420000000  0.5420710000000 1.0
C      1  0.5104970000000  0.5629460000000  0.5420900000000 1.0
C      1  0.4419920000000  0.4781110000000  0.5452460000000 1.0
C      1  0.4625860000000  0.4515070000000  0.5422780000000 1.0
C      1  0.4779860000000  0.5579950000000  0.5404070000000 1.0
C      1  0.5612560000000  0.4818580000000  0.5405900000000 1.0
C      1  0.4613790000000  0.5482850000000  0.4567030000000 1.0
C      1  0.4827970000000  0.4384520000000  0.4576900000000 1.0
C      1  0.5608600000000  0.5194630000000  0.4585670000000 1.0
C      1  0.4779940000000  0.5670930000000  0.5315220000000 1.0
C      1  0.5692850000000  0.4765130000000  0.5322810000000 1.0
C      1  0.4536320000000  0.4483150000000  0.5337320000000 1.0
C      1  0.4812370000000  0.4299800000000  0.4670180000000 1.0
C      1  0.5694250000000  0.5248060000000  0.4660910000000 1.0
C      1  0.4536210000000  0.5543860000000  0.4649290000000 1.0
C      1  0.5159700000000  0.4289520000000  0.4680330000000 1.0
C      1  0.4344390000000  0.5262490000000  0.4656310000000 1.0
C      1  0.5480510000000  0.5527640000000  0.4680040000000 1.0
C      1  0.5119560000000  0.5719550000000  0.5332210000000 1.0
C      1  0.4346150000000  0.4781080000000  0.5351440000000 1.0
C      1  0.5501990000000  0.4470140000000  0.5336620000000 1.0
C      1  0.4748940000000  0.5066890000000  0.4277210000000 1.0
C      1  0.5189550000000  0.5195020000000  0.4284760000000 1.0
C      1  0.5090170000000  0.4729920000000  0.4289560000000 1.0
C      1  0.4770280000000  0.4899080000000  0.5736380000000 1.0
C      1  0.5201370000000  0.4814850000000  0.5709540000000 1.0
C      1  0.5049140000000  0.5268880000000  0.5715500000000 1.0
C      1  0.5278610000000  0.4943380000000  0.5711590000000 1.0
C      1  0.4860410000000  0.4780850000000  0.5722660000000 1.0
C      1  0.4901980000000  0.5249910000000  0.5708890000000 1.0
C      1  0.5272150000000  0.5070780000000  0.4282260000000 1.0
C      1  0.4832060000000  0.5190890000000  0.4278840000000 1.0
C      1  0.4942310000000  0.4730160000000  0.4280390000000 1.0
C      1  0.4511270000000  0.5316700000000  0.5064390000000 1.0
C      1  0.5642960000000  0.5320510000000  0.5100710000000 1.0
C      1  0.4914090000000  0.4401740000000  0.5107050000000 1.0
C      1  0.4478310000000  0.4724080000000  0.4931290000000 1.0
C      1  0.5533790000000  0.4717730000000  0.4901150000000 1.0
C      1  0.4923380000000  0.5595030000000  0.4886980000000 1.0
C      1  0.5450300000000  0.4587950000000  0.4906830000000 1.0
C      1  0.4432330000000  0.4867690000000  0.4928170000000 1.0
C      1  0.5077920000000  0.5598550000000  0.4894100000000 1.0
C      1  0.5515390000000  0.5385180000000  0.5109640000000 1.0
C      1  0.4447230000000  0.5181110000000  0.5079350000000 1.0
C      1  0.5067340000000  0.4380790000000  0.5114440000000 1.0
C      1  0.4649170000000  0.5271910000000  0.5416050000000 1.0
C      1  0.5482890000000  0.5348430000000  0.5458970000000 1.0
C      1  0.4954690000000  0.4564400000000  0.5431340000000 1.0
C      1  0.4594770000000  0.4773750000000  0.4580020000000 1.0
C      1  0.5392750000000  0.4789970000000  0.4602830000000 1.0
C      1  0.4940400000000  0.5427640000000  0.4561300000000 1.0
C      1  0.5317210000000  0.4680800000000  0.4592510000000 1.0
C      1  0.4553020000000  0.4899730000000  0.4566580000000 1.0
C      1  0.5079240000000  0.5427690000000  0.4565960000000 1.0
C      1  0.5383360000000  0.5363170000000  0.5382320000000 1.0
C      1  0.4570250000000  0.5166000000000  0.5424000000000 1.0
C      1  0.5094180000000  0.4560580000000  0.5436320000000 1.0
C      1  0.4887150000000  0.4782930000000  0.4815040000000 1.0
C      1  0.4855190000000  0.5170710000000  0.4816810000000 1.0
C      1  0.5216250000000  0.5028010000000  0.4815530000000 1.0
C      1  0.4941660000000  0.5214150000000  0.5183900000000 1.0
C      1  0.4833500000000  0.4833560000000  0.5190460000000 1.0
C      1  0.5196490000000  0.4937620000000  0.5179500000000 1.0
C      1  0.5087590000000  0.5226590000000  0.5182320000000 1.0
C      1  0.5134380000000  0.4810720000000  0.5177000000000 1.0
C      1  0.4757150000000  0.4956170000000  0.5194740000000 1.0
C      1  0.5032310000000  0.4771290000000  0.4813270000000 1.0
C      1  0.5158200000000  0.5161680000000  0.4814570000000 1.0
C      1  0.4766520000000  0.5060860000000  0.4819880000000 1.0
END
