TITL C-114178-678-109 -2.87791214746762 1000000 -1709.28396296126 0 0 240 (C1) n - 1
REM
REM in /home/chem/mssmkc/work/GAP20/Larger-Clusters/Only-C240/New/BUILD-ONLY
REM
REM
REM
REM
REM
REM ./C.cell (daee87de7206da95283bc1c1416dbc6f)
REM
REM compiler GCC version 8.3.0
REM options -cpp -mtune=generic -march=x86-64 -g -O0
REM seed -1056477808 193793483 -2025521791 80586436 -1937772297 1074570561 207423374 749323403 1855787253 740491586 1638626618 -1382742497 1630865736 66787420 -1919065120 -1995969592 -46806384 -1628369622 334909747 -1162237481 -1185280437 -1240554980 1158698100 -2004088520 -1916337846 188984032 -1426971103 -100027725 1203340909 1255500390 554916434 1073353353 1614993796
REM
CELL 1.54180  100.00000  100.00000  100.00000   90.00000   90.00000   90.00000
LATT -1
SFAC C  
C      1  0.4947150000000  0.4842700000000  0.4406010000000 1.0
C      1  0.4387940000000  0.4937770000000  0.4842460000000 1.0
C      1  0.4834860000000  0.4422720000000  0.4937120000000 1.0
C      1  0.5058760000000  0.5166640000000  0.4434170000000 1.0
C      1  0.5066310000000  0.4844960000000  0.5587570000000 1.0
C      1  0.4934840000000  0.5164100000000  0.5573150000000 1.0
C      1  0.5607050000000  0.5050030000000  0.4847430000000 1.0
C      1  0.5591460000000  0.4920850000000  0.5177920000000 1.0
C      1  0.4394370000000  0.5073930000000  0.5177630000000 1.0
C      1  0.5167230000000  0.5591740000000  0.4923240000000 1.0
C      1  0.5161370000000  0.4419670000000  0.5074450000000 1.0
C      1  0.4848600000000  0.5562640000000  0.5047130000000 1.0
C      1  0.4847300000000  0.4953980000000  0.4393050000000 1.0
C      1  0.4952650000000  0.4433960000000  0.4844160000000 1.0
C      1  0.4382010000000  0.4841510000000  0.4953400000000 1.0
C      1  0.5155300000000  0.5052080000000  0.4462150000000 1.0
C      1  0.4858440000000  0.5046890000000  0.5535270000000 1.0
C      1  0.5160420000000  0.4954350000000  0.5601430000000 1.0
C      1  0.5055730000000  0.5610600000000  0.4831560000000 1.0
C      1  0.4961750000000  0.5531480000000  0.5137910000000 1.0
C      1  0.5044960000000  0.4410500000000  0.5166110000000 1.0
C      1  0.5598270000000  0.5146660000000  0.4954410000000 1.0
C      1  0.4386750000000  0.5167410000000  0.5065290000000 1.0
C      1  0.5610990000000  0.4826200000000  0.5067690000000 1.0
C      1  0.5238800000000  0.5443300000000  0.5337790000000 1.0
C      1  0.5336840000000  0.5250150000000  0.5456600000000 1.0
C      1  0.5442290000000  0.5330710000000  0.5247710000000 1.0
C      1  0.4743720000000  0.4566630000000  0.5340360000000 1.0
C      1  0.4753570000000  0.5454750000000  0.4662940000000 1.0
C      1  0.5260790000000  0.4559050000000  0.4670900000000 1.0
C      1  0.4648830000000  0.4766790000000  0.5450600000000 1.0
C      1  0.4664620000000  0.5248200000000  0.4558650000000 1.0
C      1  0.5356930000000  0.4764390000000  0.4568520000000 1.0
C      1  0.4535600000000  0.4669250000000  0.5251940000000 1.0
C      1  0.4554320000000  0.5336500000000  0.4763750000000 1.0
C      1  0.5468340000000  0.4654420000000  0.4763020000000 1.0
C      1  0.5440900000000  0.5237140000000  0.5353750000000 1.0
C      1  0.5233450000000  0.5348030000000  0.5444550000000 1.0
C      1  0.5340840000000  0.5435020000000  0.5238120000000 1.0
C      1  0.4540630000000  0.4767860000000  0.5352960000000 1.0
C      1  0.5463900000000  0.4757810000000  0.4665530000000 1.0
C      1  0.4562820000000  0.5236860000000  0.4663640000000 1.0
C      1  0.4750360000000  0.4667500000000  0.5444480000000 1.0
C      1  0.5256100000000  0.4663790000000  0.4569830000000 1.0
C      1  0.4762500000000  0.5352550000000  0.4561330000000 1.0
C      1  0.4642810000000  0.4571190000000  0.5240720000000 1.0
C      1  0.5362050000000  0.4555510000000  0.4769940000000 1.0
C      1  0.4652420000000  0.5443590000000  0.4764340000000 1.0
C      1  0.5296950000000  0.4905800000000  0.5572160000000 1.0
C      1  0.5572080000000  0.5275430000000  0.4889580000000 1.0
C      1  0.4851140000000  0.5540340000000  0.5251550000000 1.0
C      1  0.4722830000000  0.5166060000000  0.5494520000000 1.0
C      1  0.4711360000000  0.4897220000000  0.4412180000000 1.0
C      1  0.5265460000000  0.5166490000000  0.4471740000000 1.0
C      1  0.4422000000000  0.4709080000000  0.4899320000000 1.0
C      1  0.4435800000000  0.5294530000000  0.5121630000000 1.0
C      1  0.5570810000000  0.4693180000000  0.5113390000000 1.0
C      1  0.5095480000000  0.4443350000000  0.5300020000000 1.0
C      1  0.5105620000000  0.5584480000000  0.4695250000000 1.0
C      1  0.4896030000000  0.4436840000000  0.4703470000000 1.0
C      1  0.4840980000000  0.5262120000000  0.5508050000000 1.0
C      1  0.5284740000000  0.5531930000000  0.4846280000000 1.0
C      1  0.5509390000000  0.4848120000000  0.5275430000000 1.0
C      1  0.5142420000000  0.4732030000000  0.5524940000000 1.0
C      1  0.4872500000000  0.4722210000000  0.4457490000000 1.0
C      1  0.5152990000000  0.5260680000000  0.4506390000000 1.0
C      1  0.4725010000000  0.4488880000000  0.4861060000000 1.0
C      1  0.5258040000000  0.4501230000000  0.5146970000000 1.0
C      1  0.4752740000000  0.5497320000000  0.5146000000000 1.0
C      1  0.4471640000000  0.5147240000000  0.5287260000000 1.0
C      1  0.5554850000000  0.5115740000000  0.4725270000000 1.0
C      1  0.4446570000000  0.4864450000000  0.4726920000000 1.0
C      1  0.5093070000000  0.4814000000000  0.4432520000000 1.0
C      1  0.4406090000000  0.5081800000000  0.4813860000000 1.0
C      1  0.4800430000000  0.4435460000000  0.5078260000000 1.0
C      1  0.4923140000000  0.5200520000000  0.4427420000000 1.0
C      1  0.4920650000000  0.4814260000000  0.5575210000000 1.0
C      1  0.5073020000000  0.5197150000000  0.5578410000000 1.0
C      1  0.5602700000000  0.4909280000000  0.4823610000000 1.0
C      1  0.5581130000000  0.5066500000000  0.5204950000000 1.0
C      1  0.4395970000000  0.4929750000000  0.5201160000000 1.0
C      1  0.5196210000000  0.5570310000000  0.5069180000000 1.0
C      1  0.5198910000000  0.4426310000000  0.4932870000000 1.0
C      1  0.4809730000000  0.5577010000000  0.4915030000000 1.0
C      1  0.4823510000000  0.5100540000000  0.4415710000000 1.0
C      1  0.5102530000000  0.4426420000000  0.4829720000000 1.0
C      1  0.4391450000000  0.4827940000000  0.5100150000000 1.0
C      1  0.5194910000000  0.4912790000000  0.4435500000000 1.0
C      1  0.4820070000000  0.4913740000000  0.5574140000000 1.0
C      1  0.5175600000000  0.5100450000000  0.5592800000000 1.0
C      1  0.4907580000000  0.5595460000000  0.4815500000000 1.0
C      1  0.5098090000000  0.5571980000000  0.5171600000000 1.0
C      1  0.4897320000000  0.4427660000000  0.5180730000000 1.0
C      1  0.5585060000000  0.5166290000000  0.5102110000000 1.0
C      1  0.4400970000000  0.5183390000000  0.4914140000000 1.0
C      1  0.5604690000000  0.4809210000000  0.4922220000000 1.0
C      1  0.5384550000000  0.4537120000000  0.5113460000000 1.0
C      1  0.5122570000000  0.5395030000000  0.4534910000000 1.0
C      1  0.4477370000000  0.5116400000000  0.5420650000000 1.0
C      1  0.4617000000000  0.5507930000000  0.5119900000000 1.0
C      1  0.4597350000000  0.4490180000000  0.4897830000000 1.0
C      1  0.5407770000000  0.5526270000000  0.4896970000000 1.0
C      1  0.4921830000000  0.4599080000000  0.4457820000000 1.0
C      1  0.4868850000000  0.5394120000000  0.5530340000000 1.0
C      1  0.5092940000000  0.4608620000000  0.5528930000000 1.0
C      1  0.5468400000000  0.4891590000000  0.5397780000000 1.0
C      1  0.5617570000000  0.5091480000000  0.4609350000000 1.0
C      1  0.4446250000000  0.4905840000000  0.4599880000000 1.0
C      1  0.4382040000000  0.5410560000000  0.5085950000000 1.0
C      1  0.5386710000000  0.5128280000000  0.4499720000000 1.0
C      1  0.5056290000000  0.4380330000000  0.5409800000000 1.0
C      1  0.5641460000000  0.4585040000000  0.5080290000000 1.0
C      1  0.4355940000000  0.4598410000000  0.4936040000000 1.0
C      1  0.5627260000000  0.5389830000000  0.4928890000000 1.0
C      1  0.4596440000000  0.4945290000000  0.4363310000000 1.0
C      1  0.5399990000000  0.4944800000000  0.5649570000000 1.0
C      1  0.4591250000000  0.5129920000000  0.5515040000000 1.0
C      1  0.4885240000000  0.5583140000000  0.5368900000000 1.0
C      1  0.5059180000000  0.5650650000000  0.4588850000000 1.0
C      1  0.4943080000000  0.4376610000000  0.4596600000000 1.0
C      1  0.4990000000000  0.4688660000000  0.4740170000000 1.0
C      1  0.4744390000000  0.4974970000000  0.4657090000000 1.0
C      1  0.4677230000000  0.4748530000000  0.4983720000000 1.0
C      1  0.5018770000000  0.5360640000000  0.4751540000000 1.0
C      1  0.5009270000000  0.4709050000000  0.5271060000000 1.0
C      1  0.5037300000000  0.5272610000000  0.5177010000000 1.0
C      1  0.5200160000000  0.4980250000000  0.4724730000000 1.0
C      1  0.5287060000000  0.4984400000000  0.5302480000000 1.0
C      1  0.4781070000000  0.4986610000000  0.5288650000000 1.0
C      1  0.5325540000000  0.5246840000000  0.4959000000000 1.0
C      1  0.5301060000000  0.4732640000000  0.5007160000000 1.0
C      1  0.4662320000000  0.5208360000000  0.5017370000000 1.0
C      1  0.4678830000000  0.4934200000000  0.4773960000000 1.0
C      1  0.4909530000000  0.4790080000000  0.4686290000000 1.0
C      1  0.4806920000000  0.4706400000000  0.4948180000000 1.0
C      1  0.5309070000000  0.5030800000000  0.4802530000000 1.0
C      1  0.4681680000000  0.5038160000000  0.5210300000000 1.0
C      1  0.5312880000000  0.4932470000000  0.5176020000000 1.0
C      1  0.5001120000000  0.5229980000000  0.4707490000000 1.0
C      1  0.4997400000000  0.5191630000000  0.5282470000000 1.0
C      1  0.5091380000000  0.4817480000000  0.5312070000000 1.0
C      1  0.5225480000000  0.5306880000000  0.4880090000000 1.0
C      1  0.4781810000000  0.5272990000000  0.4998050000000 1.0
C      1  0.5171250000000  0.4704960000000  0.5055020000000 1.0
C      1  0.5312180000000  0.5148000000000  0.5552350000000 1.0
C      1  0.5531360000000  0.5300040000000  0.5137470000000 1.0
C      1  0.5125520000000  0.5526060000000  0.5307820000000 1.0
C      1  0.4681940000000  0.4881700000000  0.5532840000000 1.0
C      1  0.4687860000000  0.5140940000000  0.4466350000000 1.0
C      1  0.5328490000000  0.4883810000000  0.4493160000000 1.0
C      1  0.4444300000000  0.4693760000000  0.5144250000000 1.0
C      1  0.4461800000000  0.5313420000000  0.4872980000000 1.0
C      1  0.5558860000000  0.4675310000000  0.4871410000000 1.0
C      1  0.4852930000000  0.4478170000000  0.5314850000000 1.0
C      1  0.4860570000000  0.5549060000000  0.4683600000000 1.0
C      1  0.5147710000000  0.4473450000000  0.4695800000000 1.0
C      1  0.5110660000000  0.5326530000000  0.5517960000000 1.0
C      1  0.5325780000000  0.5510840000000  0.5116360000000 1.0
C      1  0.5523520000000  0.5116250000000  0.5337810000000 1.0
C      1  0.4871760000000  0.4684430000000  0.5521010000000 1.0
C      1  0.5137980000000  0.4682760000000  0.4490340000000 1.0
C      1  0.4884690000000  0.5334880000000  0.4482950000000 1.0
C      1  0.4666740000000  0.4494150000000  0.5121310000000 1.0
C      1  0.5337060000000  0.4475840000000  0.4890330000000 1.0
C      1  0.4676240000000  0.5518020000000  0.4882930000000 1.0
C      1  0.4456420000000  0.4884720000000  0.5331110000000 1.0
C      1  0.5547210000000  0.4870900000000  0.4691160000000 1.0
C      1  0.4477800000000  0.5121630000000  0.4681680000000 1.0
C      1  0.5421390000000  0.4992010000000  0.4516050000000 1.0
C      1  0.4460210000000  0.5417830000000  0.4970520000000 1.0
C      1  0.4944610000000  0.4462410000000  0.5423520000000 1.0
C      1  0.4578170000000  0.5048960000000  0.4454570000000 1.0
C      1  0.4582070000000  0.4978650000000  0.5530310000000 1.0
C      1  0.5419420000000  0.5052250000000  0.5562800000000 1.0
C      1  0.5562560000000  0.4567900000000  0.4966590000000 1.0
C      1  0.5543940000000  0.5403710000000  0.5040460000000 1.0
C      1  0.4440140000000  0.4588380000000  0.5047110000000 1.0
C      1  0.5016950000000  0.5523840000000  0.5399320000000 1.0
C      1  0.5055900000000  0.4461600000000  0.4587770000000 1.0
C      1  0.4957680000000  0.5555950000000  0.4579390000000 1.0
C      1  0.4984790000000  0.5433520000000  0.4507050000000 1.0
C      1  0.5438450000000  0.4496650000000  0.4988620000000 1.0
C      1  0.4469780000000  0.4973410000000  0.5439480000000 1.0
C      1  0.5048730000000  0.4569450000000  0.4494720000000 1.0
C      1  0.4962510000000  0.4574220000000  0.5510540000000 1.0
C      1  0.5006180000000  0.5422400000000  0.5496790000000 1.0
C      1  0.4579140000000  0.5496470000000  0.4986360000000 1.0
C      1  0.5437170000000  0.5497380000000  0.5025960000000 1.0
C      1  0.4557500000000  0.4505900000000  0.5027710000000 1.0
C      1  0.5499590000000  0.5023260000000  0.5444480000000 1.0
C      1  0.4487450000000  0.5031560000000  0.4567250000000 1.0
C      1  0.5541020000000  0.4974930000000  0.4594280000000 1.0
C      1  0.4985340000000  0.5333990000000  0.4890150000000 1.0
C      1  0.4887020000000  0.4899890000000  0.5246340000000 1.0
C      1  0.5314130000000  0.4826410000000  0.4913580000000 1.0
C      1  0.5080610000000  0.4756180000000  0.4832380000000 1.0
C      1  0.5132030000000  0.5235290000000  0.5079700000000 1.0
C      1  0.4904980000000  0.4763830000000  0.5181550000000 1.0
C      1  0.5201510000000  0.5086980000000  0.5299120000000 1.0
C      1  0.5093710000000  0.4894280000000  0.4772400000000 1.0
C      1  0.4873900000000  0.5031970000000  0.4701330000000 1.0
C      1  0.4661080000000  0.5067910000000  0.4983310000000 1.0
C      1  0.4681440000000  0.4839950000000  0.5081740000000 1.0
C      1  0.5262980000000  0.5164160000000  0.5065860000000 1.0
C      1  0.5319560000000  0.4961240000000  0.4931720000000 1.0
C      1  0.5015570000000  0.4937650000000  0.5298050000000 1.0
C      1  0.4867760000000  0.5248990000000  0.4888860000000 1.0
C      1  0.4688620000000  0.5034460000000  0.4860540000000 1.0
C      1  0.5302550000000  0.5020290000000  0.5061870000000 1.0
C      1  0.4665590000000  0.4973110000000  0.5085460000000 1.0
C      1  0.5068470000000  0.5068220000000  0.5301230000000 1.0
C      1  0.4890050000000  0.5162250000000  0.4765740000000 1.0
C      1  0.4957840000000  0.4917970000000  0.4719340000000 1.0
C      1  0.5055220000000  0.4722190000000  0.4975980000000 1.0
C      1  0.4922310000000  0.4724720000000  0.5034930000000 1.0
C      1  0.5106250000000  0.5301840000000  0.4954840000000 1.0
C      1  0.5179400000000  0.4619520000000  0.5172280000000 1.0
C      1  0.5109820000000  0.5189400000000  0.4632910000000 1.0
C      1  0.4602850000000  0.5162510000000  0.5230160000000 1.0
C      1  0.4816670000000  0.5364070000000  0.5106710000000 1.0
C      1  0.4797870000000  0.4612710000000  0.4836270000000 1.0
C      1  0.5246360000000  0.5411640000000  0.4774580000000 1.0
C      1  0.4810440000000  0.4765570000000  0.4580910000000 1.0
C      1  0.4885850000000  0.5198220000000  0.5363840000000 1.0
C      1  0.5206770000000  0.4786170000000  0.5403550000000 1.0
C      1  0.5392180000000  0.4804320000000  0.5198720000000 1.0
C      1  0.5410650000000  0.5137140000000  0.4771400000000 1.0
C      1  0.4577720000000  0.4826390000000  0.4777510000000 1.0
C      1  0.4581720000000  0.5251120000000  0.5126750000000 1.0
C      1  0.5153680000000  0.5060450000000  0.4613620000000 1.0
C      1  0.5081880000000  0.4589590000000  0.5261010000000 1.0
C      1  0.5412960000000  0.4692790000000  0.5114300000000 1.0
C      1  0.4568800000000  0.4737110000000  0.4880960000000 1.0
C      1  0.5437050000000  0.5224020000000  0.4877980000000 1.0
C      1  0.4727490000000  0.4872640000000  0.4556340000000 1.0
C      1  0.5313290000000  0.4879540000000  0.5422380000000 1.0
C      1  0.4810680000000  0.5080460000000  0.5399820000000 1.0
C      1  0.4946470000000  0.5382500000000  0.5148930000000 1.0
C      1  0.5136890000000  0.5434960000000  0.4686400000000 1.0
C      1  0.4912110000000  0.4572680000000  0.4767540000000 1.0
END
