TITL C-114178-678-61 46.2497220448662 1000000 -1699.74483197271 0 0 240 (C1) n - 1
REM
REM in /home/chem/mssmkc/work/GAP20/Larger-Clusters/Only-C240/New/BUILD-ONLY
REM
REM
REM
REM
REM
REM ./C.cell (daee87de7206da95283bc1c1416dbc6f)
REM
REM compiler GCC version 8.3.0
REM options -cpp -mtune=generic -march=x86-64 -g -O0
REM seed 1932178453 164786607 1035171489 -1697479940 -52388788 951295387 -1796327339 -2059251477 -301350466 -242118991 1037318589 841876152 268405967 843333055 -513198155 656073305 131870377 498413517 800616032 418874272 459093173 -1649614219 -596755733 -1741645042 1698537091 1298533725 -1331191460 -423569349 731176306 49224604 -940224005 -1506769322 -1093087603
REM
CELL 1.54180  100.00000  100.00000  100.00000   90.00000   90.00000   90.00000
LATT -1
SFAC C  
C      1  0.5165270000000  0.4319970000000  0.4929300000000 1.0
C      1  0.4316160000000  0.4925730000000  0.5170890000000 1.0
C      1  0.4919330000000  0.5164680000000  0.4311950000000 1.0
C      1  0.4833730000000  0.4310950000000  0.5076450000000 1.0
C      1  0.4831780000000  0.5684240000000  0.4922090000000 1.0
C      1  0.5170160000000  0.5686800000000  0.5073760000000 1.0
C      1  0.5692500000000  0.4925490000000  0.4838260000000 1.0
C      1  0.5696060000000  0.5080190000000  0.5174240000000 1.0
C      1  0.4308540000000  0.5074690000000  0.4832430000000 1.0
C      1  0.5079700000000  0.5168530000000  0.5696040000000 1.0
C      1  0.5076460000000  0.4831530000000  0.4316870000000 1.0
C      1  0.4922640000000  0.4834320000000  0.5691310000000 1.0
C      1  0.5167170000000  0.5688900000000  0.4920200000000 1.0
C      1  0.4317610000000  0.5079240000000  0.5168060000000 1.0
C      1  0.4924150000000  0.4830490000000  0.4316470000000 1.0
C      1  0.4835720000000  0.5687370000000  0.5075200000000 1.0
C      1  0.4832470000000  0.4306780000000  0.4922150000000 1.0
C      1  0.5171170000000  0.4315100000000  0.5080460000000 1.0
C      1  0.5693260000000  0.5079960000000  0.4837860000000 1.0
C      1  0.5692940000000  0.4927420000000  0.5174340000000 1.0
C      1  0.4310530000000  0.4921070000000  0.4834160000000 1.0
C      1  0.5075440000000  0.4831450000000  0.5694970000000 1.0
C      1  0.5073450000000  0.5166590000000  0.4315370000000 1.0
C      1  0.4925640000000  0.5170290000000  0.5693890000000 1.0
C      1  0.4578340000000  0.4781600000000  0.4753680000000 1.0
C      1  0.4775110000000  0.4740240000000  0.4572310000000 1.0
C      1  0.4745740000000  0.4589800000000  0.4771630000000 1.0
C      1  0.5414200000000  0.4783190000000  0.5263650000000 1.0
C      1  0.5409560000000  0.5208490000000  0.4766900000000 1.0
C      1  0.4592810000000  0.5217120000000  0.5236800000000 1.0
C      1  0.5221960000000  0.4753710000000  0.5419620000000 1.0
C      1  0.5208260000000  0.5249400000000  0.4581960000000 1.0
C      1  0.4795160000000  0.5251720000000  0.5415860000000 1.0
C      1  0.5249290000000  0.4563500000000  0.5214370000000 1.0
C      1  0.5247930000000  0.5399410000000  0.4775680000000 1.0
C      1  0.4753080000000  0.5407460000000  0.5226020000000 1.0
C      1  0.4578050000000  0.5221700000000  0.4737560000000 1.0
C      1  0.4769830000000  0.5241300000000  0.4583530000000 1.0
C      1  0.4746210000000  0.5432460000000  0.4786160000000 1.0
C      1  0.5410560000000  0.5224410000000  0.5259430000000 1.0
C      1  0.5413540000000  0.4794380000000  0.4764360000000 1.0
C      1  0.4585870000000  0.4788090000000  0.5249380000000 1.0
C      1  0.5220880000000  0.5242690000000  0.5426340000000 1.0
C      1  0.5216660000000  0.4747780000000  0.4573470000000 1.0
C      1  0.4784650000000  0.4756060000000  0.5397560000000 1.0
C      1  0.5252020000000  0.5416320000000  0.5212220000000 1.0
C      1  0.5252160000000  0.4604210000000  0.4771520000000 1.0
C      1  0.4761460000000  0.4588950000000  0.5206400000000 1.0
C      1  0.5069740000000  0.4612000000000  0.5545030000000 1.0
C      1  0.4610130000000  0.5550220000000  0.5083910000000 1.0
C      1  0.5541590000000  0.5076180000000  0.4617110000000 1.0
C      1  0.4924350000000  0.4600410000000  0.4447300000000 1.0
C      1  0.4932400000000  0.5395890000000  0.5548570000000 1.0
C      1  0.5066420000000  0.5391930000000  0.4454650000000 1.0
C      1  0.5388210000000  0.5542940000000  0.4919350000000 1.0
C      1  0.5399290000000  0.4460630000000  0.5068770000000 1.0
C      1  0.4610250000000  0.4452160000000  0.4921360000000 1.0
C      1  0.4464730000000  0.5078510000000  0.5386010000000 1.0
C      1  0.4448700000000  0.4923820000000  0.4609720000000 1.0
C      1  0.5550370000000  0.4930160000000  0.5398660000000 1.0
C      1  0.5080280000000  0.5391230000000  0.5548130000000 1.0
C      1  0.4613310000000  0.4458470000000  0.5068760000000 1.0
C      1  0.5542480000000  0.4929530000000  0.4616780000000 1.0
C      1  0.4918210000000  0.5385600000000  0.4454360000000 1.0
C      1  0.4922420000000  0.4614100000000  0.5541960000000 1.0
C      1  0.5074460000000  0.4601380000000  0.4448200000000 1.0
C      1  0.5391160000000  0.4462880000000  0.4921240000000 1.0
C      1  0.5393650000000  0.5542510000000  0.5067580000000 1.0
C      1  0.4603520000000  0.5545730000000  0.4935430000000 1.0
C      1  0.4460610000000  0.4931200000000  0.5393260000000 1.0
C      1  0.4443890000000  0.5072600000000  0.4604220000000 1.0
C      1  0.5553360000000  0.5079240000000  0.5398150000000 1.0
C      1  0.5146900000000  0.4807700000000  0.4682020000000 1.0
C      1  0.4850100000000  0.4697220000000  0.5166010000000 1.0
C      1  0.4689990000000  0.5141350000000  0.4787130000000 1.0
C      1  0.4825110000000  0.4820050000000  0.5264340000000 1.0
C      1  0.4799710000000  0.5147680000000  0.4695590000000 1.0
C      1  0.5188070000000  0.5153210000000  0.5319250000000 1.0
C      1  0.5184330000000  0.4735140000000  0.4808790000000 1.0
C      1  0.5201520000000  0.5298410000000  0.5151050000000 1.0
C      1  0.4833770000000  0.5362700000000  0.4857760000000 1.0
C      1  0.5277650000000  0.5179270000000  0.5200470000000 1.0
C      1  0.5299450000000  0.4829600000000  0.4850950000000 1.0
C      1  0.4694730000000  0.4865480000000  0.5195120000000 1.0
C      1  0.5133080000000  0.5192690000000  0.4690600000000 1.0
C      1  0.4823190000000  0.5278730000000  0.5176790000000 1.0
C      1  0.4688440000000  0.4812790000000  0.4842890000000 1.0
C      1  0.4861220000000  0.5197340000000  0.5301740000000 1.0
C      1  0.4846770000000  0.4794270000000  0.4683200000000 1.0
C      1  0.5184850000000  0.4835250000000  0.5301940000000 1.0
C      1  0.5179140000000  0.5268880000000  0.4820970000000 1.0
C      1  0.5179610000000  0.4604500000000  0.5105980000000 1.0
C      1  0.4808040000000  0.4723880000000  0.4812720000000 1.0
C      1  0.5293440000000  0.4847280000000  0.5213130000000 1.0
C      1  0.5296390000000  0.5173830000000  0.4851550000000 1.0
C      1  0.4701240000000  0.5190970000000  0.5143530000000 1.0
C      1  0.4827250000000  0.4529020000000  0.4670270000000 1.0
C      1  0.4529790000000  0.4671900000000  0.4831420000000 1.0
C      1  0.4667840000000  0.4826040000000  0.4530440000000 1.0
C      1  0.5164870000000  0.4537900000000  0.5327250000000 1.0
C      1  0.5168970000000  0.5465580000000  0.4674720000000 1.0
C      1  0.4834510000000  0.5468740000000  0.5326680000000 1.0
C      1  0.5467870000000  0.4679140000000  0.5179730000000 1.0
C      1  0.5462130000000  0.5319430000000  0.4840820000000 1.0
C      1  0.4535420000000  0.5327510000000  0.5165810000000 1.0
C      1  0.5330630000000  0.4827610000000  0.5481490000000 1.0
C      1  0.5319510000000  0.5167850000000  0.4543890000000 1.0
C      1  0.4686310000000  0.5169060000000  0.5457170000000 1.0
C      1  0.4832900000000  0.5459630000000  0.4673720000000 1.0
C      1  0.4528910000000  0.5327170000000  0.4823630000000 1.0
C      1  0.4659760000000  0.5172120000000  0.4518030000000 1.0
C      1  0.5170100000000  0.5458020000000  0.5322170000000 1.0
C      1  0.5168740000000  0.4537290000000  0.4674280000000 1.0
C      1  0.4832920000000  0.4536600000000  0.5319810000000 1.0
C      1  0.5469780000000  0.5324100000000  0.5174880000000 1.0
C      1  0.5468360000000  0.4682640000000  0.4835630000000 1.0
C      1  0.4540780000000  0.4679410000000  0.5167380000000 1.0
C      1  0.5330280000000  0.5165300000000  0.5475500000000 1.0
C      1  0.5326140000000  0.4831710000000  0.4537430000000 1.0
C      1  0.4683550000000  0.4835590000000  0.5461400000000 1.0
C      1  0.4928850000000  0.5559810000000  0.4705970000000 1.0
C      1  0.5560900000000  0.4716890000000  0.4934190000000 1.0
C      1  0.4717830000000  0.4928530000000  0.5558700000000 1.0
C      1  0.5076580000000  0.5554640000000  0.5284720000000 1.0
C      1  0.5073500000000  0.4444290000000  0.4716520000000 1.0
C      1  0.4925020000000  0.4436570000000  0.5289430000000 1.0
C      1  0.4440900000000  0.4713050000000  0.5076080000000 1.0
C      1  0.4435790000000  0.5288650000000  0.4921100000000 1.0
C      1  0.5566520000000  0.5288200000000  0.5081770000000 1.0
C      1  0.5287710000000  0.4927810000000  0.4444310000000 1.0
C      1  0.5292730000000  0.5071100000000  0.5573130000000 1.0
C      1  0.4702320000000  0.5071440000000  0.4429300000000 1.0
C      1  0.4924310000000  0.4437530000000  0.4710760000000 1.0
C      1  0.5560860000000  0.5287690000000  0.4933960000000 1.0
C      1  0.4719020000000  0.5076200000000  0.5555730000000 1.0
C      1  0.5070690000000  0.4437200000000  0.5293750000000 1.0
C      1  0.5076080000000  0.5564210000000  0.4708490000000 1.0
C      1  0.4928760000000  0.5562850000000  0.5287400000000 1.0
C      1  0.4440920000000  0.5290440000000  0.5069450000000 1.0
C      1  0.4436760000000  0.4709490000000  0.4928830000000 1.0
C      1  0.5560960000000  0.4718680000000  0.5082290000000 1.0
C      1  0.5285500000000  0.5074050000000  0.4446500000000 1.0
C      1  0.5291210000000  0.4923140000000  0.5575980000000 1.0
C      1  0.4705970000000  0.4922490000000  0.4435420000000 1.0
C      1  0.4832670000000  0.5368410000000  0.4565910000000 1.0
C      1  0.5377420000000  0.4573140000000  0.4834420000000 1.0
C      1  0.4566320000000  0.4840650000000  0.5381490000000 1.0
C      1  0.5164910000000  0.5372160000000  0.5436240000000 1.0
C      1  0.5164110000000  0.4614850000000  0.4555520000000 1.0
C      1  0.4841070000000  0.4629200000000  0.5427410000000 1.0
C      1  0.4631380000000  0.4571250000000  0.5151670000000 1.0
C      1  0.4614470000000  0.5439480000000  0.4841840000000 1.0
C      1  0.5383500000000  0.5436710000000  0.5158730000000 1.0
C      1  0.5431150000000  0.4844350000000  0.4632140000000 1.0
C      1  0.5441340000000  0.5164060000000  0.5384960000000 1.0
C      1  0.4547240000000  0.5167210000000  0.4605730000000 1.0
C      1  0.4831430000000  0.4609590000000  0.4552250000000 1.0
C      1  0.5372240000000  0.5429420000000  0.4837580000000 1.0
C      1  0.4577980000000  0.5160600000000  0.5366130000000 1.0
C      1  0.5159110000000  0.4627120000000  0.5436640000000 1.0
C      1  0.5157140000000  0.5382220000000  0.4560520000000 1.0
C      1  0.4844640000000  0.5384020000000  0.5440260000000 1.0
C      1  0.4625360000000  0.5438570000000  0.5168970000000 1.0
C      1  0.4620740000000  0.4561680000000  0.4833620000000 1.0
C      1  0.5385780000000  0.4564270000000  0.5164400000000 1.0
C      1  0.5427860000000  0.5158530000000  0.4635100000000 1.0
C      1  0.5442250000000  0.4840360000000  0.5392780000000 1.0
C      1  0.4559680000000  0.4836610000000  0.4623820000000 1.0
C      1  0.4695410000000  0.5664080000000  0.5081910000000 1.0
C      1  0.5657850000000  0.5079830000000  0.4699830000000 1.0
C      1  0.5073660000000  0.4692750000000  0.5661840000000 1.0
C      1  0.5305740000000  0.5658000000000  0.4917750000000 1.0
C      1  0.5312630000000  0.4345750000000  0.5075100000000 1.0
C      1  0.4694150000000  0.4338380000000  0.4921490000000 1.0
C      1  0.4346620000000  0.5082990000000  0.5307110000000 1.0
C      1  0.4334460000000  0.4918950000000  0.4693980000000 1.0
C      1  0.5664940000000  0.4926200000000  0.5313950000000 1.0
C      1  0.4922820000000  0.4689340000000  0.4335860000000 1.0
C      1  0.4928110000000  0.5309540000000  0.5662730000000 1.0
C      1  0.5072440000000  0.5306460000000  0.4340680000000 1.0
C      1  0.4695110000000  0.4342180000000  0.5076540000000 1.0
C      1  0.5658420000000  0.4926280000000  0.4699720000000 1.0
C      1  0.5081330000000  0.5307590000000  0.5664060000000 1.0
C      1  0.5303620000000  0.4350970000000  0.4921710000000 1.0
C      1  0.5309390000000  0.5657690000000  0.5072170000000 1.0
C      1  0.4690250000000  0.5659380000000  0.4926420000000 1.0
C      1  0.4344240000000  0.4926900000000  0.5310590000000 1.0
C      1  0.4331940000000  0.5074910000000  0.4692090000000 1.0
C      1  0.5667400000000  0.5080900000000  0.5313740000000 1.0
C      1  0.4916480000000  0.5304150000000  0.4338610000000 1.0
C      1  0.4919450000000  0.4696270000000  0.5657600000000 1.0
C      1  0.5078250000000  0.4690150000000  0.4336580000000 1.0
C      1  0.5296670000000  0.5074160000000  0.5095140000000 1.0
C      1  0.5079150000000  0.5065390000000  0.5320280000000 1.0
C      1  0.5084140000000  0.5293700000000  0.5072660000000 1.0
C      1  0.4680160000000  0.5065770000000  0.4907270000000 1.0
C      1  0.4684770000000  0.4941720000000  0.5077220000000 1.0
C      1  0.5310030000000  0.4925780000000  0.4951300000000 1.0
C      1  0.4908890000000  0.5058740000000  0.4683330000000 1.0
C      1  0.4926430000000  0.4928100000000  0.5294130000000 1.0
C      1  0.5067780000000  0.4925480000000  0.4672800000000 1.0
C      1  0.4933050000000  0.5333940000000  0.4936000000000 1.0
C      1  0.4932440000000  0.4679690000000  0.5054140000000 1.0
C      1  0.5068430000000  0.4692690000000  0.4898240000000 1.0
C      1  0.5301580000000  0.4930460000000  0.5099530000000 1.0
C      1  0.5071950000000  0.4920540000000  0.5304830000000 1.0
C      1  0.5078900000000  0.4644800000000  0.5036470000000 1.0
C      1  0.4681590000000  0.4920640000000  0.4931190000000 1.0
C      1  0.4685210000000  0.5086770000000  0.5053180000000 1.0
C      1  0.5306490000000  0.5074890000000  0.4950650000000 1.0
C      1  0.4922200000000  0.4913930000000  0.4674880000000 1.0
C      1  0.4933590000000  0.5075700000000  0.5309500000000 1.0
C      1  0.5057000000000  0.5074530000000  0.4679470000000 1.0
C      1  0.4924770000000  0.4706440000000  0.4909710000000 1.0
C      1  0.4937620000000  0.5308630000000  0.5081470000000 1.0
C      1  0.5076600000000  0.5301270000000  0.4927120000000 1.0
C      1  0.4832630000000  0.5076390000000  0.5648540000000 1.0
C      1  0.5071480000000  0.5648130000000  0.4827980000000 1.0
C      1  0.5649110000000  0.4835130000000  0.5079830000000 1.0
C      1  0.5168760000000  0.5073090000000  0.4356210000000 1.0
C      1  0.5171110000000  0.4926340000000  0.5659160000000 1.0
C      1  0.4826660000000  0.4923710000000  0.4351860000000 1.0
C      1  0.4931190000000  0.5648040000000  0.5168520000000 1.0
C      1  0.4925750000000  0.4351670000000  0.4829730000000 1.0
C      1  0.5075250000000  0.4347450000000  0.5176600000000 1.0
C      1  0.4349690000000  0.4827810000000  0.4929890000000 1.0
C      1  0.4354150000000  0.5171970000000  0.5071160000000 1.0
C      1  0.5653750000000  0.5173640000000  0.4933140000000 1.0
C      1  0.4832820000000  0.4930600000000  0.5648580000000 1.0
C      1  0.5071260000000  0.4357440000000  0.4834080000000 1.0
C      1  0.5655390000000  0.5172700000000  0.5079040000000 1.0
C      1  0.5170780000000  0.4926990000000  0.4355040000000 1.0
C      1  0.5173830000000  0.5072220000000  0.5659280000000 1.0
C      1  0.4824060000000  0.5069430000000  0.4347510000000 1.0
C      1  0.4928980000000  0.4348410000000  0.5171840000000 1.0
C      1  0.4925130000000  0.5646450000000  0.4825940000000 1.0
C      1  0.5076880000000  0.5643370000000  0.5167410000000 1.0
C      1  0.4350180000000  0.5170200000000  0.4925440000000 1.0
C      1  0.4353480000000  0.4830540000000  0.5075890000000 1.0
C      1  0.5651240000000  0.4832810000000  0.4934130000000 1.0
END
