TITL C-114178-678-81 -42.6990713845109 1000000 -1729.4894580951 0 0 240 (Td) n - 1
REM
REM in /home/chem/mssmkc/work/GAP20/Larger-Clusters/Only-C240/New/BUILD-ONLY
REM
REM
REM
REM
REM
REM ./C.cell (daee87de7206da95283bc1c1416dbc6f)
REM
REM compiler GCC version 8.3.0
REM options -cpp -mtune=generic -march=x86-64 -g -O0
REM seed 747429222 937664391 383956251 209060150 -67493399 1002999998 1648451837 -596241238 -1318588221 -649777634 932189956 1322989183 -1325638610 1370791480 1390866371 -329162181 878607794 456229780 1139294187 321432151 -178708769 1220622321 -2030481567 1054146685 -391546634 -1369646835 470587347 -1515142909 1466181236 984916961 668890856 -856537554 330125976
REM
CELL 1.54180  100.00000  100.00000  100.00000   90.00000   90.00000   90.00000
LATT -1
SFAC C  
C      1  0.4882840000000  0.5528930000000  0.5330770000000 1.0
C      1  0.5330770000000  0.4882840000000  0.5528930000000 1.0
C      1  0.5528930000000  0.5330770000000  0.4882840000000 1.0
C      1  0.4882840000000  0.4471070000000  0.4669230000000 1.0
C      1  0.5117160000000  0.4471070000000  0.5330770000000 1.0
C      1  0.5117160000000  0.5528920000000  0.4669230000000 1.0
C      1  0.5330770000000  0.5117160000000  0.4471070000000 1.0
C      1  0.4669230000000  0.5117160000000  0.5528930000000 1.0
C      1  0.4669230000000  0.4882840000000  0.4471070000000 1.0
C      1  0.5528930000000  0.4669230000000  0.5117160000000 1.0
C      1  0.4471070000000  0.4669230000000  0.4882840000000 1.0
C      1  0.4471070000000  0.5330770000000  0.5117160000000 1.0
C      1  0.4882840000000  0.5330770000000  0.5528920000000 1.0
C      1  0.5330770000000  0.5528930000000  0.4882840000000 1.0
C      1  0.5528930000000  0.4882840000000  0.5330770000000 1.0
C      1  0.4882840000000  0.4669230000000  0.4471080000000 1.0
C      1  0.5117160000000  0.5330770000000  0.4471070000000 1.0
C      1  0.5117160000000  0.4669230000000  0.5528930000000 1.0
C      1  0.5330770000000  0.4471070000000  0.5117160000000 1.0
C      1  0.4669230000000  0.5528930000000  0.5117160000000 1.0
C      1  0.4669230000000  0.4471070000000  0.4882840000000 1.0
C      1  0.5528930000000  0.5117160000000  0.4669230000000 1.0
C      1  0.4471070000000  0.4882840000000  0.4669230000000 1.0
C      1  0.4471070000000  0.5117160000000  0.5330770000000 1.0
C      1  0.5505870000000  0.4592830000000  0.4991720000000 1.0
C      1  0.4991720000000  0.5505870000000  0.4592830000000 1.0
C      1  0.4592830000000  0.4991720000000  0.5505880000000 1.0
C      1  0.5505880000000  0.5407170000000  0.5008280000000 1.0
C      1  0.4494120000000  0.5407170000000  0.4991720000000 1.0
C      1  0.4494120000000  0.4592830000000  0.5008280000000 1.0
C      1  0.4991720000000  0.4494130000000  0.5407170000000 1.0
C      1  0.5008280000000  0.4494120000000  0.4592830000000 1.0
C      1  0.5008280000000  0.5505880000000  0.5407170000000 1.0
C      1  0.4592830000000  0.5008280000000  0.4494130000000 1.0
C      1  0.5407170000000  0.5008280000000  0.5505870000000 1.0
C      1  0.5407170000000  0.4991720000000  0.4494120000000 1.0
C      1  0.5505880000000  0.4991720000000  0.4592830000000 1.0
C      1  0.4991720000000  0.4592830000000  0.5505880000000 1.0
C      1  0.4592830000000  0.5505880000000  0.4991720000000 1.0
C      1  0.5505880000000  0.5008280000000  0.5407170000000 1.0
C      1  0.4494130000000  0.4991720000000  0.5407170000000 1.0
C      1  0.4494120000000  0.5008280000000  0.4592830000000 1.0
C      1  0.4991720000000  0.5407170000000  0.4494120000000 1.0
C      1  0.5008280000000  0.4592830000000  0.4494130000000 1.0
C      1  0.5008280000000  0.5407170000000  0.5505870000000 1.0
C      1  0.4592830000000  0.4494130000000  0.5008280000000 1.0
C      1  0.5407170000000  0.5505870000000  0.5008280000000 1.0
C      1  0.5407170000000  0.4494130000000  0.4991720000000 1.0
C      1  0.4703070000000  0.5197540000000  0.4902990000000 1.0
C      1  0.4902990000000  0.4703070000000  0.5197540000000 1.0
C      1  0.5197540000000  0.4902990000000  0.4703070000000 1.0
C      1  0.4703070000000  0.4802460000000  0.5097020000000 1.0
C      1  0.5296930000000  0.4802460000000  0.4902990000000 1.0
C      1  0.5296930000000  0.5197540000000  0.5097010000000 1.0
C      1  0.4902990000000  0.5296930000000  0.4802460000000 1.0
C      1  0.5097010000000  0.5296930000000  0.5197540000000 1.0
C      1  0.5097010000000  0.4703070000000  0.4802460000000 1.0
C      1  0.5197540000000  0.5097010000000  0.5296930000000 1.0
C      1  0.4802460000000  0.5097010000000  0.4703070000000 1.0
C      1  0.4802460000000  0.4902990000000  0.5296930000000 1.0
C      1  0.4703070000000  0.4902990000000  0.5197540000000 1.0
C      1  0.4902990000000  0.5197540000000  0.4703070000000 1.0
C      1  0.5197540000000  0.4703070000000  0.4902990000000 1.0
C      1  0.4703070000000  0.5097010000000  0.4802460000000 1.0
C      1  0.5296930000000  0.4902990000000  0.4802460000000 1.0
C      1  0.5296930000000  0.5097010000000  0.5197540000000 1.0
C      1  0.4902990000000  0.4802460000000  0.5296930000000 1.0
C      1  0.5097010000000  0.5197540000000  0.5296930000000 1.0
C      1  0.5097010000000  0.4802460000000  0.4703070000000 1.0
C      1  0.5197540000000  0.5296930000000  0.5097010000000 1.0
C      1  0.4802460000000  0.4703070000000  0.5097010000000 1.0
C      1  0.4802460000000  0.5296930000000  0.4902990000000 1.0
C      1  0.5036120000000  0.4848640000000  0.4452690000000 1.0
C      1  0.4452690000000  0.5036120000000  0.4848640000000 1.0
C      1  0.4848640000000  0.4452690000000  0.5036120000000 1.0
C      1  0.5036120000000  0.5151360000000  0.5547310000000 1.0
C      1  0.4963880000000  0.5151360000000  0.4452690000000 1.0
C      1  0.4963880000000  0.4848640000000  0.5547310000000 1.0
C      1  0.4452690000000  0.4963880000000  0.5151360000000 1.0
C      1  0.5547310000000  0.4963880000000  0.4848640000000 1.0
C      1  0.5547310000000  0.5036120000000  0.5151360000000 1.0
C      1  0.4848640000000  0.5547310000000  0.4963880000000 1.0
C      1  0.5151360000000  0.5547310000000  0.5036120000000 1.0
C      1  0.5151360000000  0.4452690000000  0.4963880000000 1.0
C      1  0.5036120000000  0.4452690000000  0.4848640000000 1.0
C      1  0.4452690000000  0.4848640000000  0.5036120000000 1.0
C      1  0.4848640000000  0.5036120000000  0.4452690000000 1.0
C      1  0.5036120000000  0.5547310000000  0.5151360000000 1.0
C      1  0.4963880000000  0.4452690000000  0.5151360000000 1.0
C      1  0.4963880000000  0.5547310000000  0.4848640000000 1.0
C      1  0.4452690000000  0.5151360000000  0.4963880000000 1.0
C      1  0.5547310000000  0.4848640000000  0.4963880000000 1.0
C      1  0.5547310000000  0.5151360000000  0.5036120000000 1.0
C      1  0.4848640000000  0.4963880000000  0.5547310000000 1.0
C      1  0.5151360000000  0.5036120000000  0.5547310000000 1.0
C      1  0.5151360000000  0.4963880000000  0.4452690000000 1.0
C      1  0.4898070000000  0.4414650000000  0.4800810000000 1.0
C      1  0.4800800000000  0.4898070000000  0.4414650000000 1.0
C      1  0.4414650000000  0.4800800000000  0.4898070000000 1.0
C      1  0.4898070000000  0.5585350000000  0.5199190000000 1.0
C      1  0.5101930000000  0.5585350000000  0.4800800000000 1.0
C      1  0.5101930000000  0.4414650000000  0.5199200000000 1.0
C      1  0.4800800000000  0.5101930000000  0.5585350000000 1.0
C      1  0.5199200000000  0.5101930000000  0.4414650000000 1.0
C      1  0.5199200000000  0.4898070000000  0.5585350000000 1.0
C      1  0.4414650000000  0.5199200000000  0.5101930000000 1.0
C      1  0.5585350000000  0.5199200000000  0.4898070000000 1.0
C      1  0.5585350000000  0.4800800000000  0.5101930000000 1.0
C      1  0.4898070000000  0.4800800000000  0.4414650000000 1.0
C      1  0.4800800000000  0.4414650000000  0.4898070000000 1.0
C      1  0.4414650000000  0.4898070000000  0.4800800000000 1.0
C      1  0.4898070000000  0.5199200000000  0.5585350000000 1.0
C      1  0.5101930000000  0.4800800000000  0.5585350000000 1.0
C      1  0.5101930000000  0.5199200000000  0.4414650000000 1.0
C      1  0.4800800000000  0.5585350000000  0.5101930000000 1.0
C      1  0.5199200000000  0.4414650000000  0.5101930000000 1.0
C      1  0.5199200000000  0.5585350000000  0.4898070000000 1.0
C      1  0.4414650000000  0.5101930000000  0.5199200000000 1.0
C      1  0.5585350000000  0.4898070000000  0.5199200000000 1.0
C      1  0.5585350000000  0.5101930000000  0.4800800000000 1.0
C      1  0.4980840000000  0.4595510000000  0.5189330000000 1.0
C      1  0.5189330000000  0.4980840000000  0.4595510000000 1.0
C      1  0.4595500000000  0.5189330000000  0.4980840000000 1.0
C      1  0.4980840000000  0.5404490000000  0.4810670000000 1.0
C      1  0.5019160000000  0.5404500000000  0.5189330000000 1.0
C      1  0.5019160000000  0.4595510000000  0.4810670000000 1.0
C      1  0.5189330000000  0.5019160000000  0.5404490000000 1.0
C      1  0.4810670000000  0.5019160000000  0.4595500000000 1.0
C      1  0.4810680000000  0.4980840000000  0.5404500000000 1.0
C      1  0.4595510000000  0.4810670000000  0.5019160000000 1.0
C      1  0.5404490000000  0.4810670000000  0.4980840000000 1.0
C      1  0.5404490000000  0.5189330000000  0.5019160000000 1.0
C      1  0.4980840000000  0.5189330000000  0.4595500000000 1.0
C      1  0.5189330000000  0.4595510000000  0.4980840000000 1.0
C      1  0.4595510000000  0.4980840000000  0.5189330000000 1.0
C      1  0.4980840000000  0.4810670000000  0.5404500000000 1.0
C      1  0.5019160000000  0.5189330000000  0.5404490000000 1.0
C      1  0.5019160000000  0.4810670000000  0.4595510000000 1.0
C      1  0.5189330000000  0.5404490000000  0.5019160000000 1.0
C      1  0.4810670000000  0.4595510000000  0.5019160000000 1.0
C      1  0.4810670000000  0.5404490000000  0.4980840000000 1.0
C      1  0.4595510000000  0.5019160000000  0.4810670000000 1.0
C      1  0.5404490000000  0.4980840000000  0.4810670000000 1.0
C      1  0.5404500000000  0.5019160000000  0.5189330000000 1.0
C      1  0.4761130000000  0.5140390000000  0.4391360000000 1.0
C      1  0.4391360000000  0.4761130000000  0.5140390000000 1.0
C      1  0.5140390000000  0.4391360000000  0.4761130000000 1.0
C      1  0.4761130000000  0.4859610000000  0.5608650000000 1.0
C      1  0.5238870000000  0.4859610000000  0.4391360000000 1.0
C      1  0.5238870000000  0.5140390000000  0.5608640000000 1.0
C      1  0.4391360000000  0.5238870000000  0.4859610000000 1.0
C      1  0.5608640000000  0.5238870000000  0.5140390000000 1.0
C      1  0.5608640000000  0.4761130000000  0.4859610000000 1.0
C      1  0.5140390000000  0.5608650000000  0.5238870000000 1.0
C      1  0.4859610000000  0.5608640000000  0.4761130000000 1.0
C      1  0.4859610000000  0.4391360000000  0.5238870000000 1.0
C      1  0.4761130000000  0.4391360000000  0.5140390000000 1.0
C      1  0.4391360000000  0.5140390000000  0.4761130000000 1.0
C      1  0.5140390000000  0.4761130000000  0.4391360000000 1.0
C      1  0.4761130000000  0.5608640000000  0.4859610000000 1.0
C      1  0.5238870000000  0.4391360000000  0.4859610000000 1.0
C      1  0.5238870000000  0.5608640000000  0.5140390000000 1.0
C      1  0.4391360000000  0.4859610000000  0.5238870000000 1.0
C      1  0.5608640000000  0.5140390000000  0.5238870000000 1.0
C      1  0.5608640000000  0.4859610000000  0.4761130000000 1.0
C      1  0.5140390000000  0.5238870000000  0.5608640000000 1.0
C      1  0.4859610000000  0.4761130000000  0.5608650000000 1.0
C      1  0.4859610000000  0.5238870000000  0.4391350000000 1.0
C      1  0.5449220000000  0.4653630000000  0.5239880000000 1.0
C      1  0.5239880000000  0.5449210000000  0.4653630000000 1.0
C      1  0.4653630000000  0.5239890000000  0.5449210000000 1.0
C      1  0.5449220000000  0.5346370000000  0.4760110000000 1.0
C      1  0.4550780000000  0.5346370000000  0.5239880000000 1.0
C      1  0.4550780000000  0.4653630000000  0.4760120000000 1.0
C      1  0.5239880000000  0.4550780000000  0.5346370000000 1.0
C      1  0.4760120000000  0.4550780000000  0.4653630000000 1.0
C      1  0.4760120000000  0.5449220000000  0.5346370000000 1.0
C      1  0.4653630000000  0.4760120000000  0.4550790000000 1.0
C      1  0.5346370000000  0.4760120000000  0.5449220000000 1.0
C      1  0.5346370000000  0.5239880000000  0.4550780000000 1.0
C      1  0.5449220000000  0.5239880000000  0.4653630000000 1.0
C      1  0.5239880000000  0.4653630000000  0.5449220000000 1.0
C      1  0.4653630000000  0.5449220000000  0.5239880000000 1.0
C      1  0.5449220000000  0.4760120000000  0.5346370000000 1.0
C      1  0.4550780000000  0.5239880000000  0.5346370000000 1.0
C      1  0.4550780000000  0.4760120000000  0.4653630000000 1.0
C      1  0.5239880000000  0.5346370000000  0.4550780000000 1.0
C      1  0.4760120000000  0.4653630000000  0.4550790000000 1.0
C      1  0.4760120000000  0.5346370000000  0.5449210000000 1.0
C      1  0.4653630000000  0.4550780000000  0.4760120000000 1.0
C      1  0.5346370000000  0.5449210000000  0.4760110000000 1.0
C      1  0.5346370000000  0.4550780000000  0.5239890000000 1.0
C      1  0.4521590000000  0.4621650000000  0.5273250000000 1.0
C      1  0.5273250000000  0.4521590000000  0.4621650000000 1.0
C      1  0.4621650000000  0.5273250000000  0.4521590000000 1.0
C      1  0.4521590000000  0.5378350000000  0.4726750000000 1.0
C      1  0.5478410000000  0.5378350000000  0.5273250000000 1.0
C      1  0.5478410000000  0.4621650000000  0.4726750000000 1.0
C      1  0.5273250000000  0.5478410000000  0.5378350000000 1.0
C      1  0.4726750000000  0.5478410000000  0.4621650000000 1.0
C      1  0.4726750000000  0.4521590000000  0.5378350000000 1.0
C      1  0.4621650000000  0.4726750000000  0.5478410000000 1.0
C      1  0.5378350000000  0.4726750000000  0.4521590000000 1.0
C      1  0.5378350000000  0.5273250000000  0.5478410000000 1.0
C      1  0.4521590000000  0.5273250000000  0.4621650000000 1.0
C      1  0.5273250000000  0.4621650000000  0.4521590000000 1.0
C      1  0.4621650000000  0.4521590000000  0.5273250000000 1.0
C      1  0.4521590000000  0.4726750000000  0.5378350000000 1.0
C      1  0.5478410000000  0.5273250000000  0.5378350000000 1.0
C      1  0.5478410000000  0.4726750000000  0.4621650000000 1.0
C      1  0.5273250000000  0.5378350000000  0.5478410000000 1.0
C      1  0.4726750000000  0.4621650000000  0.5478410000000 1.0
C      1  0.4726750000000  0.5378350000000  0.4521590000000 1.0
C      1  0.4621650000000  0.5478410000000  0.4726750000000 1.0
C      1  0.5378350000000  0.4521590000000  0.4726750000000 1.0
C      1  0.5378350000000  0.5478410000000  0.5273250000000 1.0
C      1  0.5546680000000  0.5361950000000  0.5144740000000 1.0
C      1  0.5144740000000  0.5546690000000  0.5361950000000 1.0
C      1  0.5361950000000  0.5144740000000  0.5546680000000 1.0
C      1  0.5546680000000  0.4638050000000  0.4855260000000 1.0
C      1  0.4453320000000  0.4638050000000  0.5144740000000 1.0
C      1  0.4453320000000  0.5361950000000  0.4855260000000 1.0
C      1  0.5144740000000  0.4453320000000  0.4638050000000 1.0
C      1  0.4855260000000  0.4453320000000  0.5361950000000 1.0
C      1  0.4855260000000  0.5546680000000  0.4638050000000 1.0
C      1  0.5361950000000  0.4855260000000  0.4453320000000 1.0
C      1  0.4638050000000  0.4855260000000  0.5546680000000 1.0
C      1  0.4638050000000  0.5144740000000  0.4453320000000 1.0
C      1  0.5546680000000  0.5144740000000  0.5361950000000 1.0
C      1  0.5144740000000  0.5361950000000  0.5546680000000 1.0
C      1  0.5361950000000  0.5546680000000  0.5144740000000 1.0
C      1  0.5546680000000  0.4855260000000  0.4638050000000 1.0
C      1  0.4453320000000  0.5144740000000  0.4638050000000 1.0
C      1  0.4453320000000  0.4855260000000  0.5361950000000 1.0
C      1  0.5144740000000  0.4638050000000  0.4453320000000 1.0
C      1  0.4855260000000  0.5361950000000  0.4453320000000 1.0
C      1  0.4855260000000  0.4638050000000  0.5546690000000 1.0
C      1  0.5361950000000  0.4453320000000  0.4855260000000 1.0
C      1  0.4638050000000  0.5546680000000  0.4855260000000 1.0
C      1  0.4638050000000  0.4453320000000  0.5144740000000 1.0
END
