TITL C-114180-423-22 0.0615837215314107 1000000 -1687.63802321562 0 0 240 (Ci) n - 1
REM
REM in /home/chem/mssmkc/work/GAP20/Larger-Clusters/Only-C240/New/BUILD-ONLY
REM
REM
REM
REM
REM
REM ./C.cell (daee87de7206da95283bc1c1416dbc6f)
REM
REM compiler GCC version 8.3.0
REM options -cpp -mtune=generic -march=x86-64 -g -O0
REM seed 1718874635 838378744 -1023698398 2134379302 -455532853 693945409 -128623912 -977636485 467063539 -819430941 -818931444 1976448391 1339025529 1194036757 2124165972 1995026911 1628973957 -1328950545 -1809051840 -884772732 2055686239 -1710966206 -433171317 86335527 -361974143 -1195394213 1366300440 1252512926 727078501 216041497 -1375060766 -129186633 -1755211623
REM
CELL 1.54180  100.00000  100.00000  100.00000   90.00000   90.00000   90.00000
LATT -1
SFAC C  
C      1  0.5071630000000  0.4495900000000  0.4771350000000 1.0
C      1  0.4441770000000  0.4765130000000  0.5066530000000 1.0
C      1  0.4758010000000  0.5071820000000  0.4423570000000 1.0
C      1  0.5066840000000  0.5488910000000  0.5233090000000 1.0
C      1  0.4935120000000  0.4434010000000  0.5243440000000 1.0
C      1  0.4926780000000  0.5577950000000  0.4751420000000 1.0
C      1  0.4470300000000  0.5238310000000  0.4929430000000 1.0
C      1  0.5520550000000  0.4763000000000  0.4931510000000 1.0
C      1  0.5569810000000  0.5239360000000  0.5072310000000 1.0
C      1  0.4759090000000  0.4931250000000  0.5575700000000 1.0
C      1  0.5242080000000  0.5067700000000  0.5578960000000 1.0
C      1  0.5240060000000  0.4929170000000  0.4422250000000 1.0
C      1  0.4933160000000  0.4511090000000  0.4766910000000 1.0
C      1  0.5529700000000  0.4761690000000  0.5070570000000 1.0
C      1  0.5240910000000  0.5068750000000  0.4424300000000 1.0
C      1  0.4928370000000  0.5504100000000  0.5228650000000 1.0
C      1  0.5073220000000  0.4422050000000  0.5248580000000 1.0
C      1  0.5064880000000  0.5565990000000  0.4756560000000 1.0
C      1  0.5558230000000  0.5234870000000  0.4933470000000 1.0
C      1  0.4430190000000  0.4760640000000  0.4927690000000 1.0
C      1  0.4479450000000  0.5237000000000  0.5068490000000 1.0
C      1  0.5241990000000  0.4928180000000  0.5576430000000 1.0
C      1  0.4759940000000  0.5070830000000  0.5577750000000 1.0
C      1  0.4757920000000  0.4932300000000  0.4421040000000 1.0
C      1  0.4920960000000  0.5444460000000  0.5459760000000 1.0
C      1  0.5448010000000  0.5443060000000  0.4924010000000 1.0
C      1  0.5443570000000  0.4916400000000  0.5449910000000 1.0
C      1  0.4921440000000  0.4556260000000  0.4538620000000 1.0
C      1  0.5078560000000  0.5450170000000  0.4551060000000 1.0
C      1  0.5080880000000  0.4545830000000  0.5452620000000 1.0
C      1  0.5450550000000  0.4536810000000  0.5079240000000 1.0
C      1  0.4553570000000  0.5460390000000  0.5080200000000 1.0
C      1  0.4549800000000  0.4557290000000  0.4916510000000 1.0
C      1  0.5441420000000  0.5077010000000  0.4552790000000 1.0
C      1  0.4555250000000  0.4923780000000  0.4548170000000 1.0
C      1  0.4558870000000  0.5082190000000  0.5449120000000 1.0
C      1  0.5078560000000  0.5443740000000  0.5461380000000 1.0
C      1  0.4549450000000  0.5463190000000  0.4920760000000 1.0
C      1  0.4558580000000  0.4922990000000  0.5447210000000 1.0
C      1  0.5079040000000  0.4555540000000  0.4540240000000 1.0
C      1  0.4919120000000  0.5454170000000  0.4547380000000 1.0
C      1  0.4921440000000  0.4549830000000  0.5448940000000 1.0
C      1  0.4551990000000  0.4556940000000  0.5075990000000 1.0
C      1  0.5450200000000  0.5442710000000  0.5083490000000 1.0
C      1  0.5446430000000  0.4539610000000  0.4919800000000 1.0
C      1  0.4556430000000  0.5083600000000  0.4550090000000 1.0
C      1  0.5441130000000  0.4917810000000  0.4550880000000 1.0
C      1  0.5444750000000  0.5076220000000  0.5451830000000 1.0
C      1  0.4421320000000  0.4933790000000  0.4744430000000 1.0
C      1  0.4930290000000  0.4745890000000  0.4393660000000 1.0
C      1  0.4764590000000  0.4476730000000  0.4928100000000 1.0
C      1  0.4442760000000  0.5073740000000  0.5245270000000 1.0
C      1  0.5569530000000  0.4928220000000  0.5251910000000 1.0
C      1  0.5564970000000  0.5063190000000  0.4754690000000 1.0
C      1  0.4931530000000  0.5255110000000  0.5605670000000 1.0
C      1  0.5069360000000  0.4743500000000  0.5590510000000 1.0
C      1  0.5068750000000  0.5254890000000  0.4411700000000 1.0
C      1  0.4753760000000  0.5580940000000  0.5067790000000 1.0
C      1  0.5253780000000  0.4402370000000  0.5069310000000 1.0
C      1  0.5236610000000  0.5548990000000  0.4936090000000 1.0
C      1  0.5557240000000  0.4926260000000  0.4754730000000 1.0
C      1  0.5068470000000  0.4744890000000  0.4394330000000 1.0
C      1  0.5246240000000  0.4419060000000  0.4932210000000 1.0
C      1  0.5578680000000  0.5066210000000  0.5255570000000 1.0
C      1  0.4435030000000  0.4936810000000  0.5245310000000 1.0
C      1  0.4430470000000  0.5071780000000  0.4748090000000 1.0
C      1  0.5069710000000  0.5254110000000  0.5606340000000 1.0
C      1  0.4931250000000  0.4745110000000  0.5588300000000 1.0
C      1  0.4930640000000  0.5256500000000  0.4409490000000 1.0
C      1  0.5235410000000  0.5523270000000  0.5071900000000 1.0
C      1  0.4763390000000  0.4451010000000  0.5063910000000 1.0
C      1  0.4746220000000  0.5597630000000  0.4930690000000 1.0
C      1  0.5154130000000  0.4645780000000  0.5535230000000 1.0
C      1  0.4654210000000  0.5541480000000  0.5157890000000 1.0
C      1  0.5525170000000  0.5150890000000  0.4653050000000 1.0
C      1  0.5153730000000  0.5351650000000  0.4466490000000 1.0
C      1  0.4845160000000  0.4648710000000  0.4449750000000 1.0
C      1  0.4846100000000  0.5352720000000  0.5548850000000 1.0
C      1  0.4659660000000  0.4488660000000  0.4839480000000 1.0
C      1  0.5342810000000  0.5521300000000  0.4849660000000 1.0
C      1  0.5356970000000  0.4448240000000  0.5155140000000 1.0
C      1  0.5528010000000  0.4839280000000  0.5350510000000 1.0
C      1  0.4478580000000  0.5160110000000  0.5347630000000 1.0
C      1  0.4468370000000  0.4848150000000  0.4643960000000 1.0
C      1  0.4846270000000  0.4648350000000  0.5533510000000 1.0
C      1  0.5340340000000  0.5511340000000  0.5160520000000 1.0
C      1  0.4471990000000  0.5160720000000  0.4649490000000 1.0
C      1  0.4845870000000  0.5354220000000  0.4464770000000 1.0
C      1  0.5153900000000  0.4647280000000  0.4451150000000 1.0
C      1  0.5154840000000  0.5351290000000  0.5550250000000 1.0
C      1  0.5345790000000  0.4458520000000  0.4842110000000 1.0
C      1  0.4643030000000  0.5551760000000  0.4844860000000 1.0
C      1  0.4657190000000  0.4478700000000  0.5150340000000 1.0
C      1  0.4474830000000  0.4849110000000  0.5346950000000 1.0
C      1  0.5531630000000  0.5151850000000  0.5356040000000 1.0
C      1  0.5521420000000  0.4839890000000  0.4652370000000 1.0
C      1  0.4703050000000  0.5526800000000  0.5301810000000 1.0
C      1  0.5517570000000  0.5293890000000  0.4702250000000 1.0
C      1  0.5296110000000  0.4697470000000  0.5521280000000 1.0
C      1  0.4704470000000  0.4487640000000  0.4696540000000 1.0
C      1  0.5297190000000  0.5518530000000  0.4704750000000 1.0
C      1  0.5303460000000  0.4464560000000  0.5302450000000 1.0
C      1  0.5522100000000  0.4695450000000  0.5301000000000 1.0
C      1  0.4486060000000  0.5303780000000  0.5299980000000 1.0
C      1  0.4477240000000  0.4703890000000  0.4695220000000 1.0
C      1  0.5295540000000  0.5298750000000  0.4479440000000 1.0
C      1  0.4702210000000  0.4702790000000  0.4469770000000 1.0
C      1  0.4703620000000  0.5301090000000  0.5529280000000 1.0
C      1  0.5295530000000  0.5512360000000  0.5303460000000 1.0
C      1  0.4477900000000  0.5304550000000  0.4699000000000 1.0
C      1  0.4704460000000  0.4701250000000  0.5520560000000 1.0
C      1  0.5296950000000  0.4473200000000  0.4698190000000 1.0
C      1  0.4696540000000  0.5535440000000  0.4697550000000 1.0
C      1  0.4702810000000  0.4481470000000  0.5295250000000 1.0
C      1  0.4482430000000  0.4706110000000  0.5297750000000 1.0
C      1  0.5522760000000  0.5296110000000  0.5304780000000 1.0
C      1  0.5513940000000  0.4696220000000  0.4700020000000 1.0
C      1  0.4703890000000  0.5302530000000  0.4478720000000 1.0
C      1  0.5296380000000  0.4698910000000  0.4470720000000 1.0
C      1  0.5297790000000  0.5297210000000  0.5530230000000 1.0
C      1  0.4842900000000  0.5534890000000  0.4647210000000 1.0
C      1  0.5506900000000  0.4653910000000  0.4846290000000 1.0
C      1  0.4659620000000  0.4847010000000  0.5524240000000 1.0
C      1  0.4847010000000  0.4476460000000  0.5343480000000 1.0
C      1  0.5151450000000  0.5498890000000  0.5343600000000 1.0
C      1  0.5152080000000  0.4496010000000  0.4658560000000 1.0
C      1  0.5528600000000  0.5342560000000  0.5158580000000 1.0
C      1  0.4478740000000  0.4661210000000  0.5152550000000 1.0
C      1  0.4485820000000  0.5348230000000  0.4845680000000 1.0
C      1  0.4659220000000  0.5157400000000  0.4475290000000 1.0
C      1  0.5341430000000  0.4844470000000  0.4470250000000 1.0
C      1  0.5342940000000  0.5151430000000  0.5529640000000 1.0
C      1  0.5152990000000  0.5523540000000  0.4656520000000 1.0
C      1  0.4471400000000  0.4657440000000  0.4841420000000 1.0
C      1  0.5340780000000  0.4842600000000  0.5524710000000 1.0
C      1  0.5157100000000  0.4465110000000  0.5352790000000 1.0
C      1  0.4847920000000  0.5503990000000  0.5341440000000 1.0
C      1  0.4848550000000  0.4501110000000  0.4656400000000 1.0
C      1  0.4493100000000  0.5346090000000  0.5153710000000 1.0
C      1  0.5514180000000  0.4651770000000  0.5154320000000 1.0
C      1  0.5521260000000  0.5338790000000  0.4847450000000 1.0
C      1  0.5340380000000  0.5152990000000  0.4475760000000 1.0
C      1  0.4657060000000  0.4848570000000  0.4470360000000 1.0
C      1  0.4658570000000  0.5155530000000  0.5529750000000 1.0
C      1  0.4763970000000  0.5131070000000  0.5062670000000 1.0
C      1  0.5149490000000  0.5045380000000  0.4688430000000 1.0
C      1  0.5099610000000  0.4698950000000  0.5194910000000 1.0
C      1  0.4704420000000  0.4827370000000  0.4932450000000 1.0
C      1  0.5282220000000  0.5166450000000  0.4938990000000 1.0
C      1  0.5268620000000  0.4884590000000  0.5065050000000 1.0
C      1  0.5152980000000  0.4945520000000  0.5313950000000 1.0
C      1  0.4853980000000  0.5083170000000  0.5308710000000 1.0
C      1  0.4844770000000  0.4925710000000  0.4687560000000 1.0
C      1  0.5028620000000  0.5288310000000  0.4804680000000 1.0
C      1  0.5002520000000  0.4762990000000  0.4914070000000 1.0
C      1  0.4862450000000  0.5239520000000  0.5090370000000 1.0
C      1  0.5295580000000  0.5172630000000  0.5067550000000 1.0
C      1  0.4847020000000  0.5054480000000  0.4686050000000 1.0
C      1  0.4971380000000  0.4711690000000  0.5195320000000 1.0
C      1  0.5236030000000  0.4868930000000  0.4937330000000 1.0
C      1  0.4731380000000  0.5115410000000  0.4934950000000 1.0
C      1  0.4717780000000  0.4833550000000  0.5061010000000 1.0
C      1  0.4850510000000  0.4954620000000  0.5311570000000 1.0
C      1  0.5155230000000  0.5074290000000  0.5312440000000 1.0
C      1  0.5146020000000  0.4916830000000  0.4691290000000 1.0
C      1  0.4900390000000  0.5301050000000  0.4805090000000 1.0
C      1  0.5137550000000  0.4760480000000  0.4909630000000 1.0
C      1  0.4997480000000  0.5237010000000  0.5085930000000 1.0
C      1  0.4607240000000  0.4606280000000  0.5492250000000 1.0
C      1  0.4602670000000  0.5501400000000  0.4601480000000 1.0
C      1  0.5489760000000  0.4600280000000  0.4602730000000 1.0
C      1  0.4607020000000  0.5397700000000  0.4505990000000 1.0
C      1  0.5390330000000  0.4601900000000  0.4502890000000 1.0
C      1  0.5393660000000  0.5392670000000  0.5499550000000 1.0
C      1  0.4606380000000  0.4507210000000  0.5392250000000 1.0
C      1  0.5393220000000  0.5492720000000  0.5400870000000 1.0
C      1  0.5391260000000  0.4499840000000  0.4599920000000 1.0
C      1  0.5493510000000  0.5393260000000  0.5399860000000 1.0
C      1  0.4507780000000  0.4607990000000  0.5392810000000 1.0
C      1  0.4505220000000  0.5399120000000  0.4602050000000 1.0
C      1  0.5392980000000  0.4602300000000  0.5494010000000 1.0
C      1  0.5393620000000  0.5492790000000  0.4607750000000 1.0
C      1  0.4506490000000  0.4606740000000  0.4600140000000 1.0
C      1  0.5392760000000  0.5393720000000  0.4507750000000 1.0
C      1  0.4606340000000  0.4607330000000  0.4500450000000 1.0
C      1  0.4609670000000  0.5398100000000  0.5497110000000 1.0
C      1  0.5397330000000  0.4498600000000  0.5398520000000 1.0
C      1  0.4608740000000  0.5500160000000  0.5400080000000 1.0
C      1  0.4606780000000  0.4507280000000  0.4599130000000 1.0
C      1  0.4510240000000  0.5399720000000  0.5397270000000 1.0
C      1  0.5494780000000  0.4600880000000  0.5397950000000 1.0
C      1  0.5492220000000  0.5392010000000  0.4607190000000 1.0
C      1  0.5110400000000  0.5516510000000  0.4883090000000 1.0
C      1  0.5510950000000  0.4888290000000  0.5128950000000 1.0
C      1  0.4889790000000  0.5126790000000  0.5559820000000 1.0
C      1  0.5132480000000  0.4453380000000  0.5122390000000 1.0
C      1  0.4867850000000  0.5500730000000  0.5100960000000 1.0
C      1  0.4875430000000  0.4551760000000  0.4885870000000 1.0
C      1  0.5517800000000  0.5108080000000  0.4880620000000 1.0
C      1  0.4463320000000  0.4885770000000  0.4870860000000 1.0
C      1  0.4512570000000  0.5114420000000  0.5127600000000 1.0
C      1  0.4887530000000  0.4874770000000  0.4439540000000 1.0
C      1  0.5112150000000  0.5123810000000  0.4448220000000 1.0
C      1  0.5112980000000  0.4874200000000  0.5553470000000 1.0
C      1  0.4867520000000  0.5546620000000  0.4877610000000 1.0
C      1  0.4482200000000  0.4891920000000  0.5119380000000 1.0
C      1  0.5112470000000  0.5125230000000  0.5560460000000 1.0
C      1  0.4889600000000  0.4483490000000  0.5116910000000 1.0
C      1  0.5124570000000  0.5448240000000  0.5114130000000 1.0
C      1  0.5132150000000  0.4499270000000  0.4899040000000 1.0
C      1  0.4489050000000  0.5111710000000  0.4871050000000 1.0
C      1  0.5487430000000  0.4885580000000  0.4872400000000 1.0
C      1  0.5536680000000  0.5114230000000  0.5129140000000 1.0
C      1  0.5110210000000  0.4873210000000  0.4440180000000 1.0
C      1  0.4887020000000  0.5125800000000  0.4446530000000 1.0
C      1  0.4887850000000  0.4876190000000  0.5551780000000 1.0
C      1  0.5371610000000  0.5077370000000  0.4871850000000 1.0
C      1  0.5069900000000  0.4882320000000  0.5412340000000 1.0
C      1  0.4838440000000  0.5374200000000  0.5033070000000 1.0
C      1  0.5378530000000  0.4947530000000  0.5121970000000 1.0
C      1  0.4649460000000  0.5061350000000  0.5136070000000 1.0
C      1  0.4608320000000  0.4914490000000  0.4871610000000 1.0
C      1  0.5069330000000  0.5114670000000  0.4589000000000 1.0
C      1  0.4926520000000  0.4864780000000  0.4583740000000 1.0
C      1  0.4934580000000  0.5138380000000  0.5415980000000 1.0
C      1  0.4916030000000  0.4661600000000  0.4961360000000 1.0
C      1  0.5097150000000  0.5371530000000  0.4901720000000 1.0
C      1  0.5151510000000  0.4602330000000  0.5102970000000 1.0
C      1  0.4621470000000  0.5052470000000  0.4878030000000 1.0
C      1  0.4930670000000  0.4885330000000  0.5411000000000 1.0
C      1  0.5083970000000  0.5338400000000  0.5038640000000 1.0
C      1  0.4628390000000  0.4922630000000  0.5128150000000 1.0
C      1  0.5391680000000  0.5085510000000  0.5128390000000 1.0
C      1  0.5350540000000  0.4938650000000  0.4863930000000 1.0
C      1  0.4930100000000  0.5117680000000  0.4587660000000 1.0
C      1  0.5065420000000  0.4861620000000  0.4584020000000 1.0
C      1  0.5073480000000  0.5135220000000  0.5416260000000 1.0
C      1  0.5161560000000  0.4625800000000  0.4966930000000 1.0
C      1  0.4848490000000  0.5397670000000  0.4897030000000 1.0
C      1  0.4902850000000  0.4628470000000  0.5098280000000 1.0
END
