TITL C-114180-423-114 -22.7667732150335 1000000 -1644.85224022479 0 0 240 (Td) n - 1
REM
REM in /home/chem/mssmkc/work/GAP20/Larger-Clusters/Only-C240/New/BUILD-ONLY
REM
REM
REM
REM
REM
REM ./C.cell (daee87de7206da95283bc1c1416dbc6f)
REM
REM compiler GCC version 8.3.0
REM options -cpp -mtune=generic -march=x86-64 -g -O0
REM seed -1797311012 1991481262 223644101 1944378936 -1514271686 1320984077 1488554071 -663809495 1179611983 980396448 1002267569 65854360 1137176428 -442587696 -851248745 -1020721365 -614147300 274372435 1700732953 1949090842 1238702143 448426507 1064871255 -400867399 1418332820 1329312740 1226385597 -1794113760 -1902595195 460967992 -2104124662 -144409306 1020664212
REM
CELL 1.54180  100.00000  100.00000  100.00000   90.00000   90.00000   90.00000
LATT -1
SFAC C  
C      1  0.5210740000000  0.5315330000000  0.4402690000000 1.0
C      1  0.5315350000000  0.4402710000000  0.5210750000000 1.0
C      1  0.4402700000000  0.5210740000000  0.5315340000000 1.0
C      1  0.4789270000000  0.5315380000000  0.5597280000000 1.0
C      1  0.4789280000000  0.4684620000000  0.4402710000000 1.0
C      1  0.5210720000000  0.4684670000000  0.5597320000000 1.0
C      1  0.4684640000000  0.4402690000000  0.4789290000000 1.0
C      1  0.4684650000000  0.5597310000000  0.5210700000000 1.0
C      1  0.5315360000000  0.5597290000000  0.4789250000000 1.0
C      1  0.5597300000000  0.5210710000000  0.4684640000000 1.0
C      1  0.5597290000000  0.4789280000000  0.5315370000000 1.0
C      1  0.4402700000000  0.4789270000000  0.4684650000000 1.0
C      1  0.4402700000000  0.5315370000000  0.5210710000000 1.0
C      1  0.5210720000000  0.4402710000000  0.5315380000000 1.0
C      1  0.5315360000000  0.5210700000000  0.4402690000000 1.0
C      1  0.5597300000000  0.5315340000000  0.4789270000000 1.0
C      1  0.4402700000000  0.4684640000000  0.4789280000000 1.0
C      1  0.5597300000000  0.4684650000000  0.5210750000000 1.0
C      1  0.4789270000000  0.4402690000000  0.4684670000000 1.0
C      1  0.5210730000000  0.5597290000000  0.4684620000000 1.0
C      1  0.4789270000000  0.5597310000000  0.5315330000000 1.0
C      1  0.4684640000000  0.5210750000000  0.5597290000000 1.0
C      1  0.5315350000000  0.4789300000000  0.5597310000000 1.0
C      1  0.4684650000000  0.4789250000000  0.4402710000000 1.0
C      1  0.5488780000000  0.5007410000000  0.4613630000000 1.0
C      1  0.5007420000000  0.4613640000000  0.5488790000000 1.0
C      1  0.4613630000000  0.5488780000000  0.5007400000000 1.0
C      1  0.4511220000000  0.5007440000000  0.5386370000000 1.0
C      1  0.4511230000000  0.4992560000000  0.4613620000000 1.0
C      1  0.5488770000000  0.4992590000000  0.5386380000000 1.0
C      1  0.4992580000000  0.4613610000000  0.4511240000000 1.0
C      1  0.4992570000000  0.5386390000000  0.5488760000000 1.0
C      1  0.5007430000000  0.5386350000000  0.4511210000000 1.0
C      1  0.5386380000000  0.5488770000000  0.4992560000000 1.0
C      1  0.5386370000000  0.4511220000000  0.5007450000000 1.0
C      1  0.4613620000000  0.4511230000000  0.4992590000000 1.0
C      1  0.4613620000000  0.5007450000000  0.5488770000000 1.0
C      1  0.5488770000000  0.4613620000000  0.5007450000000 1.0
C      1  0.5007430000000  0.5488760000000  0.4613600000000 1.0
C      1  0.5386380000000  0.5007400000000  0.4511230000000 1.0
C      1  0.4613630000000  0.4992560000000  0.4511220000000 1.0
C      1  0.5386370000000  0.4992590000000  0.5488780000000 1.0
C      1  0.4511220000000  0.4613630000000  0.4992590000000 1.0
C      1  0.5488780000000  0.5386370000000  0.4992560000000 1.0
C      1  0.4511230000000  0.5386380000000  0.5007400000000 1.0
C      1  0.4992570000000  0.5488790000000  0.5386350000000 1.0
C      1  0.5007420000000  0.4511240000000  0.5386400000000 1.0
C      1  0.4992580000000  0.4511210000000  0.4613650000000 1.0
C      1  0.4849730000000  0.4466310000000  0.5053540000000 1.0
C      1  0.4466310000000  0.5053520000000  0.4849720000000 1.0
C      1  0.5053530000000  0.4849710000000  0.4466310000000 1.0
C      1  0.5150270000000  0.4466310000000  0.4946500000000 1.0
C      1  0.5150270000000  0.5533690000000  0.5053500000000 1.0
C      1  0.4849740000000  0.5533690000000  0.4946450000000 1.0
C      1  0.5533690000000  0.5053530000000  0.5150270000000 1.0
C      1  0.5533690000000  0.4946470000000  0.4849740000000 1.0
C      1  0.4466310000000  0.4946490000000  0.5150260000000 1.0
C      1  0.4946470000000  0.4849750000000  0.5533700000000 1.0
C      1  0.4946480000000  0.5150250000000  0.4466300000000 1.0
C      1  0.5053520000000  0.5150290000000  0.5533690000000 1.0
C      1  0.5053520000000  0.4466300000000  0.4849750000000 1.0
C      1  0.4849740000000  0.5053500000000  0.4466300000000 1.0
C      1  0.4466310000000  0.4849740000000  0.5053520000000 1.0
C      1  0.4946470000000  0.4466310000000  0.5150290000000 1.0
C      1  0.5053530000000  0.5533700000000  0.5150250000000 1.0
C      1  0.4946480000000  0.5533690000000  0.4849710000000 1.0
C      1  0.5150260000000  0.5053540000000  0.5533690000000 1.0
C      1  0.4849730000000  0.4946500000000  0.5533690000000 1.0
C      1  0.5150270000000  0.4946450000000  0.4466310000000 1.0
C      1  0.5533690000000  0.4849730000000  0.4946490000000 1.0
C      1  0.4466310000000  0.5150270000000  0.4946470000000 1.0
C      1  0.5533690000000  0.5150270000000  0.5053520000000 1.0
C      1  0.5152380000000  0.5056270000000  0.4563860000000 1.0
C      1  0.5056280000000  0.4563860000000  0.5152400000000 1.0
C      1  0.4563860000000  0.5152380000000  0.5056270000000 1.0
C      1  0.4847620000000  0.5056300000000  0.5436140000000 1.0
C      1  0.4847630000000  0.4943700000000  0.4563860000000 1.0
C      1  0.5152370000000  0.4943730000000  0.5436140000000 1.0
C      1  0.4943710000000  0.4563850000000  0.4847640000000 1.0
C      1  0.4943720000000  0.5436150000000  0.5152360000000 1.0
C      1  0.5056290000000  0.5436130000000  0.4847600000000 1.0
C      1  0.5436140000000  0.5152370000000  0.4943710000000 1.0
C      1  0.5436140000000  0.4847620000000  0.5056300000000 1.0
C      1  0.4563860000000  0.4847620000000  0.4943720000000 1.0
C      1  0.4563860000000  0.5056290000000  0.5152370000000 1.0
C      1  0.5152370000000  0.4563860000000  0.5056310000000 1.0
C      1  0.5056290000000  0.5152360000000  0.4563850000000 1.0
C      1  0.5436140000000  0.5056280000000  0.4847620000000 1.0
C      1  0.4563860000000  0.4943710000000  0.4847620000000 1.0
C      1  0.5436140000000  0.4943720000000  0.5152390000000 1.0
C      1  0.4847620000000  0.4563860000000  0.4943730000000 1.0
C      1  0.5152380000000  0.5436140000000  0.4943700000000 1.0
C      1  0.4847620000000  0.5436140000000  0.5056270000000 1.0
C      1  0.4943710000000  0.5152400000000  0.5436130000000 1.0
C      1  0.5056280000000  0.4847640000000  0.5436150000000 1.0
C      1  0.4943720000000  0.4847600000000  0.4563860000000 1.0
C      1  0.5337910000000  0.5234450000000  0.4554780000000 1.0
C      1  0.5234470000000  0.4554800000000  0.5337920000000 1.0
C      1  0.4554790000000  0.5337910000000  0.5234460000000 1.0
C      1  0.4662100000000  0.5234500000000  0.5445200000000 1.0
C      1  0.4662100000000  0.4765510000000  0.4554790000000 1.0
C      1  0.5337890000000  0.4765540000000  0.5445230000000 1.0
C      1  0.4765520000000  0.4554780000000  0.4662120000000 1.0
C      1  0.4765520000000  0.5445230000000  0.5337880000000 1.0
C      1  0.5234480000000  0.5445200000000  0.4662080000000 1.0
C      1  0.5445220000000  0.5337890000000  0.4765520000000 1.0
C      1  0.5445210000000  0.4662110000000  0.5234490000000 1.0
C      1  0.4554790000000  0.4662090000000  0.4765530000000 1.0
C      1  0.4554790000000  0.5234490000000  0.5337890000000 1.0
C      1  0.5337890000000  0.4554790000000  0.5234500000000 1.0
C      1  0.5234480000000  0.5337880000000  0.4554780000000 1.0
C      1  0.5445220000000  0.5234460000000  0.4662090000000 1.0
C      1  0.4554790000000  0.4765510000000  0.4662100000000 1.0
C      1  0.5445210000000  0.4765540000000  0.5337920000000 1.0
C      1  0.4662100000000  0.4554780000000  0.4765540000000 1.0
C      1  0.5337910000000  0.5445200000000  0.4765510000000 1.0
C      1  0.4662100000000  0.5445220000000  0.5234450000000 1.0
C      1  0.4765520000000  0.5337920000000  0.5445200000000 1.0
C      1  0.5234470000000  0.4662120000000  0.5445230000000 1.0
C      1  0.4765530000000  0.4662080000000  0.4554800000000 1.0
C      1  0.4668330000000  0.4875480000000  0.5525460000000 1.0
C      1  0.4875470000000  0.5525450000000  0.4668310000000 1.0
C      1  0.5525460000000  0.4668330000000  0.4875480000000 1.0
C      1  0.5331670000000  0.4875430000000  0.4474550000000 1.0
C      1  0.5331660000000  0.5124560000000  0.5525460000000 1.0
C      1  0.4668340000000  0.5124520000000  0.4474530000000 1.0
C      1  0.5124540000000  0.5525470000000  0.5331640000000 1.0
C      1  0.5124540000000  0.4474530000000  0.4668360000000 1.0
C      1  0.4875450000000  0.4474560000000  0.5331680000000 1.0
C      1  0.4474540000000  0.4668350000000  0.5124550000000 1.0
C      1  0.4474550000000  0.5331660000000  0.4875440000000 1.0
C      1  0.5525460000000  0.5331660000000  0.5124530000000 1.0
C      1  0.5525460000000  0.4875440000000  0.4668350000000 1.0
C      1  0.4668340000000  0.5525460000000  0.4875430000000 1.0
C      1  0.4875450000000  0.4668360000000  0.5525470000000 1.0
C      1  0.4474540000000  0.4875470000000  0.5331660000000 1.0
C      1  0.5525460000000  0.5124550000000  0.5331660000000 1.0
C      1  0.4474550000000  0.5124530000000  0.4668330000000 1.0
C      1  0.5331660000000  0.5525460000000  0.5124520000000 1.0
C      1  0.4668330000000  0.4474550000000  0.5124560000000 1.0
C      1  0.5331660000000  0.4474530000000  0.4875480000000 1.0
C      1  0.5124550000000  0.4668320000000  0.4474560000000 1.0
C      1  0.4875470000000  0.5331640000000  0.4474530000000 1.0
C      1  0.5124540000000  0.5331680000000  0.5525450000000 1.0
C      1  0.5449050000000  0.5344400000000  0.5242890000000 1.0
C      1  0.5344390000000  0.5242920000000  0.5449040000000 1.0
C      1  0.5242900000000  0.5449060000000  0.5344380000000 1.0
C      1  0.4550960000000  0.5344390000000  0.4757080000000 1.0
C      1  0.4550940000000  0.4655620000000  0.5242910000000 1.0
C      1  0.5449050000000  0.4655590000000  0.4757120000000 1.0
C      1  0.4655610000000  0.5242890000000  0.4550940000000 1.0
C      1  0.4655600000000  0.4757120000000  0.5449060000000 1.0
C      1  0.5344400000000  0.4757080000000  0.4550960000000 1.0
C      1  0.4757110000000  0.5449040000000  0.4655590000000 1.0
C      1  0.4757090000000  0.4550970000000  0.5344410000000 1.0
C      1  0.5242900000000  0.4550940000000  0.4655630000000 1.0
C      1  0.5242900000000  0.5344410000000  0.5449040000000 1.0
C      1  0.5449050000000  0.5242910000000  0.5344390000000 1.0
C      1  0.5344390000000  0.5449060000000  0.5242890000000 1.0
C      1  0.4757110000000  0.5344380000000  0.4550930000000 1.0
C      1  0.5242900000000  0.4655590000000  0.4550970000000 1.0
C      1  0.4757090000000  0.4655630000000  0.5449060000000 1.0
C      1  0.4550960000000  0.5242890000000  0.4655590000000 1.0
C      1  0.5449050000000  0.4757080000000  0.4655620000000 1.0
C      1  0.4550940000000  0.4757120000000  0.5344400000000 1.0
C      1  0.4655610000000  0.5449040000000  0.4757080000000 1.0
C      1  0.5344390000000  0.4550940000000  0.4757120000000 1.0
C      1  0.4655600000000  0.4550960000000  0.5242920000000 1.0
C      1  0.5074230000000  0.4379760000000  0.5337540000000 1.0
C      1  0.4379750000000  0.5337520000000  0.5074220000000 1.0
C      1  0.5337520000000  0.5074210000000  0.4379750000000 1.0
C      1  0.4925760000000  0.4379740000000  0.4662520000000 1.0
C      1  0.4925760000000  0.5620260000000  0.5337480000000 1.0
C      1  0.5074240000000  0.5620240000000  0.4662470000000 1.0
C      1  0.5620250000000  0.5337500000000  0.4925760000000 1.0
C      1  0.5620250000000  0.4662490000000  0.5074260000000 1.0
C      1  0.4379750000000  0.4662490000000  0.4925770000000 1.0
C      1  0.4662490000000  0.5074260000000  0.5620240000000 1.0
C      1  0.4662500000000  0.4925740000000  0.4379750000000 1.0
C      1  0.5337500000000  0.4925790000000  0.5620260000000 1.0
C      1  0.5337500000000  0.4379750000000  0.5074270000000 1.0
C      1  0.5074250000000  0.5337480000000  0.4379740000000 1.0
C      1  0.4379750000000  0.5074250000000  0.5337500000000 1.0
C      1  0.4662490000000  0.4379750000000  0.4925790000000 1.0
C      1  0.5337510000000  0.5620240000000  0.4925740000000 1.0
C      1  0.4662500000000  0.5620250000000  0.5074210000000 1.0
C      1  0.4925760000000  0.5337530000000  0.5620230000000 1.0
C      1  0.5074230000000  0.4662520000000  0.5620260000000 1.0
C      1  0.4925770000000  0.4662470000000  0.4379760000000 1.0
C      1  0.5620250000000  0.5074220000000  0.4662490000000 1.0
C      1  0.4379750000000  0.4925760000000  0.4662490000000 1.0
C      1  0.5620250000000  0.4925770000000  0.5337520000000 1.0
C      1  0.4370880000000  0.5051360000000  0.4740150000000 1.0
C      1  0.5051370000000  0.4740140000000  0.4370880000000 1.0
C      1  0.4740160000000  0.4370880000000  0.5051390000000 1.0
C      1  0.5629130000000  0.5051370000000  0.5259840000000 1.0
C      1  0.5629130000000  0.4948620000000  0.4740170000000 1.0
C      1  0.4370870000000  0.4948650000000  0.5259830000000 1.0
C      1  0.4948630000000  0.4740190000000  0.5629140000000 1.0
C      1  0.4948640000000  0.5259810000000  0.4370860000000 1.0
C      1  0.5051360000000  0.5259860000000  0.5629120000000 1.0
C      1  0.5259830000000  0.4370870000000  0.4948660000000 1.0
C      1  0.5259840000000  0.5629130000000  0.5051340000000 1.0
C      1  0.4740170000000  0.5629130000000  0.4948610000000 1.0
C      1  0.4740170000000  0.5051340000000  0.4370870000000 1.0
C      1  0.4370870000000  0.4740170000000  0.5051370000000 1.0
C      1  0.5051360000000  0.4370860000000  0.4740190000000 1.0
C      1  0.5259830000000  0.5051390000000  0.5629130000000 1.0
C      1  0.4740150000000  0.4948660000000  0.5629130000000 1.0
C      1  0.5259850000000  0.4948610000000  0.4370880000000 1.0
C      1  0.5629130000000  0.4740160000000  0.4948650000000 1.0
C      1  0.4370880000000  0.5259840000000  0.4948620000000 1.0
C      1  0.5629130000000  0.5259840000000  0.5051360000000 1.0
C      1  0.4948630000000  0.4370880000000  0.5259860000000 1.0
C      1  0.5051370000000  0.5629140000000  0.5259810000000 1.0
C      1  0.4948640000000  0.5629120000000  0.4740130000000 1.0
C      1  0.5092340000000  0.5394500000000  0.4711430000000 1.0
C      1  0.5394510000000  0.4711450000000  0.5092350000000 1.0
C      1  0.4711450000000  0.5092350000000  0.5394500000000 1.0
C      1  0.4907660000000  0.5394520000000  0.5288530000000 1.0
C      1  0.4907660000000  0.4605480000000  0.4711470000000 1.0
C      1  0.5092330000000  0.4605500000000  0.5288570000000 1.0
C      1  0.4605490000000  0.4711450000000  0.4907670000000 1.0
C      1  0.4605490000000  0.5288560000000  0.5092320000000 1.0
C      1  0.5394510000000  0.5288540000000  0.4907660000000 1.0
C      1  0.5288550000000  0.5092320000000  0.4605490000000 1.0
C      1  0.5288550000000  0.4907680000000  0.5394520000000 1.0
C      1  0.4711450000000  0.4907650000000  0.4605490000000 1.0
C      1  0.4711450000000  0.5394510000000  0.5092320000000 1.0
C      1  0.5092330000000  0.4711470000000  0.5394520000000 1.0
C      1  0.5394510000000  0.5092320000000  0.4711450000000 1.0
C      1  0.5288550000000  0.5394500000000  0.4907650000000 1.0
C      1  0.4711450000000  0.4605490000000  0.4907680000000 1.0
C      1  0.5288550000000  0.4605490000000  0.5092360000000 1.0
C      1  0.4907670000000  0.4711430000000  0.4605500000000 1.0
C      1  0.5092340000000  0.5288530000000  0.4605480000000 1.0
C      1  0.4907660000000  0.5288570000000  0.5394500000000 1.0
C      1  0.4605490000000  0.5092350000000  0.5288540000000 1.0
C      1  0.5394510000000  0.4907670000000  0.5288560000000 1.0
C      1  0.4605490000000  0.4907650000000  0.4711450000000 1.0
END
