TITL C-114178-678-2 45.5252627390613 1000000 -1660.70036526978 0 0 240 (Td) n - 1
REM
REM in /home/chem/mssmkc/work/GAP20/Larger-Clusters/Only-C240/New/BUILD-ONLY
REM
REM
REM
REM
REM
REM ./C.cell (bb6d6a31a53f885396deea9821a410fc)
REM
REM compiler GCC version 8.3.0
REM options -cpp -mtune=generic -march=x86-64 -g -O0
REM seed -1394077645 44111971 -1984380520 1967178791 -1143573801 2125248765 -93993929 578234395 1784523647 1723097023 -618544313 -1901439731 1593934606 -194889707 -1364998051 18210461 -1161296481 327000726 -452468806 -1120526483 1047416083 -637177410 1796965023 -716695977 1324072760 294007329 -1000923107 890134324 619809378 1634978686 2141863389 961380686 -406207820
REM
CELL 1.54180  100.00000  100.00000  100.00000   90.00000   90.00000   90.00000
LATT -1
SFAC C  
C      1  0.5001520000000  0.4896420000000  0.5515340000000 1.0
C      1  0.4896330000000  0.5515320000000  0.5001460000000 1.0
C      1  0.5515330000000  0.5001540000000  0.4896370000000 1.0
C      1  0.5001620000000  0.5103580000000  0.4484660000000 1.0
C      1  0.4998480000000  0.4896210000000  0.4484700000000 1.0
C      1  0.4998380000000  0.5103790000000  0.5515300000000 1.0
C      1  0.4896310000000  0.4484680000000  0.4998520000000 1.0
C      1  0.5103690000000  0.5515320000000  0.4998340000000 1.0
C      1  0.5103670000000  0.4484680000000  0.5001680000000 1.0
C      1  0.5515310000000  0.4998440000000  0.5103730000000 1.0
C      1  0.4484670000000  0.5001600000000  0.5103630000000 1.0
C      1  0.4484690000000  0.4998420000000  0.4896270000000 1.0
C      1  0.5001590000000  0.5515300000000  0.4896210000000 1.0
C      1  0.4896270000000  0.5001680000000  0.5515310000000 1.0
C      1  0.5515320000000  0.4896310000000  0.5001640000000 1.0
C      1  0.5001550000000  0.4484700000000  0.5103790000000 1.0
C      1  0.4998430000000  0.4484660000000  0.4896420000000 1.0
C      1  0.4998430000000  0.5515340000000  0.5103580000000 1.0
C      1  0.4896360000000  0.4998330000000  0.4484670000000 1.0
C      1  0.5103630000000  0.4998530000000  0.5515330000000 1.0
C      1  0.5103730000000  0.5001460000000  0.4484690000000 1.0
C      1  0.5515320000000  0.5103670000000  0.4998460000000 1.0
C      1  0.4484680000000  0.5103690000000  0.5001500000000 1.0
C      1  0.4484680000000  0.4896330000000  0.4998400000000 1.0
C      1  0.5155630000000  0.4644390000000  0.5255630000000 1.0
C      1  0.4644330000000  0.5255580000000  0.5155570000000 1.0
C      1  0.5255580000000  0.5155580000000  0.4644330000000 1.0
C      1  0.5155690000000  0.5355600000000  0.4744400000000 1.0
C      1  0.4844360000000  0.4644290000000  0.4744510000000 1.0
C      1  0.4844330000000  0.5355710000000  0.5255460000000 1.0
C      1  0.4644350000000  0.4744430000000  0.4844360000000 1.0
C      1  0.5355680000000  0.5255510000000  0.4844320000000 1.0
C      1  0.5355640000000  0.4744480000000  0.5155740000000 1.0
C      1  0.5255510000000  0.4844410000000  0.5355710000000 1.0
C      1  0.4744430000000  0.5155730000000  0.5355600000000 1.0
C      1  0.4744490000000  0.4844280000000  0.4644350000000 1.0
C      1  0.5155690000000  0.5255470000000  0.4644300000000 1.0
C      1  0.4644320000000  0.5155720000000  0.5255480000000 1.0
C      1  0.5255520000000  0.4644370000000  0.5155750000000 1.0
C      1  0.5155620000000  0.4744520000000  0.5355730000000 1.0
C      1  0.4844370000000  0.4744390000000  0.4644380000000 1.0
C      1  0.4844310000000  0.5255620000000  0.5355590000000 1.0
C      1  0.4644360000000  0.4844300000000  0.4744450000000 1.0
C      1  0.5355630000000  0.4844390000000  0.5255610000000 1.0
C      1  0.5355690000000  0.5155600000000  0.4744460000000 1.0
C      1  0.5255570000000  0.5355620000000  0.4844300000000 1.0
C      1  0.4744450000000  0.5355700000000  0.5155560000000 1.0
C      1  0.4744460000000  0.4644310000000  0.4844390000000 1.0
C      1  0.5580660000000  0.5072400000000  0.5319190000000 1.0
C      1  0.5072300000000  0.5319270000000  0.5580630000000 1.0
C      1  0.5319160000000  0.5580690000000  0.5072260000000 1.0
C      1  0.5580710000000  0.4927580000000  0.4680910000000 1.0
C      1  0.4419350000000  0.5072290000000  0.4680780000000 1.0
C      1  0.4419280000000  0.4927730000000  0.5319120000000 1.0
C      1  0.5072390000000  0.4680730000000  0.4419390000000 1.0
C      1  0.4927710000000  0.5319040000000  0.4419240000000 1.0
C      1  0.4927590000000  0.4680960000000  0.5580740000000 1.0
C      1  0.5319150000000  0.4419290000000  0.4927800000000 1.0
C      1  0.4680860000000  0.5580680000000  0.4927510000000 1.0
C      1  0.4680830000000  0.4419340000000  0.5072430000000 1.0
C      1  0.5580690000000  0.5319160000000  0.5072340000000 1.0
C      1  0.5072330000000  0.5580750000000  0.5319040000000 1.0
C      1  0.5319100000000  0.5072460000000  0.5580700000000 1.0
C      1  0.5580690000000  0.4680820000000  0.4927770000000 1.0
C      1  0.4419300000000  0.4680870000000  0.5072360000000 1.0
C      1  0.4419330000000  0.5319150000000  0.4927540000000 1.0
C      1  0.5072370000000  0.4419250000000  0.4680970000000 1.0
C      1  0.4927610000000  0.4419380000000  0.5319260000000 1.0
C      1  0.4927690000000  0.5580620000000  0.4680720000000 1.0
C      1  0.5319210000000  0.4927530000000  0.4419360000000 1.0
C      1  0.4680790000000  0.4927780000000  0.5580670000000 1.0
C      1  0.4680900000000  0.5072230000000  0.4419270000000 1.0
C      1  0.5387680000000  0.5487910000000  0.4712670000000 1.0
C      1  0.5487930000000  0.4712800000000  0.5387750000000 1.0
C      1  0.4712690000000  0.5387750000000  0.5487870000000 1.0
C      1  0.5387610000000  0.4512080000000  0.5287400000000 1.0
C      1  0.4612340000000  0.5488040000000  0.5287140000000 1.0
C      1  0.4612370000000  0.4511970000000  0.4712790000000 1.0
C      1  0.5488020000000  0.5287180000000  0.4612340000000 1.0
C      1  0.4512060000000  0.4712660000000  0.4612370000000 1.0
C      1  0.4511990000000  0.5287360000000  0.5387540000000 1.0
C      1  0.4712770000000  0.4612260000000  0.4512080000000 1.0
C      1  0.5287320000000  0.5387540000000  0.4511970000000 1.0
C      1  0.5287220000000  0.4612450000000  0.5488080000000 1.0
C      1  0.5387590000000  0.4712820000000  0.5488070000000 1.0
C      1  0.5488010000000  0.5387580000000  0.4712700000000 1.0
C      1  0.4712700000000  0.5488060000000  0.5387520000000 1.0
C      1  0.5387700000000  0.5287160000000  0.4512000000000 1.0
C      1  0.4612320000000  0.5287380000000  0.5487880000000 1.0
C      1  0.4612400000000  0.4712640000000  0.4512050000000 1.0
C      1  0.5487940000000  0.4612400000000  0.5287390000000 1.0
C      1  0.4512040000000  0.4612310000000  0.4712760000000 1.0
C      1  0.4512010000000  0.5387710000000  0.5287150000000 1.0
C      1  0.4712760000000  0.4511950000000  0.4612430000000 1.0
C      1  0.5287230000000  0.4512100000000  0.5387770000000 1.0
C      1  0.5287310000000  0.5487890000000  0.4612280000000 1.0
C      1  0.4978310000000  0.5501580000000  0.5397100000000 1.0
C      1  0.5501510000000  0.5397190000000  0.4978310000000 1.0
C      1  0.5397150000000  0.4978430000000  0.5501540000000 1.0
C      1  0.4978370000000  0.4498420000000  0.4602900000000 1.0
C      1  0.5021710000000  0.5501420000000  0.4602700000000 1.0
C      1  0.5021620000000  0.4498580000000  0.5397300000000 1.0
C      1  0.5501490000000  0.4602790000000  0.5021790000000 1.0
C      1  0.4498500000000  0.5397210000000  0.5021530000000 1.0
C      1  0.4498490000000  0.4602800000000  0.4978370000000 1.0
C      1  0.5397250000000  0.5021550000000  0.4498530000000 1.0
C      1  0.4602850000000  0.4978240000000  0.4498470000000 1.0
C      1  0.4602750000000  0.5021770000000  0.5501460000000 1.0
C      1  0.4978300000000  0.5397300000000  0.5501420000000 1.0
C      1  0.5501460000000  0.4978410000000  0.5397250000000 1.0
C      1  0.5397210000000  0.5501490000000  0.4978280000000 1.0
C      1  0.4978380000000  0.4602700000000  0.4498580000000 1.0
C      1  0.5021610000000  0.4602900000000  0.5501580000000 1.0
C      1  0.5021710000000  0.5397100000000  0.4498420000000 1.0
C      1  0.5501540000000  0.5021570000000  0.4602840000000 1.0
C      1  0.4498460000000  0.5021750000000  0.5397150000000 1.0
C      1  0.4498540000000  0.4978270000000  0.4602760000000 1.0
C      1  0.5397190000000  0.4498500000000  0.5021800000000 1.0
C      1  0.4602790000000  0.4498500000000  0.4978400000000 1.0
C      1  0.4602810000000  0.5501510000000  0.5021520000000 1.0
C      1  0.5320190000000  0.4424000000000  0.4786940000000 1.0
C      1  0.4424010000000  0.4786870000000  0.5320170000000 1.0
C      1  0.4786850000000  0.5320070000000  0.4423960000000 1.0
C      1  0.5320170000000  0.5575990000000  0.5213120000000 1.0
C      1  0.4679790000000  0.4424100000000  0.5213290000000 1.0
C      1  0.4679850000000  0.5575910000000  0.4786650000000 1.0
C      1  0.4424080000000  0.5213150000000  0.4679720000000 1.0
C      1  0.5575980000000  0.4786720000000  0.4679920000000 1.0
C      1  0.5575930000000  0.5213260000000  0.5320190000000 1.0
C      1  0.4786740000000  0.4679940000000  0.5576000000000 1.0
C      1  0.5213160000000  0.5320290000000  0.5575910000000 1.0
C      1  0.5213250000000  0.4679700000000  0.4424130000000 1.0
C      1  0.5320230000000  0.4786670000000  0.4424120000000 1.0
C      1  0.4424070000000  0.5320150000000  0.4786680000000 1.0
C      1  0.4786750000000  0.4424120000000  0.5320280000000 1.0
C      1  0.5320130000000  0.5213320000000  0.5575940000000 1.0
C      1  0.4679880000000  0.5213090000000  0.4423970000000 1.0
C      1  0.4679760000000  0.4786920000000  0.5575970000000 1.0
C      1  0.4424020000000  0.4679870000000  0.5213220000000 1.0
C      1  0.5575970000000  0.4679770000000  0.4786910000000 1.0
C      1  0.5575940000000  0.5320210000000  0.5213190000000 1.0
C      1  0.4786830000000  0.5575890000000  0.4679680000000 1.0
C      1  0.5213190000000  0.5576010000000  0.5320080000000 1.0
C      1  0.5213220000000  0.4423980000000  0.4679960000000 1.0
C      1  0.4894340000000  0.4998960000000  0.4256880000000 1.0
C      1  0.4999100000000  0.4256870000000  0.4894420000000 1.0
C      1  0.4256890000000  0.4894280000000  0.4999060000000 1.0
C      1  0.4894200000000  0.5001050000000  0.5743090000000 1.0
C      1  0.5105660000000  0.4999250000000  0.5743110000000 1.0
C      1  0.5105800000000  0.5000740000000  0.4256900000000 1.0
C      1  0.4999110000000  0.5743130000000  0.5105580000000 1.0
C      1  0.5000870000000  0.4256920000000  0.5105880000000 1.0
C      1  0.5000920000000  0.5743080000000  0.4894120000000 1.0
C      1  0.4256900000000  0.5105740000000  0.5000800000000 1.0
C      1  0.5743100000000  0.4894260000000  0.5000980000000 1.0
C      1  0.5743110000000  0.5105720000000  0.4999150000000 1.0
C      1  0.4894260000000  0.4256900000000  0.4999250000000 1.0
C      1  0.4999170000000  0.4894120000000  0.4256920000000 1.0
C      1  0.4256900000000  0.4999100000000  0.4894200000000 1.0
C      1  0.4894280000000  0.5743110000000  0.5000730000000 1.0
C      1  0.5105740000000  0.5743100000000  0.4998970000000 1.0
C      1  0.5105720000000  0.4256890000000  0.5001050000000 1.0
C      1  0.4999040000000  0.5105880000000  0.5743080000000 1.0
C      1  0.5000960000000  0.5105580000000  0.4256870000000 1.0
C      1  0.5000820000000  0.4894420000000  0.5743130000000 1.0
C      1  0.4256890000000  0.5000930000000  0.5105660000000 1.0
C      1  0.5743110000000  0.5000860000000  0.4894340000000 1.0
C      1  0.5743100000000  0.4999110000000  0.5105800000000 1.0
C      1  0.5149700000000  0.4673040000000  0.5493310000000 1.0
C      1  0.4672930000000  0.5493270000000  0.5149630000000 1.0
C      1  0.5493270000000  0.5149680000000  0.4672960000000 1.0
C      1  0.5149810000000  0.5326960000000  0.4506710000000 1.0
C      1  0.4850280000000  0.4672840000000  0.4506820000000 1.0
C      1  0.4850200000000  0.5327160000000  0.5493150000000 1.0
C      1  0.4672940000000  0.4506740000000  0.4850310000000 1.0
C      1  0.5327080000000  0.5493200000000  0.4850180000000 1.0
C      1  0.5327040000000  0.4506790000000  0.5149890000000 1.0
C      1  0.5493200000000  0.4850300000000  0.5327140000000 1.0
C      1  0.4506740000000  0.5149830000000  0.5326980000000 1.0
C      1  0.4506790000000  0.4850190000000  0.4672920000000 1.0
C      1  0.5149790000000  0.5493160000000  0.4672850000000 1.0
C      1  0.4672900000000  0.5149860000000  0.5493170000000 1.0
C      1  0.5493210000000  0.4672960000000  0.5149870000000 1.0
C      1  0.5149720000000  0.4506830000000  0.5327170000000 1.0
C      1  0.4850270000000  0.4506700000000  0.4673020000000 1.0
C      1  0.4850220000000  0.5493300000000  0.5326950000000 1.0
C      1  0.4672980000000  0.4850150000000  0.4506770000000 1.0
C      1  0.5327010000000  0.4850340000000  0.5493290000000 1.0
C      1  0.5327110000000  0.5149650000000  0.4506770000000 1.0
C      1  0.5493250000000  0.5327020000000  0.4850220000000 1.0
C      1  0.4506760000000  0.5327100000000  0.5149640000000 1.0
C      1  0.4506770000000  0.4672920000000  0.4850260000000 1.0
C      1  0.4495110000000  0.5408160000000  0.4695660000000 1.0
C      1  0.5408250000000  0.4695680000000  0.4495180000000 1.0
C      1  0.4695750000000  0.4495170000000  0.5408280000000 1.0
C      1  0.4495040000000  0.4591860000000  0.5304240000000 1.0
C      1  0.5504900000000  0.5408260000000  0.5304170000000 1.0
C      1  0.5504940000000  0.4591720000000  0.4695920000000 1.0
C      1  0.5408170000000  0.5304300000000  0.5504900000000 1.0
C      1  0.4591740000000  0.4695900000000  0.5504940000000 1.0
C      1  0.4591840000000  0.5304110000000  0.4494980000000 1.0
C      1  0.4695840000000  0.5504840000000  0.4591660000000 1.0
C      1  0.5304240000000  0.4494990000000  0.4591920000000 1.0
C      1  0.5304180000000  0.5505000000000  0.5408140000000 1.0
C      1  0.4495040000000  0.4695890000000  0.5408220000000 1.0
C      1  0.5408230000000  0.4495010000000  0.4695930000000 1.0
C      1  0.4695850000000  0.5408110000000  0.4494970000000 1.0
C      1  0.4495120000000  0.5304130000000  0.4591680000000 1.0
C      1  0.5504890000000  0.5304280000000  0.5408190000000 1.0
C      1  0.5504950000000  0.4695700000000  0.4591900000000 1.0
C      1  0.5408190000000  0.5504970000000  0.5304140000000 1.0
C      1  0.4591830000000  0.5504870000000  0.4695650000000 1.0
C      1  0.4591750000000  0.4495150000000  0.5304270000000 1.0
C      1  0.4695740000000  0.4591900000000  0.5504970000000 1.0
C      1  0.5304250000000  0.4591690000000  0.4495190000000 1.0
C      1  0.5304170000000  0.5408300000000  0.5504870000000 1.0
C      1  0.4371890000000  0.5010710000000  0.4806610000000 1.0
C      1  0.5010790000000  0.4806540000000  0.4371910000000 1.0
C      1  0.4806660000000  0.4371880000000  0.5010840000000 1.0
C      1  0.4371850000000  0.4989320000000  0.5193280000000 1.0
C      1  0.5628110000000  0.5010760000000  0.5193390000000 1.0
C      1  0.5628150000000  0.4989210000000  0.4806730000000 1.0
C      1  0.5010680000000  0.5193460000000  0.5628090000000 1.0
C      1  0.4989200000000  0.4806800000000  0.5628170000000 1.0
C      1  0.4989330000000  0.5193210000000  0.4371830000000 1.0
C      1  0.4806680000000  0.5628130000000  0.4989120000000 1.0
C      1  0.5193320000000  0.4371870000000  0.4989410000000 1.0
C      1  0.5193340000000  0.5628130000000  0.5010630000000 1.0
C      1  0.4371870000000  0.4806680000000  0.5010720000000 1.0
C      1  0.5010740000000  0.4371830000000  0.4806800000000 1.0
C      1  0.4806730000000  0.5010610000000  0.4371850000000 1.0
C      1  0.4371880000000  0.5193340000000  0.4989170000000 1.0
C      1  0.5628130000000  0.5193320000000  0.5010750000000 1.0
C      1  0.5628120000000  0.4806660000000  0.4989360000000 1.0
C      1  0.5010730000000  0.5628170000000  0.5193210000000 1.0
C      1  0.4989290000000  0.5628090000000  0.4806540000000 1.0
C      1  0.4989240000000  0.4371910000000  0.5193460000000 1.0
C      1  0.4806610000000  0.4989400000000  0.5628110000000 1.0
C      1  0.5193390000000  0.4989140000000  0.4371890000000 1.0
C      1  0.5193270000000  0.5010860000000  0.5628140000000 1.0
END
