TITL C-114179-1211-16 -31.9764835321411 1000000 -1645.11446432884 0 0 240 (C1) n - 1
REM
REM in /home/chem/mssmkc/work/GAP20/Larger-Clusters/Only-C240/New/BUILD-ONLY
REM
REM
REM
REM
REM
REM ./C.cell (daee87de7206da95283bc1c1416dbc6f)
REM
REM compiler GCC version 8.3.0
REM options -cpp -mtune=generic -march=x86-64 -g -O0
REM seed 1056047833 -596046600 1758835814 237085690 -227243294 692174370 987686849 -510236525 1704271679 -2121164591 -1875134134 -393397461 -140051225 -2098298292 -1856707951 -1382052570 -1436255668 356851117 -1920686735 38983637 1198601748 -1438920495 1164883863 -692309805 365720372 1523627484 968439092 -1363566542 413708021 -873505922 1847766272 -1716271340 1683238432
REM
CELL 1.54180  100.00000  100.00000  100.00000   90.00000   90.00000   90.00000
LATT -1
SFAC C  
C      1  0.5512410000000  0.5512050000000  0.5061870000000 1.0
C      1  0.5066380000000  0.5515330000000  0.5514880000000 1.0
C      1  0.5518320000000  0.5069160000000  0.5517670000000 1.0
C      1  0.5519600000000  0.4480440000000  0.4926810000000 1.0
C      1  0.4487610000000  0.4487940000000  0.5062200000000 1.0
C      1  0.4480380000000  0.5519540000000  0.4926940000000 1.0
C      1  0.5072260000000  0.4480690000000  0.4480180000000 1.0
C      1  0.4933930000000  0.4484830000000  0.5514940000000 1.0
C      1  0.4927530000000  0.5519210000000  0.4480110000000 1.0
C      1  0.5511390000000  0.4937180000000  0.4488140000000 1.0
C      1  0.4481860000000  0.4930880000000  0.5517950000000 1.0
C      1  0.4488390000000  0.5062720000000  0.4488340000000 1.0
C      1  0.4487950000000  0.5512410000000  0.5062100000000 1.0
C      1  0.4931020000000  0.5518250000000  0.5517750000000 1.0
C      1  0.4484880000000  0.5066240000000  0.5514990000000 1.0
C      1  0.4480440000000  0.4480390000000  0.4927040000000 1.0
C      1  0.5512060000000  0.4487620000000  0.5061970000000 1.0
C      1  0.5519540000000  0.5519610000000  0.4926710000000 1.0
C      1  0.4937120000000  0.4488460000000  0.4488300000000 1.0
C      1  0.5069280000000  0.4481800000000  0.5517860000000 1.0
C      1  0.5062670000000  0.5511450000000  0.4488170000000 1.0
C      1  0.4480630000000  0.4927580000000  0.4480260000000 1.0
C      1  0.5515380000000  0.4933800000000  0.5514820000000 1.0
C      1  0.5519150000000  0.5072320000000  0.4480020000000 1.0
C      1  0.5538790000000  0.5130460000000  0.5388390000000 1.0
C      1  0.5387400000000  0.5535860000000  0.5127560000000 1.0
C      1  0.5129410000000  0.5388130000000  0.5538060000000 1.0
C      1  0.5536070000000  0.4871650000000  0.4612950000000 1.0
C      1  0.4461350000000  0.4869590000000  0.5388660000000 1.0
C      1  0.4463770000000  0.5128280000000  0.4613160000000 1.0
C      1  0.5388970000000  0.4459590000000  0.4867420000000 1.0
C      1  0.4612660000000  0.4464170000000  0.5127840000000 1.0
C      1  0.4610980000000  0.5540380000000  0.4867490000000 1.0
C      1  0.5132130000000  0.4611360000000  0.4461260000000 1.0
C      1  0.4870850000000  0.4611980000000  0.5538170000000 1.0
C      1  0.4867640000000  0.5388540000000  0.4461240000000 1.0
C      1  0.4463050000000  0.5129450000000  0.5387670000000 1.0
C      1  0.4612950000000  0.5537310000000  0.5127410000000 1.0
C      1  0.4869950000000  0.5389040000000  0.5539250000000 1.0
C      1  0.4459820000000  0.4867860000000  0.4610710000000 1.0
C      1  0.5537130000000  0.4870590000000  0.5387470000000 1.0
C      1  0.5540020000000  0.5132070000000  0.4610450000000 1.0
C      1  0.4611270000000  0.4461700000000  0.4867330000000 1.0
C      1  0.5387100000000  0.4462720000000  0.5127350000000 1.0
C      1  0.5388680000000  0.5538280000000  0.4867060000000 1.0
C      1  0.4871310000000  0.4613200000000  0.4464090000000 1.0
C      1  0.5130310000000  0.4611050000000  0.5539300000000 1.0
C      1  0.5128460000000  0.5386690000000  0.4463960000000 1.0
C      1  0.4922910000000  0.5589240000000  0.4731920000000 1.0
C      1  0.4732810000000  0.4923580000000  0.5588830000000 1.0
C      1  0.5586940000000  0.4732790000000  0.4922530000000 1.0
C      1  0.4923830000000  0.4413330000000  0.5266280000000 1.0
C      1  0.5076980000000  0.4410710000000  0.4732000000000 1.0
C      1  0.5076300000000  0.5586740000000  0.5266150000000 1.0
C      1  0.4733780000000  0.5075590000000  0.4413580000000 1.0
C      1  0.5267440000000  0.5076520000000  0.5588700000000 1.0
C      1  0.5265960000000  0.4924300000000  0.4413490000000 1.0
C      1  0.5588260000000  0.5266140000000  0.5075110000000 1.0
C      1  0.4413020000000  0.5267200000000  0.4922730000000 1.0
C      1  0.4411760000000  0.4733870000000  0.5075420000000 1.0
C      1  0.5075550000000  0.5587270000000  0.4733470000000 1.0
C      1  0.5266930000000  0.4923710000000  0.5588320000000 1.0
C      1  0.4410240000000  0.4732380000000  0.4922620000000 1.0
C      1  0.5076510000000  0.4412340000000  0.5266790000000 1.0
C      1  0.4924350000000  0.4412680000000  0.4733620000000 1.0
C      1  0.4923620000000  0.5587720000000  0.5266700000000 1.0
C      1  0.5267000000000  0.5076850000000  0.4412570000000 1.0
C      1  0.4733330000000  0.5076390000000  0.5588400000000 1.0
C      1  0.4732750000000  0.4923030000000  0.4412690000000 1.0
C      1  0.4414040000000  0.5266280000000  0.5075340000000 1.0
C      1  0.5589720000000  0.5267600000000  0.4922310000000 1.0
C      1  0.5585980000000  0.4733740000000  0.5075140000000 1.0
C      1  0.5162570000000  0.4402840000000  0.5162490000000 1.0
C      1  0.5162480000000  0.5162390000000  0.4403840000000 1.0
C      1  0.4404500000000  0.5162330000000  0.5161970000000 1.0
C      1  0.5162560000000  0.5596340000000  0.4837130000000 1.0
C      1  0.4837510000000  0.5597190000000  0.5162440000000 1.0
C      1  0.4837380000000  0.4403640000000  0.4837320000000 1.0
C      1  0.5163400000000  0.4836500000000  0.5597610000000 1.0
C      1  0.4837260000000  0.4837490000000  0.4403940000000 1.0
C      1  0.4836870000000  0.5163600000000  0.5597630000000 1.0
C      1  0.4401500000000  0.4835670000000  0.4835360000000 1.0
C      1  0.5595560000000  0.4837710000000  0.5161750000000 1.0
C      1  0.5598430000000  0.5164300000000  0.4835070000000 1.0
C      1  0.4837730000000  0.4404500000000  0.5161940000000 1.0
C      1  0.4837420000000  0.5162550000000  0.4403910000000 1.0
C      1  0.5597200000000  0.5162540000000  0.5162320000000 1.0
C      1  0.4835650000000  0.5598450000000  0.4835190000000 1.0
C      1  0.5162350000000  0.5595550000000  0.5161770000000 1.0
C      1  0.5164290000000  0.4401520000000  0.4835240000000 1.0
C      1  0.4836580000000  0.4836790000000  0.5597670000000 1.0
C      1  0.5162320000000  0.4837330000000  0.4403870000000 1.0
C      1  0.5163680000000  0.5163320000000  0.5597570000000 1.0
C      1  0.5596310000000  0.4837400000000  0.4837110000000 1.0
C      1  0.4402850000000  0.4837470000000  0.5162620000000 1.0
C      1  0.4403620000000  0.5162570000000  0.4837340000000 1.0
C      1  0.5389110000000  0.5130220000000  0.5539180000000 1.0
C      1  0.5537310000000  0.5387080000000  0.5127230000000 1.0
C      1  0.5129530000000  0.5537090000000  0.5387500000000 1.0
C      1  0.5386630000000  0.4871370000000  0.4463950000000 1.0
C      1  0.4611120000000  0.4869850000000  0.5539380000000 1.0
C      1  0.4613140000000  0.5128530000000  0.4464090000000 1.0
C      1  0.5538260000000  0.4611280000000  0.4867120000000 1.0
C      1  0.4462730000000  0.4612940000000  0.5127530000000 1.0
C      1  0.4461690000000  0.5388690000000  0.4867270000000 1.0
C      1  0.5132020000000  0.4459860000000  0.4610600000000 1.0
C      1  0.4870670000000  0.4463010000000  0.5387640000000 1.0
C      1  0.4867820000000  0.5540060000000  0.4610560000000 1.0
C      1  0.4612050000000  0.5129310000000  0.5538170000000 1.0
C      1  0.4464170000000  0.5387390000000  0.5127780000000 1.0
C      1  0.4869670000000  0.5538750000000  0.5388500000000 1.0
C      1  0.4611290000000  0.4867700000000  0.4461340000000 1.0
C      1  0.5388190000000  0.4870760000000  0.5538050000000 1.0
C      1  0.5388480000000  0.5132190000000  0.4461150000000 1.0
C      1  0.4459570000000  0.4610990000000  0.4867610000000 1.0
C      1  0.5535870000000  0.4612640000000  0.5127620000000 1.0
C      1  0.5540370000000  0.5388990000000  0.4867300000000 1.0
C      1  0.4871600000000  0.4463810000000  0.4613130000000 1.0
C      1  0.5130530000000  0.4461320000000  0.5388550000000 1.0
C      1  0.5128240000000  0.5536120000000  0.4612980000000 1.0
C      1  0.4592690000000  0.5209400000000  0.5408430000000 1.0
C      1  0.5407660000000  0.4590870000000  0.5210110000000 1.0
C      1  0.5211190000000  0.5407980000000  0.4592190000000 1.0
C      1  0.4592080000000  0.4792520000000  0.4593510000000 1.0
C      1  0.5407470000000  0.4790680000000  0.5408290000000 1.0
C      1  0.5407750000000  0.5207400000000  0.4593300000000 1.0
C      1  0.5408050000000  0.5405950000000  0.4792180000000 1.0
C      1  0.4592430000000  0.5409170000000  0.5210190000000 1.0
C      1  0.4591860000000  0.4594020000000  0.4792430000000 1.0
C      1  0.5207550000000  0.4592510000000  0.5408160000000 1.0
C      1  0.4788640000000  0.4591940000000  0.4592360000000 1.0
C      1  0.4792610000000  0.5407590000000  0.5408170000000 1.0
C      1  0.5407620000000  0.5207520000000  0.5408060000000 1.0
C      1  0.4590900000000  0.4592410000000  0.5210270000000 1.0
C      1  0.4792470000000  0.5407790000000  0.4593410000000 1.0
C      1  0.5407940000000  0.4788690000000  0.4592210000000 1.0
C      1  0.4592550000000  0.4792580000000  0.5408270000000 1.0
C      1  0.4591890000000  0.5211230000000  0.4592340000000 1.0
C      1  0.4593990000000  0.5408070000000  0.4792360000000 1.0
C      1  0.5409190000000  0.5407640000000  0.5210020000000 1.0
C      1  0.5405920000000  0.4591890000000  0.4792260000000 1.0
C      1  0.4790710000000  0.4592650000000  0.5408450000000 1.0
C      1  0.5207350000000  0.4592130000000  0.4593400000000 1.0
C      1  0.5209430000000  0.5407430000000  0.5408270000000 1.0
C      1  0.5266150000000  0.4411760000000  0.5075260000000 1.0
C      1  0.5075520000000  0.5266030000000  0.4413490000000 1.0
C      1  0.4413340000000  0.5076260000000  0.5266330000000 1.0
C      1  0.5267190000000  0.5586960000000  0.4922510000000 1.0
C      1  0.4733880000000  0.5588260000000  0.5075260000000 1.0
C      1  0.4732780000000  0.4413040000000  0.4922740000000 1.0
C      1  0.5076600000000  0.4732730000000  0.5588780000000 1.0
C      1  0.4924230000000  0.4733850000000  0.4413570000000 1.0
C      1  0.4923660000000  0.5267370000000  0.5588740000000 1.0
C      1  0.4410680000000  0.4922940000000  0.4732100000000 1.0
C      1  0.5586760000000  0.4923780000000  0.5266100000000 1.0
C      1  0.5589210000000  0.5077010000000  0.4731830000000 1.0
C      1  0.4733750000000  0.4414040000000  0.5075350000000 1.0
C      1  0.4922960000000  0.5267070000000  0.4412620000000 1.0
C      1  0.5587740000000  0.5076460000000  0.5266610000000 1.0
C      1  0.4732380000000  0.5589730000000  0.4922470000000 1.0
C      1  0.5266290000000  0.5585980000000  0.5075130000000 1.0
C      1  0.5267600000000  0.4410250000000  0.4922460000000 1.0
C      1  0.4923790000000  0.4733260000000  0.5588400000000 1.0
C      1  0.5076790000000  0.4732820000000  0.4412640000000 1.0
C      1  0.5076470000000  0.5266860000000  0.5588320000000 1.0
C      1  0.5587240000000  0.4924370000000  0.4733430000000 1.0
C      1  0.4412360000000  0.4923580000000  0.5266880000000 1.0
C      1  0.4412650000000  0.5075570000000  0.4733670000000 1.0
C      1  0.4742610000000  0.4939080000000  0.4743380000000 1.0
C      1  0.4741910000000  0.4744090000000  0.4939040000000 1.0
C      1  0.4935590000000  0.4741980000000  0.4742480000000 1.0
C      1  0.4742800000000  0.5063570000000  0.5257610000000 1.0
C      1  0.5257280000000  0.5060870000000  0.4743270000000 1.0
C      1  0.5257300000000  0.4936500000000  0.5257500000000 1.0
C      1  0.4743100000000  0.5258850000000  0.5064230000000 1.0
C      1  0.5258060000000  0.5255900000000  0.4938880000000 1.0
C      1  0.5256920000000  0.4741150000000  0.5064180000000 1.0
C      1  0.4938300000000  0.5257100000000  0.5257410000000 1.0
C      1  0.5064300000000  0.5257970000000  0.4742410000000 1.0
C      1  0.5061780000000  0.4742960000000  0.5257440000000 1.0
C      1  0.5257940000000  0.4935620000000  0.4742400000000 1.0
C      1  0.5255890000000  0.4741920000000  0.4938930000000 1.0
C      1  0.5060840000000  0.4742640000000  0.4743340000000 1.0
C      1  0.5257120000000  0.5061770000000  0.5257360000000 1.0
C      1  0.4741950000000  0.5064330000000  0.4742490000000 1.0
C      1  0.4742990000000  0.4938300000000  0.5257480000000 1.0
C      1  0.5258870000000  0.5256920000000  0.5064120000000 1.0
C      1  0.4744080000000  0.5258060000000  0.4938990000000 1.0
C      1  0.4741160000000  0.4743100000000  0.5064280000000 1.0
C      1  0.5063580000000  0.5257270000000  0.5257510000000 1.0
C      1  0.4939050000000  0.5257310000000  0.4743310000000 1.0
C      1  0.4936510000000  0.4742780000000  0.5257600000000 1.0
C      1  0.4700010000000  0.4811930000000  0.4702710000000 1.0
C      1  0.4699770000000  0.4703120000000  0.4811830000000 1.0
C      1  0.4807930000000  0.4701240000000  0.4701510000000 1.0
C      1  0.4701820000000  0.5190760000000  0.5300100000000 1.0
C      1  0.5299860000000  0.5188010000000  0.4702550000000 1.0
C      1  0.5298290000000  0.4809310000000  0.5300010000000 1.0
C      1  0.4701590000000  0.5300400000000  0.5191570000000 1.0
C      1  0.5300150000000  0.5296850000000  0.4811640000000 1.0
C      1  0.5298480000000  0.4699640000000  0.5191510000000 1.0
C      1  0.4811370000000  0.5298980000000  0.5299810000000 1.0
C      1  0.5191940000000  0.5298700000000  0.4701380000000 1.0
C      1  0.5188740000000  0.4701090000000  0.5299790000000 1.0
C      1  0.5298670000000  0.4807970000000  0.4701400000000 1.0
C      1  0.5296830000000  0.4699790000000  0.4811700000000 1.0
C      1  0.5187970000000  0.4700050000000  0.4702620000000 1.0
C      1  0.5299000000000  0.5188720000000  0.5299720000000 1.0
C      1  0.4701210000000  0.5191980000000  0.4701490000000 1.0
C      1  0.4701110000000  0.4811350000000  0.5299870000000 1.0
C      1  0.5300410000000  0.5298470000000  0.5191450000000 1.0
C      1  0.4703090000000  0.5300170000000  0.4811770000000 1.0
C      1  0.4699650000000  0.4701580000000  0.5191630000000 1.0
C      1  0.5190770000000  0.5298270000000  0.5299980000000 1.0
C      1  0.4811900000000  0.5299900000000  0.4702640000000 1.0
C      1  0.4809320000000  0.4701800000000  0.5300130000000 1.0
C      1  0.5345330000000  0.5440300000000  0.5442110000000 1.0
C      1  0.5440550000000  0.5342750000000  0.5441330000000 1.0
C      1  0.5442970000000  0.5440970000000  0.5346600000000 1.0
C      1  0.5342410000000  0.4557940000000  0.4560660000000 1.0
C      1  0.4654810000000  0.4559770000000  0.5442360000000 1.0
C      1  0.4657400000000  0.5441980000000  0.4560720000000 1.0
C      1  0.5441910000000  0.4651680000000  0.4558050000000 1.0
C      1  0.4559630000000  0.4657360000000  0.5441560000000 1.0
C      1  0.4557910000000  0.5348230000000  0.4558170000000 1.0
C      1  0.5438660000000  0.4557620000000  0.4657210000000 1.0
C      1  0.4557160000000  0.4559110000000  0.5346860000000 1.0
C      1  0.4561190000000  0.5442310000000  0.4657310000000 1.0
C      1  0.4657390000000  0.5440520000000  0.5441470000000 1.0
C      1  0.4559820000000  0.5345310000000  0.5442300000000 1.0
C      1  0.4559140000000  0.5442940000000  0.5346770000000 1.0
C      1  0.4651630000000  0.4557960000000  0.4558220000000 1.0
C      1  0.5342780000000  0.4559590000000  0.5441410000000 1.0
C      1  0.5348180000000  0.5441960000000  0.4557990000000 1.0
C      1  0.4557890000000  0.4657450000000  0.4560810000000 1.0
C      1  0.5440350000000  0.4654790000000  0.5442180000000 1.0
C      1  0.5441930000000  0.5342470000000  0.4560560000000 1.0
C      1  0.4557580000000  0.4561230000000  0.4657400000000 1.0
C      1  0.5441010000000  0.4557120000000  0.5346690000000 1.0
C      1  0.5442270000000  0.5438700000000  0.4657120000000 1.0
END
