TITL C-114179-1211-73 -123.983194353786 1000000 -1679.5352489502 0 0 240 (Td) n - 1
REM
REM in /home/chem/mssmkc/work/GAP20/Larger-Clusters/Only-C240/New/BUILD-ONLY
REM
REM
REM
REM
REM
REM ./C.cell (daee87de7206da95283bc1c1416dbc6f)
REM
REM compiler GCC version 8.3.0
REM options -cpp -mtune=generic -march=x86-64 -g -O0
REM seed -1596751122 -701765969 146892682 1571969557 1474388360 82175868 -881908572 908843308 -1284767244 1069925324 -1615573349 1496256681 2146838559 146142994 -3926974 -493200356 169046858 -2096017584 -1082994509 992788999 -840934371 -912931724 1415224654 -435399418 -1737595803 1015543935 552584785 1139255166 -741736283 1622722587 2104601722 -1952921117 -1900958015
REM
CELL 1.54180  100.00000  100.00000  100.00000   90.00000   90.00000   90.00000
LATT -1
SFAC C  
C      1  0.4563990000000  0.5539950000000  0.5337700000000 1.0
C      1  0.5539960000000  0.5337710000000  0.4564000000000 1.0
C      1  0.5337710000000  0.4564010000000  0.5539960000000 1.0
C      1  0.5436010000000  0.4460050000000  0.5337710000000 1.0
C      1  0.4564010000000  0.4460030000000  0.4662300000000 1.0
C      1  0.5435990000000  0.5539960000000  0.4662300000000 1.0
C      1  0.4460050000000  0.4662280000000  0.4564000000000 1.0
C      1  0.5539960000000  0.4662310000000  0.5436010000000 1.0
C      1  0.4460030000000  0.5337700000000  0.5436000000000 1.0
C      1  0.4662280000000  0.5436000000000  0.5539950000000 1.0
C      1  0.5337700000000  0.5436000000000  0.4460040000000 1.0
C      1  0.4662310000000  0.4563990000000  0.4460040000000 1.0
C      1  0.5539960000000  0.4564010000000  0.5337710000000 1.0
C      1  0.5337700000000  0.5539960000000  0.4564000000000 1.0
C      1  0.4563990000000  0.5337700000000  0.5539950000000 1.0
C      1  0.4460030000000  0.5435990000000  0.5337700000000 1.0
C      1  0.4460050000000  0.4563990000000  0.4662290000000 1.0
C      1  0.5539950000000  0.5436010000000  0.4662300000000 1.0
C      1  0.4662310000000  0.4460030000000  0.4564000000000 1.0
C      1  0.4662280000000  0.5539950000000  0.5436000000000 1.0
C      1  0.5337710000000  0.4460050000000  0.5436010000000 1.0
C      1  0.5436000000000  0.4662310000000  0.5539960000000 1.0
C      1  0.5436000000000  0.5337710000000  0.4460040000000 1.0
C      1  0.4564010000000  0.4662280000000  0.4460040000000 1.0
C      1  0.5334650000000  0.5077610000000  0.5446410000000 1.0
C      1  0.5077590000000  0.5446410000000  0.5334660000000 1.0
C      1  0.5446400000000  0.5334670000000  0.5077600000000 1.0
C      1  0.4665340000000  0.4922390000000  0.5446400000000 1.0
C      1  0.5334660000000  0.4922400000000  0.4553600000000 1.0
C      1  0.4665340000000  0.5077590000000  0.4553590000000 1.0
C      1  0.4922400000000  0.4553600000000  0.5334660000000 1.0
C      1  0.5077610000000  0.4553590000000  0.4665350000000 1.0
C      1  0.4922390000000  0.5446400000000  0.4665340000000 1.0
C      1  0.4553600000000  0.4665340000000  0.5077600000000 1.0
C      1  0.5446410000000  0.4665350000000  0.4922400000000 1.0
C      1  0.4553590000000  0.5334650000000  0.4922390000000 1.0
C      1  0.5077590000000  0.5334660000000  0.5446410000000 1.0
C      1  0.5446400000000  0.5077610000000  0.5334660000000 1.0
C      1  0.5334650000000  0.5446410000000  0.5077600000000 1.0
C      1  0.4922400000000  0.4665340000000  0.5446410000000 1.0
C      1  0.4922390000000  0.5334650000000  0.4553590000000 1.0
C      1  0.5077610000000  0.4665340000000  0.4553600000000 1.0
C      1  0.4553590000000  0.4922390000000  0.5334650000000 1.0
C      1  0.4553590000000  0.5077590000000  0.4665340000000 1.0
C      1  0.5446410000000  0.4922400000000  0.4665340000000 1.0
C      1  0.4665350000000  0.4553590000000  0.5077600000000 1.0
C      1  0.4665340000000  0.5446400000000  0.4922390000000 1.0
C      1  0.5334670000000  0.4553600000000  0.4922400000000 1.0
C      1  0.4755150000000  0.5520290000000  0.5020620000000 1.0
C      1  0.5520300000000  0.5020630000000  0.4755160000000 1.0
C      1  0.5020620000000  0.4755160000000  0.5520300000000 1.0
C      1  0.5244850000000  0.4479710000000  0.5020620000000 1.0
C      1  0.4755170000000  0.4479700000000  0.4979380000000 1.0
C      1  0.5244830000000  0.5520300000000  0.4979380000000 1.0
C      1  0.4479710000000  0.4979370000000  0.4755150000000 1.0
C      1  0.5520290000000  0.4979390000000  0.5244850000000 1.0
C      1  0.4479700000000  0.5020610000000  0.5244840000000 1.0
C      1  0.4979370000000  0.5244850000000  0.5520300000000 1.0
C      1  0.5020620000000  0.5244840000000  0.4479710000000 1.0
C      1  0.4979390000000  0.4755150000000  0.4479710000000 1.0
C      1  0.5520300000000  0.4755160000000  0.5020620000000 1.0
C      1  0.5020610000000  0.5520290000000  0.4755160000000 1.0
C      1  0.4755150000000  0.5020620000000  0.5520290000000 1.0
C      1  0.4479700000000  0.5244840000000  0.5020610000000 1.0
C      1  0.4479710000000  0.4755150000000  0.4979380000000 1.0
C      1  0.5520290000000  0.5244850000000  0.4979380000000 1.0
C      1  0.4979390000000  0.4479700000000  0.4755160000000 1.0
C      1  0.4979370000000  0.5520300000000  0.5244840000000 1.0
C      1  0.5020630000000  0.4479710000000  0.5244850000000 1.0
C      1  0.5244840000000  0.4979390000000  0.5520300000000 1.0
C      1  0.5244850000000  0.5020620000000  0.4479700000000 1.0
C      1  0.4755160000000  0.4979370000000  0.4479700000000 1.0
C      1  0.4736810000000  0.5159850000000  0.5516100000000 1.0
C      1  0.5159840000000  0.5516100000000  0.4736820000000 1.0
C      1  0.5516100000000  0.4736830000000  0.5159860000000 1.0
C      1  0.5263180000000  0.4840160000000  0.5516100000000 1.0
C      1  0.4736830000000  0.4840140000000  0.4483900000000 1.0
C      1  0.5263180000000  0.5159850000000  0.4483900000000 1.0
C      1  0.4840160000000  0.4483900000000  0.4736820000000 1.0
C      1  0.5159860000000  0.4483910000000  0.5263180000000 1.0
C      1  0.4840140000000  0.5516100000000  0.5263180000000 1.0
C      1  0.4483890000000  0.5263170000000  0.5159840000000 1.0
C      1  0.5516100000000  0.5263190000000  0.4840150000000 1.0
C      1  0.4483910000000  0.4736810000000  0.4840150000000 1.0
C      1  0.5159850000000  0.4736830000000  0.5516100000000 1.0
C      1  0.5516100000000  0.5159860000000  0.4736820000000 1.0
C      1  0.4736810000000  0.5516090000000  0.5159850000000 1.0
C      1  0.4840140000000  0.5263180000000  0.5516100000000 1.0
C      1  0.4840160000000  0.4736810000000  0.4483900000000 1.0
C      1  0.5159850000000  0.5263180000000  0.4483900000000 1.0
C      1  0.4483910000000  0.4840140000000  0.4736820000000 1.0
C      1  0.4483900000000  0.5159840000000  0.5263170000000 1.0
C      1  0.5516100000000  0.4840160000000  0.5263180000000 1.0
C      1  0.5263190000000  0.4483910000000  0.5159860000000 1.0
C      1  0.5263170000000  0.5516100000000  0.4840150000000 1.0
C      1  0.4736830000000  0.4483890000000  0.4840150000000 1.0
C      1  0.5512400000000  0.5413260000000  0.5309910000000 1.0
C      1  0.5413240000000  0.5309920000000  0.5512410000000 1.0
C      1  0.5309890000000  0.5512420000000  0.5413250000000 1.0
C      1  0.4487600000000  0.4586740000000  0.5309900000000 1.0
C      1  0.5512420000000  0.4586760000000  0.4690100000000 1.0
C      1  0.4487590000000  0.5413240000000  0.4690090000000 1.0
C      1  0.4586750000000  0.4690090000000  0.5512410000000 1.0
C      1  0.5413260000000  0.4690100000000  0.4487600000000 1.0
C      1  0.4586750000000  0.5309900000000  0.4487590000000 1.0
C      1  0.4690100000000  0.4487590000000  0.5413250000000 1.0
C      1  0.5309920000000  0.4487600000000  0.4586750000000 1.0
C      1  0.4690090000000  0.5512400000000  0.4586740000000 1.0
C      1  0.5413240000000  0.5512420000000  0.5309910000000 1.0
C      1  0.5309900000000  0.5413260000000  0.5512410000000 1.0
C      1  0.5512400000000  0.5309920000000  0.5413250000000 1.0
C      1  0.4586760000000  0.4487590000000  0.5309910000000 1.0
C      1  0.4586740000000  0.5512400000000  0.4690090000000 1.0
C      1  0.5413260000000  0.4487600000000  0.4690100000000 1.0
C      1  0.4690100000000  0.4586750000000  0.5512410000000 1.0
C      1  0.4690090000000  0.5413240000000  0.4487590000000 1.0
C      1  0.5309920000000  0.4586750000000  0.4487600000000 1.0
C      1  0.4487600000000  0.4690090000000  0.5413250000000 1.0
C      1  0.4487590000000  0.5309900000000  0.4586740000000 1.0
C      1  0.5512420000000  0.4690100000000  0.4586750000000 1.0
C      1  0.4666050000000  0.5138860000000  0.4764020000000 1.0
C      1  0.5138870000000  0.4764030000000  0.4666050000000 1.0
C      1  0.4764030000000  0.4666050000000  0.5138870000000 1.0
C      1  0.5333950000000  0.4861140000000  0.4764030000000 1.0
C      1  0.4666050000000  0.4861130000000  0.5235970000000 1.0
C      1  0.5333940000000  0.5138870000000  0.5235980000000 1.0
C      1  0.4861130000000  0.5235970000000  0.4666050000000 1.0
C      1  0.5138860000000  0.5235980000000  0.5333950000000 1.0
C      1  0.4861140000000  0.4764030000000  0.5333950000000 1.0
C      1  0.5235970000000  0.5333950000000  0.5138870000000 1.0
C      1  0.4764020000000  0.5333940000000  0.4861130000000 1.0
C      1  0.5235980000000  0.4666060000000  0.4861140000000 1.0
C      1  0.5138870000000  0.4666050000000  0.4764030000000 1.0
C      1  0.4764030000000  0.5138860000000  0.4666050000000 1.0
C      1  0.4666060000000  0.4764020000000  0.5138860000000 1.0
C      1  0.4861130000000  0.5333940000000  0.4764020000000 1.0
C      1  0.4861140000000  0.4666050000000  0.5235980000000 1.0
C      1  0.5138860000000  0.5333950000000  0.5235970000000 1.0
C      1  0.5235980000000  0.4861140000000  0.4666050000000 1.0
C      1  0.5235970000000  0.5138870000000  0.5333950000000 1.0
C      1  0.4764030000000  0.4861130000000  0.5333950000000 1.0
C      1  0.5333940000000  0.5235980000000  0.5138870000000 1.0
C      1  0.5333950000000  0.4764030000000  0.4861140000000 1.0
C      1  0.4666050000000  0.5235970000000  0.4861130000000 1.0
C      1  0.4389800000000  0.5062230000000  0.4833130000000 1.0
C      1  0.5062250000000  0.4833140000000  0.4389810000000 1.0
C      1  0.4833150000000  0.4389800000000  0.5062250000000 1.0
C      1  0.5610200000000  0.4937760000000  0.4833140000000 1.0
C      1  0.4389810000000  0.4937750000000  0.5166860000000 1.0
C      1  0.5610190000000  0.5062260000000  0.5166860000000 1.0
C      1  0.4937760000000  0.5166850000000  0.4389800000000 1.0
C      1  0.5062240000000  0.5166870000000  0.5610200000000 1.0
C      1  0.4937750000000  0.4833140000000  0.5610200000000 1.0
C      1  0.5166850000000  0.5610200000000  0.5062240000000 1.0
C      1  0.4833130000000  0.5610190000000  0.4937750000000 1.0
C      1  0.5166870000000  0.4389810000000  0.4937760000000 1.0
C      1  0.5062260000000  0.4389810000000  0.4833140000000 1.0
C      1  0.4833140000000  0.5062240000000  0.4389800000000 1.0
C      1  0.4389810000000  0.4833130000000  0.5062240000000 1.0
C      1  0.4937750000000  0.5610190000000  0.4833140000000 1.0
C      1  0.4937770000000  0.4389800000000  0.5166860000000 1.0
C      1  0.5062230000000  0.5610200000000  0.5166860000000 1.0
C      1  0.5166870000000  0.4937750000000  0.4389810000000 1.0
C      1  0.5166850000000  0.5062250000000  0.5610200000000 1.0
C      1  0.4833140000000  0.4937760000000  0.5610190000000 1.0
C      1  0.5610190000000  0.5166870000000  0.5062250000000 1.0
C      1  0.5610200000000  0.4833150000000  0.4937760000000 1.0
C      1  0.4389800000000  0.5166850000000  0.4937750000000 1.0
C      1  0.5368150000000  0.4821130000000  0.4447610000000 1.0
C      1  0.4821130000000  0.4447600000000  0.5368150000000 1.0
C      1  0.4447600000000  0.5368140000000  0.4821120000000 1.0
C      1  0.4631860000000  0.5178860000000  0.4447600000000 1.0
C      1  0.5368140000000  0.5178880000000  0.5552400000000 1.0
C      1  0.4631850000000  0.4821120000000  0.5552390000000 1.0
C      1  0.5178860000000  0.5552400000000  0.5368150000000 1.0
C      1  0.4821120000000  0.5552390000000  0.4631850000000 1.0
C      1  0.5178880000000  0.4447600000000  0.4631860000000 1.0
C      1  0.5552400000000  0.4631860000000  0.4821130000000 1.0
C      1  0.4447610000000  0.4631850000000  0.5178870000000 1.0
C      1  0.5552390000000  0.5368160000000  0.5178870000000 1.0
C      1  0.4821130000000  0.5368140000000  0.4447600000000 1.0
C      1  0.4447600000000  0.4821120000000  0.5368140000000 1.0
C      1  0.5368160000000  0.4447610000000  0.4821130000000 1.0
C      1  0.5178880000000  0.4631850000000  0.4447610000000 1.0
C      1  0.5178860000000  0.5368150000000  0.5552400000000 1.0
C      1  0.4821130000000  0.4631860000000  0.5552400000000 1.0
C      1  0.5552390000000  0.5178880000000  0.5368150000000 1.0
C      1  0.5552400000000  0.4821130000000  0.4631860000000 1.0
C      1  0.4447600000000  0.5178860000000  0.4631850000000 1.0
C      1  0.4631850000000  0.5552390000000  0.4821120000000 1.0
C      1  0.4631860000000  0.4447600000000  0.5178870000000 1.0
C      1  0.5368130000000  0.5552400000000  0.5178870000000 1.0
C      1  0.4350340000000  0.4732400000000  0.5169350000000 1.0
C      1  0.4732410000000  0.5169340000000  0.4350340000000 1.0
C      1  0.5169360000000  0.4350340000000  0.4732410000000 1.0
C      1  0.5649650000000  0.5267600000000  0.5169350000000 1.0
C      1  0.4350340000000  0.5267580000000  0.4830640000000 1.0
C      1  0.5649670000000  0.4732420000000  0.4830650000000 1.0
C      1  0.5267600000000  0.4830650000000  0.4350340000000 1.0
C      1  0.4732410000000  0.4830650000000  0.5649660000000 1.0
C      1  0.5267590000000  0.5169360000000  0.5649660000000 1.0
C      1  0.4830640000000  0.5649650000000  0.4732400000000 1.0
C      1  0.5169340000000  0.5649670000000  0.5267590000000 1.0
C      1  0.4830660000000  0.4350340000000  0.5267600000000 1.0
C      1  0.4732420000000  0.4350340000000  0.5169350000000 1.0
C      1  0.5169360000000  0.4732410000000  0.4350340000000 1.0
C      1  0.4350340000000  0.5169340000000  0.4732400000000 1.0
C      1  0.5267580000000  0.5649670000000  0.5169350000000 1.0
C      1  0.5267600000000  0.4350340000000  0.4830650000000 1.0
C      1  0.4732400000000  0.5649650000000  0.4830640000000 1.0
C      1  0.4830650000000  0.5267590000000  0.4350340000000 1.0
C      1  0.4830650000000  0.4732410000000  0.5649660000000 1.0
C      1  0.5169340000000  0.5267600000000  0.5649660000000 1.0
C      1  0.5649670000000  0.4830660000000  0.4732410000000 1.0
C      1  0.5649650000000  0.5169360000000  0.5267600000000 1.0
C      1  0.4350340000000  0.4830640000000  0.5267590000000 1.0
C      1  0.4601780000000  0.5500710000000  0.5201860000000 1.0
C      1  0.5500720000000  0.5201870000000  0.4601790000000 1.0
C      1  0.5201870000000  0.4601800000000  0.5500720000000 1.0
C      1  0.5398220000000  0.4499290000000  0.5201870000000 1.0
C      1  0.4601800000000  0.4499280000000  0.4798130000000 1.0
C      1  0.5398200000000  0.5500720000000  0.4798130000000 1.0
C      1  0.4499290000000  0.4798120000000  0.4601790000000 1.0
C      1  0.5500720000000  0.4798140000000  0.5398220000000 1.0
C      1  0.4499280000000  0.5201860000000  0.5398210000000 1.0
C      1  0.4798120000000  0.5398210000000  0.5500710000000 1.0
C      1  0.5201860000000  0.5398210000000  0.4499280000000 1.0
C      1  0.4798140000000  0.4601780000000  0.4499280000000 1.0
C      1  0.5500720000000  0.4601800000000  0.5201870000000 1.0
C      1  0.5201860000000  0.5500720000000  0.4601790000000 1.0
C      1  0.4601780000000  0.5201860000000  0.5500710000000 1.0
C      1  0.4499280000000  0.5398200000000  0.5201860000000 1.0
C      1  0.4499290000000  0.4601780000000  0.4798130000000 1.0
C      1  0.5500710000000  0.5398220000000  0.4798130000000 1.0
C      1  0.4798140000000  0.4499280000000  0.4601790000000 1.0
C      1  0.4798120000000  0.5500720000000  0.5398210000000 1.0
C      1  0.5201870000000  0.4499290000000  0.5398220000000 1.0
C      1  0.5398210000000  0.4798140000000  0.5500720000000 1.0
C      1  0.5398210000000  0.5201870000000  0.4499280000000 1.0
C      1  0.4601800000000  0.4798120000000  0.4499280000000 1.0
END
