TITL C-114179-1211-97 0.0305549272274124 1000000 -1670.30574029655 0 0 240 (C1) n - 1
REM
REM in /home/chem/mssmkc/work/GAP20/Larger-Clusters/Only-C240/New/BUILD-ONLY
REM
REM
REM
REM
REM
REM ./C.cell (daee87de7206da95283bc1c1416dbc6f)
REM
REM compiler GCC version 8.3.0
REM options -cpp -mtune=generic -march=x86-64 -g -O0
REM seed 61162365 308191452 578371775 1757741936 -1981662985 -34132511 1763800910 -635956879 1129509815 -736172204 790239440 400293991 -53953778 687155599 -1618877753 124723516 -701510231 462642189 1271936306 1687671334 460498729 -1195837418 -1653754639 -1745033341 -1377626688 -1963599896 2000840724 -275409942 -922283702 -807974283 -949036835 1373936809 -683231900
REM
CELL 1.54180  100.00000  100.00000  100.00000   90.00000   90.00000   90.00000
LATT -1
SFAC C  
C      1  0.5182490000000  0.5522340000000  0.5319250000000 1.0
C      1  0.5472200000000  0.5303160000000  0.5199650000000 1.0
C      1  0.5331790000000  0.5209260000000  0.5615330000000 1.0
C      1  0.4721870000000  0.5759330000000  0.4730110000000 1.0
C      1  0.4811110000000  0.4513780000000  0.5270030000000 1.0
C      1  0.5201770000000  0.4227180000000  0.4729460000000 1.0
C      1  0.4266830000000  0.5343190000000  0.4841090000000 1.0
C      1  0.4491820000000  0.4770730000000  0.5215100000000 1.0
C      1  0.5763450000000  0.4664770000000  0.4852730000000 1.0
C      1  0.4746850000000  0.5224480000000  0.4295510000000 1.0
C      1  0.4684290000000  0.4786530000000  0.5651090000000 1.0
C      1  0.5336550000000  0.4788150000000  0.4251120000000 1.0
C      1  0.5207850000000  0.5511810000000  0.5194360000000 1.0
C      1  0.5213540000000  0.5252110000000  0.5596560000000 1.0
C      1  0.5477290000000  0.5188780000000  0.5256740000000 1.0
C      1  0.4678970000000  0.5717090000000  0.4842640000000 1.0
C      1  0.5264630000000  0.4270750000000  0.4832240000000 1.0
C      1  0.4698300000000  0.4517570000000  0.5210610000000 1.0
C      1  0.4798380000000  0.5334060000000  0.4252440000000 1.0
C      1  0.5225460000000  0.4735970000000  0.4289690000000 1.0
C      1  0.4796110000000  0.4739610000000  0.5612570000000 1.0
C      1  0.4291970000000  0.5232960000000  0.4780320000000 1.0
C      1  0.5733260000000  0.4771590000000  0.4788460000000 1.0
C      1  0.4469260000000  0.4803080000000  0.5336340000000 1.0
C      1  0.4883220000000  0.4464350000000  0.4732270000000 1.0
C      1  0.4504730000000  0.4766020000000  0.4846290000000 1.0
C      1  0.4673430000000  0.4918220000000  0.4473750000000 1.0
C      1  0.5184080000000  0.4487350000000  0.5283990000000 1.0
C      1  0.5148980000000  0.5519340000000  0.4691230000000 1.0
C      1  0.4809760000000  0.5510160000000  0.5292090000000 1.0
C      1  0.5538300000000  0.4703760000000  0.5165320000000 1.0
C      1  0.5492240000000  0.5226650000000  0.4843410000000 1.0
C      1  0.4460040000000  0.5290090000000  0.5174300000000 1.0
C      1  0.5281160000000  0.4838290000000  0.5547900000000 1.0
C      1  0.5343070000000  0.5073800000000  0.4471500000000 1.0
C      1  0.4722830000000  0.5155740000000  0.5559980000000 1.0
C      1  0.4764930000000  0.4508770000000  0.4849580000000 1.0
C      1  0.4921890000000  0.4669020000000  0.4477870000000 1.0
C      1  0.4465130000000  0.4882070000000  0.4725840000000 1.0
C      1  0.5295850000000  0.4457950000000  0.5166380000000 1.0
C      1  0.4693590000000  0.5540180000000  0.5181020000000 1.0
C      1  0.5230130000000  0.5493510000000  0.4824040000000 1.0
C      1  0.5167620000000  0.4722130000000  0.5552090000000 1.0
C      1  0.4836420000000  0.5272920000000  0.5555840000000 1.0
C      1  0.5087460000000  0.5345990000000  0.4459670000000 1.0
C      1  0.5507230000000  0.4816160000000  0.5281430000000 1.0
C      1  0.4482390000000  0.5174130000000  0.5289750000000 1.0
C      1  0.5541810000000  0.5109220000000  0.4729240000000 1.0
C      1  0.4438710000000  0.5347070000000  0.5476160000000 1.0
C      1  0.5356460000000  0.5415410000000  0.4454070000000 1.0
C      1  0.5461860000000  0.4434860000000  0.5372200000000 1.0
C      1  0.5557070000000  0.5323270000000  0.4574190000000 1.0
C      1  0.5560940000000  0.4641440000000  0.5464220000000 1.0
C      1  0.4461370000000  0.4664110000000  0.4573190000000 1.0
C      1  0.4640320000000  0.5444420000000  0.5582450000000 1.0
C      1  0.4671660000000  0.4570790000000  0.4478540000000 1.0
C      1  0.5359940000000  0.4546340000000  0.5572830000000 1.0
C      1  0.4573270000000  0.4467220000000  0.4679200000000 1.0
C      1  0.4531050000000  0.5556670000000  0.5386740000000 1.0
C      1  0.5439210000000  0.5521780000000  0.4666610000000 1.0
C      1  0.5451500000000  0.5318220000000  0.4467540000000 1.0
C      1  0.4428100000000  0.5449170000000  0.5384570000000 1.0
C      1  0.5362110000000  0.4441240000000  0.5466590000000 1.0
C      1  0.4543830000000  0.5344890000000  0.5582180000000 1.0
C      1  0.5457420000000  0.4644940000000  0.5571910000000 1.0
C      1  0.4574870000000  0.4667600000000  0.4475760000000 1.0
C      1  0.5543130000000  0.5415560000000  0.4676900000000 1.0
C      1  0.4467640000000  0.4572330000000  0.4676230000000 1.0
C      1  0.5565740000000  0.4540410000000  0.5371060000000 1.0
C      1  0.4666310000000  0.4458920000000  0.4577410000000 1.0
C      1  0.5362840000000  0.5529640000000  0.4552210000000 1.0
C      1  0.4634430000000  0.5550530000000  0.5477870000000 1.0
C      1  0.4753320000000  0.5371260000000  0.4592460000000 1.0
C      1  0.5349390000000  0.4549350000000  0.4800620000000 1.0
C      1  0.4741150000000  0.4929650000000  0.5215720000000 1.0
C      1  0.5100730000000  0.5199350000000  0.5321300000000 1.0
C      1  0.5270340000000  0.4627300000000  0.4582730000000 1.0
C      1  0.4893760000000  0.4790990000000  0.5333720000000 1.0
C      1  0.4868230000000  0.4770010000000  0.5091160000000 1.0
C      1  0.4680690000000  0.5436050000000  0.4815930000000 1.0
C      1  0.5133160000000  0.5235850000000  0.5082870000000 1.0
C      1  0.5458500000000  0.4737900000000  0.4693440000000 1.0
C      1  0.5236750000000  0.5050970000000  0.5191970000000 1.0
C      1  0.4574220000000  0.5248040000000  0.4708460000000 1.0
C      1  0.4579480000000  0.5338500000000  0.4814290000000 1.0
C      1  0.4945340000000  0.4756670000000  0.5204370000000 1.0
C      1  0.5371530000000  0.4726270000000  0.4581290000000 1.0
C      1  0.5224010000000  0.5129250000000  0.5078790000000 1.0
C      1  0.4763170000000  0.4861860000000  0.5098080000000 1.0
C      1  0.5451580000000  0.4646610000000  0.4799820000000 1.0
C      1  0.5258940000000  0.4538150000000  0.4693250000000 1.0
C      1  0.4765890000000  0.5459390000000  0.4704900000000 1.0
C      1  0.5057640000000  0.5253690000000  0.5197150000000 1.0
C      1  0.4793350000000  0.4885730000000  0.5341000000000 1.0
C      1  0.5199990000000  0.5103370000000  0.5320340000000 1.0
C      1  0.4660280000000  0.5263210000000  0.4597950000000 1.0
C      1  0.4972550000000  0.5646660000000  0.5135480000000 1.0
C      1  0.5630760000000  0.5096880000000  0.5027510000000 1.0
C      1  0.5112810000000  0.4998610000000  0.5690190000000 1.0
C      1  0.4954420000000  0.5725170000000  0.4944510000000 1.0
C      1  0.5001870000000  0.4358370000000  0.5138840000000 1.0
C      1  0.4996470000000  0.4320630000000  0.4934930000000 1.0
C      1  0.4315530000000  0.5105820000000  0.5036540000000 1.0
C      1  0.4353580000000  0.4901380000000  0.5022690000000 1.0
C      1  0.5683640000000  0.4895240000000  0.5043220000000 1.0
C      1  0.4903240000000  0.4999410000000  0.4356610000000 1.0
C      1  0.4903150000000  0.4997870000000  0.5699530000000 1.0
C      1  0.5114750000000  0.5001060000000  0.4354380000000 1.0
C      1  0.5060120000000  0.5647860000000  0.5010800000000 1.0
C      1  0.5003100000000  0.5102340000000  0.5696570000000 1.0
C      1  0.5637320000000  0.4993870000000  0.5136120000000 1.0
C      1  0.4865490000000  0.5708900000000  0.5064900000000 1.0
C      1  0.5099140000000  0.4314290000000  0.5045330000000 1.0
C      1  0.4899490000000  0.4369770000000  0.5029350000000 1.0
C      1  0.5009470000000  0.5108980000000  0.4355130000000 1.0
C      1  0.5004550000000  0.4896770000000  0.4356880000000 1.0
C      1  0.5012490000000  0.4894340000000  0.5696470000000 1.0
C      1  0.4312420000000  0.4999780000000  0.4927850000000 1.0
C      1  0.5683710000000  0.5001050000000  0.4935660000000 1.0
C      1  0.4352360000000  0.5004380000000  0.5131670000000 1.0
C      1  0.4962150000000  0.4730190000000  0.5437410000000 1.0
C      1  0.4685850000000  0.5499520000000  0.4943070000000 1.0
C      1  0.5526160000000  0.4862140000000  0.4707200000000 1.0
C      1  0.5151980000000  0.4639520000000  0.4506430000000 1.0
C      1  0.5034350000000  0.5250680000000  0.5431770000000 1.0
C      1  0.4859150000000  0.5377500000000  0.4498710000000 1.0
C      1  0.5169770000000  0.5346620000000  0.5004490000000 1.0
C      1  0.5329010000000  0.4487550000000  0.4926300000000 1.0
C      1  0.4829140000000  0.4655880000000  0.5017180000000 1.0
C      1  0.4625930000000  0.5003140000000  0.5233510000000 1.0
C      1  0.4498600000000  0.5127830000000  0.4715990000000 1.0
C      1  0.5347180000000  0.4970200000000  0.5206850000000 1.0
C      1  0.5516490000000  0.4661710000000  0.4926490000000 1.0
C      1  0.4876880000000  0.5554770000000  0.4701470000000 1.0
C      1  0.4733470000000  0.4949650000000  0.5450050000000 1.0
C      1  0.4651850000000  0.4825780000000  0.5020640000000 1.0
C      1  0.5339250000000  0.5166490000000  0.5006030000000 1.0
C      1  0.4504450000000  0.5325050000000  0.4935840000000 1.0
C      1  0.4979260000000  0.5365970000000  0.5219650000000 1.0
C      1  0.5027080000000  0.4646370000000  0.5215240000000 1.0
C      1  0.5132580000000  0.4470560000000  0.4704110000000 1.0
C      1  0.5366260000000  0.4843570000000  0.4501040000000 1.0
C      1  0.4662380000000  0.5148190000000  0.4516040000000 1.0
C      1  0.5265000000000  0.5040400000000  0.5426950000000 1.0
C      1  0.5081790000000  0.5263370000000  0.5565270000000 1.0
C      1  0.5194420000000  0.5477110000000  0.5061760000000 1.0
C      1  0.5464430000000  0.5054060000000  0.5262260000000 1.0
C      1  0.4882130000000  0.5318790000000  0.4369200000000 1.0
C      1  0.4924840000000  0.4723970000000  0.5574270000000 1.0
C      1  0.5128810000000  0.4698800000000  0.4379820000000 1.0
C      1  0.4680390000000  0.5640240000000  0.4956380000000 1.0
C      1  0.4744530000000  0.4541220000000  0.5078490000000 1.0
C      1  0.5292470000000  0.4352270000000  0.4940490000000 1.0
C      1  0.4362080000000  0.5117600000000  0.4747850000000 1.0
C      1  0.4502190000000  0.4938980000000  0.5297600000000 1.0
C      1  0.5658470000000  0.4881640000000  0.4749640000000 1.0
C      1  0.5453390000000  0.5247990000000  0.5069820000000 1.0
C      1  0.5044950000000  0.5486940000000  0.5287300000000 1.0
C      1  0.5292910000000  0.5080610000000  0.5561950000000 1.0
C      1  0.4364750000000  0.5314770000000  0.4945640000000 1.0
C      1  0.5653620000000  0.4685050000000  0.4947700000000 1.0
C      1  0.4528440000000  0.4777400000000  0.5083140000000 1.0
C      1  0.4855800000000  0.5691950000000  0.4736320000000 1.0
C      1  0.5105010000000  0.4336090000000  0.4732590000000 1.0
C      1  0.4945580000000  0.4527070000000  0.5270110000000 1.0
C      1  0.4711330000000  0.5127260000000  0.4384850000000 1.0
C      1  0.5320500000000  0.4871270000000  0.4368220000000 1.0
C      1  0.4716930000000  0.4913070000000  0.5588390000000 1.0
C      1  0.5252220000000  0.5001160000000  0.4374940000000 1.0
C      1  0.5043060000000  0.4427850000000  0.5253080000000 1.0
C      1  0.4345530000000  0.5239840000000  0.5065040000000 1.0
C      1  0.4772270000000  0.5027380000000  0.5649340000000 1.0
C      1  0.4765670000000  0.4993230000000  0.4380770000000 1.0
C      1  0.5240260000000  0.4969360000000  0.5633300000000 1.0
C      1  0.4977710000000  0.4338190000000  0.4797900000000 1.0
C      1  0.4943880000000  0.5576650000000  0.5252290000000 1.0
C      1  0.4949560000000  0.5754960000000  0.4815230000000 1.0
C      1  0.5554050000000  0.5204950000000  0.4982110000000 1.0
C      1  0.5658000000000  0.4759290000000  0.5068210000000 1.0
C      1  0.4433910000000  0.4793690000000  0.4980870000000 1.0
C      1  0.4412930000000  0.5038000000000  0.5252770000000 1.0
C      1  0.5234730000000  0.4342290000000  0.5069320000000 1.0
C      1  0.5009700000000  0.5246750000000  0.4378160000000 1.0
C      1  0.5664240000000  0.5017000000000  0.4799150000000 1.0
C      1  0.4342290000000  0.4981650000000  0.4792390000000 1.0
C      1  0.5565390000000  0.4957250000000  0.5249330000000 1.0
C      1  0.4787730000000  0.4443160000000  0.4987600000000 1.0
C      1  0.5166380000000  0.5567540000000  0.4956710000000 1.0
C      1  0.4733570000000  0.5666100000000  0.5086760000000 1.0
C      1  0.4968800000000  0.5228860000000  0.5642310000000 1.0
C      1  0.5041250000000  0.4766170000000  0.5643210000000 1.0
C      1  0.4997360000000  0.4759300000000  0.4383120000000 1.0
C      1  0.5296310000000  0.4904440000000  0.5413780000000 1.0
C      1  0.4861550000000  0.5359210000000  0.5299860000000 1.0
C      1  0.5335540000000  0.5232860000000  0.4880710000000 1.0
C      1  0.4631930000000  0.5019710000000  0.4567860000000 1.0
C      1  0.4697650000000  0.5083990000000  0.5430820000000 1.0
C      1  0.5385040000000  0.4969590000000  0.4561950000000 1.0
C      1  0.5007580000000  0.5499250000000  0.4657610000000 1.0
C      1  0.5141780000000  0.4639510000000  0.5295880000000 1.0
C      1  0.5011100000000  0.4540560000000  0.4681240000000 1.0
C      1  0.4564960000000  0.5334760000000  0.5064240000000 1.0
C      1  0.4659030000000  0.4762170000000  0.4894200000000 1.0
C      1  0.5443420000000  0.4655410000000  0.5049110000000 1.0
C      1  0.5354640000000  0.4857140000000  0.5290360000000 1.0
C      1  0.5236830000000  0.5338800000000  0.4880870000000 1.0
C      1  0.4901560000000  0.5291630000000  0.5419990000000 1.0
C      1  0.4551640000000  0.5003310000000  0.4681360000000 1.0
C      1  0.5463010000000  0.4983720000000  0.4677380000000 1.0
C      1  0.4631380000000  0.5123100000000  0.5307750000000 1.0
C      1  0.4663510000000  0.5435500000000  0.5067880000000 1.0
C      1  0.5342470000000  0.4555210000000  0.5049680000000 1.0
C      1  0.4763440000000  0.4663250000000  0.4891170000000 1.0
C      1  0.4987050000000  0.5414320000000  0.4543710000000 1.0
C      1  0.5025580000000  0.4619730000000  0.4566670000000 1.0
C      1  0.5097460000000  0.4698380000000  0.5420450000000 1.0
C      1  0.5520690000000  0.4773800000000  0.5424650000000 1.0
C      1  0.4776120000000  0.5411890000000  0.5544140000000 1.0
C      1  0.5381900000000  0.5481230000000  0.4793210000000 1.0
C      1  0.4475710000000  0.4807380000000  0.4596300000000 1.0
C      1  0.4476560000000  0.5214590000000  0.5435880000000 1.0
C      1  0.5539570000000  0.5180950000000  0.4598320000000 1.0
C      1  0.5208870000000  0.5409770000000  0.4470970000000 1.0
C      1  0.5223690000000  0.4581540000000  0.5536920000000 1.0
C      1  0.4815670000000  0.4582410000000  0.4499660000000 1.0
C      1  0.4558390000000  0.5531230000000  0.5245590000000 1.0
C      1  0.4618670000000  0.4514330000000  0.4808090000000 1.0
C      1  0.5432310000000  0.4462200000000  0.5230850000000 1.0
C      1  0.5421240000000  0.4780610000000  0.5534960000000 1.0
C      1  0.5488060000000  0.5373180000000  0.4803200000000 1.0
C      1  0.4768630000000  0.5515630000000  0.5437130000000 1.0
C      1  0.4586350000000  0.4812030000000  0.4494420000000 1.0
C      1  0.5435460000000  0.5175350000000  0.4490860000000 1.0
C      1  0.4580510000000  0.5209480000000  0.5546010000000 1.0
C      1  0.4457700000000  0.5424510000000  0.5242200000000 1.0
C      1  0.5536340000000  0.4567290000000  0.5229480000000 1.0
C      1  0.4512660000000  0.4620690000000  0.4804330000000 1.0
C      1  0.5221200000000  0.5515750000000  0.4571320000000 1.0
C      1  0.4809760000000  0.4472220000000  0.4602110000000 1.0
C      1  0.5229050000000  0.4479200000000  0.5427850000000 1.0
END
