TITL C-111945-3168-7 0.0966730358020408 1000000 -3695.60171519308 0 0 520 (S8) n - 1
REM
REM in /rds/project/t2_vol4/rds-t2-cs072/BORA/CARBON/from-Arr/AIRSS/Generating-Clusters/GAP-ML-2020/Higher-Symm/Selected-Sizes/Larger-Clusters/Only-C240
REM
REM
REM
REM
REM
REM ./C.cell (db1db5b03a21c153a00b653f6831bbfd)
REM AIRSS Version 0.9.1 bugfix July 2018 build 013d7b7c2542+ Fri, 06 Jul 2018 19:26:36 +0100
REM compiler GCC version 9.3.0
REM options -cpp -mtune=generic -march=x86-64 -g -O0
REM seed 2028537516 -880856252 -1828224768 -1116024916 276865216 -889654944 1233482191 951797778 1287984495 -1911706982 54010718 -465016294 1104727214 1599281198 1102525883 816369587 1992340491 -1303425906 -1446755651 942634068 -2130383030 1863651265 1269474807 -1679610715 1093433030 765668268 -318828760 718350708 2049626666 -408112636 -1987397652 -140613353 1237647820
REM
CELL 1.54180  100.00000  100.00000  100.00000   90.00000   90.00000   90.00000
LATT -1
SFAC C  
C      1  0.4315840000000  0.5120010000000  0.4940570000000 1.0
C      1  0.4601080000000  0.5568640000000  0.5059420000000 1.0
C      1  0.5120010000000  0.5684160000000  0.4940570000000 1.0
C      1  0.5568630000000  0.5398920000000  0.5059420000000 1.0
C      1  0.5684160000000  0.4879990000000  0.4940580000000 1.0
C      1  0.5398910000000  0.4431370000000  0.5059430000000 1.0
C      1  0.4879990000000  0.4315840000000  0.4940580000000 1.0
C      1  0.4431370000000  0.4601090000000  0.5059430000000 1.0
C      1  0.4686120000000  0.5518610000000  0.4778770000000 1.0
C      1  0.5144770000000  0.5588670000000  0.5221210000000 1.0
C      1  0.5518620000000  0.5313880000000  0.4778780000000 1.0
C      1  0.5588660000000  0.4855230000000  0.5221220000000 1.0
C      1  0.5313880000000  0.4481380000000  0.4778790000000 1.0
C      1  0.4855230000000  0.4411340000000  0.5221220000000 1.0
C      1  0.4481380000000  0.4686120000000  0.4778780000000 1.0
C      1  0.4411330000000  0.5144770000000  0.5221210000000 1.0
C      1  0.4361160000000  0.5405470000000  0.4656640000000 1.0
C      1  0.4834990000000  0.5738450000000  0.5343340000000 1.0
C      1  0.5405480000000  0.5638840000000  0.4656640000000 1.0
C      1  0.5738440000000  0.5165020000000  0.5343350000000 1.0
C      1  0.5638840000000  0.4594520000000  0.4656650000000 1.0
C      1  0.5165010000000  0.4261560000000  0.5343360000000 1.0
C      1  0.4594520000000  0.4361160000000  0.4656650000000 1.0
C      1  0.4261550000000  0.4834990000000  0.5343350000000 1.0
C      1  0.5112790000000  0.5514010000000  0.5093590000000 1.0
C      1  0.5443220000000  0.5283700000000  0.4906400000000 1.0
C      1  0.5514010000000  0.4887210000000  0.5093600000000 1.0
C      1  0.5283700000000  0.4556780000000  0.4906410000000 1.0
C      1  0.4887210000000  0.4485990000000  0.5093600000000 1.0
C      1  0.4556780000000  0.4716300000000  0.4906400000000 1.0
C      1  0.4485990000000  0.5112790000000  0.5093600000000 1.0
C      1  0.4716300000000  0.5443210000000  0.4906390000000 1.0
C      1  0.4842820000000  0.4857420000000  0.4759250000000 1.0
C      1  0.4788040000000  0.5010330000000  0.5240750000000 1.0
C      1  0.4857430000000  0.5157180000000  0.4759240000000 1.0
C      1  0.5010330000000  0.5211960000000  0.5240750000000 1.0
C      1  0.5157190000000  0.5142570000000  0.4759250000000 1.0
C      1  0.5211960000000  0.4989670000000  0.5240750000000 1.0
C      1  0.5142580000000  0.4842810000000  0.4759250000000 1.0
C      1  0.4989670000000  0.4788040000000  0.5240760000000 1.0
C      1  0.5691110000000  0.5531220000000  0.5290470000000 1.0
C      1  0.5864320000000  0.4886940000000  0.4709530000000 1.0
C      1  0.5531220000000  0.4308890000000  0.5290480000000 1.0
C      1  0.4886940000000  0.4135680000000  0.4709540000000 1.0
C      1  0.4308890000000  0.4468780000000  0.5290470000000 1.0
C      1  0.4135680000000  0.5113060000000  0.4709530000000 1.0
C      1  0.4468780000000  0.5691110000000  0.5290460000000 1.0
C      1  0.5113060000000  0.5864310000000  0.4709520000000 1.0
C      1  0.5051170000000  0.4126580000000  0.5010790000000 1.0
C      1  0.4418580000000  0.4346220000000  0.4989230000000 1.0
C      1  0.4126580000000  0.4948830000000  0.5010780000000 1.0
C      1  0.4346220000000  0.5581420000000  0.4989210000000 1.0
C      1  0.4948830000000  0.5873420000000  0.5010770000000 1.0
C      1  0.5581420000000  0.5653780000000  0.4989210000000 1.0
C      1  0.5873420000000  0.5051170000000  0.5010780000000 1.0
C      1  0.5653780000000  0.4418580000000  0.4989230000000 1.0
C      1  0.5113130000000  0.5256560000000  0.5140990000000 1.0
C      1  0.5261410000000  0.5101410000000  0.4859000000000 1.0
C      1  0.5256560000000  0.4886870000000  0.5141000000000 1.0
C      1  0.5101420000000  0.4738590000000  0.4859010000000 1.0
C      1  0.4886860000000  0.4743440000000  0.5141000000000 1.0
C      1  0.4738590000000  0.4898580000000  0.4859000000000 1.0
C      1  0.4743440000000  0.5113140000000  0.5140990000000 1.0
C      1  0.4898590000000  0.5261410000000  0.4859000000000 1.0
C      1  0.4340740000000  0.4914050000000  0.5120480000000 1.0
C      1  0.4473060000000  0.5405390000000  0.4879520000000 1.0
C      1  0.4914050000000  0.5659260000000  0.5120470000000 1.0
C      1  0.5405390000000  0.5526940000000  0.4879520000000 1.0
C      1  0.5659260000000  0.5085950000000  0.5120480000000 1.0
C      1  0.5526940000000  0.4594610000000  0.4879530000000 1.0
C      1  0.5085950000000  0.4340740000000  0.5120490000000 1.0
C      1  0.4594610000000  0.4473050000000  0.4879530000000 1.0
C      1  0.4699940000000  0.5105440000000  0.4253700000000 1.0
C      1  0.4862390000000  0.5286750000000  0.5746290000000 1.0
C      1  0.5105450000000  0.5300050000000  0.4253700000000 1.0
C      1  0.5286740000000  0.5137620000000  0.5746300000000 1.0
C      1  0.5300070000000  0.4894540000000  0.4253700000000 1.0
C      1  0.5137610000000  0.4713270000000  0.5746300000000 1.0
C      1  0.4894550000000  0.4699930000000  0.4253710000000 1.0
C      1  0.4713260000000  0.4862400000000  0.5746300000000 1.0
C      1  0.4489870000000  0.5001160000000  0.4794430000000 1.0
C      1  0.4640100000000  0.5361540000000  0.5205560000000 1.0
C      1  0.5001170000000  0.5510130000000  0.4794430000000 1.0
C      1  0.5361540000000  0.5359900000000  0.5205560000000 1.0
C      1  0.5510130000000  0.4998830000000  0.4794430000000 1.0
C      1  0.5359890000000  0.4638460000000  0.5205570000000 1.0
C      1  0.4998840000000  0.4489860000000  0.4794440000000 1.0
C      1  0.4638460000000  0.4640110000000  0.5205570000000 1.0
C      1  0.4434470000000  0.4938870000000  0.4520210000000 1.0
C      1  0.4556890000000  0.5356680000000  0.5479790000000 1.0
C      1  0.4938880000000  0.5565520000000  0.4520200000000 1.0
C      1  0.5356670000000  0.5443120000000  0.5479790000000 1.0
C      1  0.5565530000000  0.5061120000000  0.4520210000000 1.0
C      1  0.5443110000000  0.4643340000000  0.5479800000000 1.0
C      1  0.5061120000000  0.4434460000000  0.4520210000000 1.0
C      1  0.4643330000000  0.4556900000000  0.5479800000000 1.0
C      1  0.5242770000000  0.4692670000000  0.4898160000000 1.0
C      1  0.4954350000000  0.4611030000000  0.5101850000000 1.0
C      1  0.4692680000000  0.4757230000000  0.4898160000000 1.0
C      1  0.4611020000000  0.5045650000000  0.5101840000000 1.0
C      1  0.4757230000000  0.5307320000000  0.4898150000000 1.0
C      1  0.5045650000000  0.5388980000000  0.5101840000000 1.0
C      1  0.5307330000000  0.5242770000000  0.4898150000000 1.0
C      1  0.5388980000000  0.4954350000000  0.5101850000000 1.0
C      1  0.4833090000000  0.5487870000000  0.5649290000000 1.0
C      1  0.5226950000000  0.5462980000000  0.4350700000000 1.0
C      1  0.5487860000000  0.5166920000000  0.5649300000000 1.0
C      1  0.5462990000000  0.4773040000000  0.4350710000000 1.0
C      1  0.5166900000000  0.4512150000000  0.5649310000000 1.0
C      1  0.4773050000000  0.4537000000000  0.4350710000000 1.0
C      1  0.4512140000000  0.4833100000000  0.5649300000000 1.0
C      1  0.4537010000000  0.5226940000000  0.4350700000000 1.0
C      1  0.4806300000000  0.4968800000000  0.4538790000000 1.0
C      1  0.4840970000000  0.5114920000000  0.5461210000000 1.0
C      1  0.4968810000000  0.5193700000000  0.4538790000000 1.0
C      1  0.5114910000000  0.5159030000000  0.5461210000000 1.0
C      1  0.5193710000000  0.5031190000000  0.4538790000000 1.0
C      1  0.5159030000000  0.4885100000000  0.5461210000000 1.0
C      1  0.5031200000000  0.4806290000000  0.4538790000000 1.0
C      1  0.4885090000000  0.4840980000000  0.5461210000000 1.0
C      1  0.4946140000000  0.5172620000000  0.4974010000000 1.0
C      1  0.5083980000000  0.5160150000000  0.5025990000000 1.0
C      1  0.5172620000000  0.5053850000000  0.4974010000000 1.0
C      1  0.5160150000000  0.4916020000000  0.5025990000000 1.0
C      1  0.5053860000000  0.4827380000000  0.4974010000000 1.0
C      1  0.4916020000000  0.4839860000000  0.5025990000000 1.0
C      1  0.4827380000000  0.4946140000000  0.4974010000000 1.0
C      1  0.4839850000000  0.5083980000000  0.5025990000000 1.0
C      1  0.5120010000000  0.4693500000000  0.5245410000000 1.0
C      1  0.4868140000000  0.4698400000000  0.4754600000000 1.0
C      1  0.4693500000000  0.4879990000000  0.5245410000000 1.0
C      1  0.4698410000000  0.5131860000000  0.4754590000000 1.0
C      1  0.4879980000000  0.5306500000000  0.5245400000000 1.0
C      1  0.5131870000000  0.5301590000000  0.4754590000000 1.0
C      1  0.5306500000000  0.5120020000000  0.5245410000000 1.0
C      1  0.5301590000000  0.4868130000000  0.4754600000000 1.0
C      1  0.5097110000000  0.4125850000000  0.4875720000000 1.0
C      1  0.4450550000000  0.4313220000000  0.5124300000000 1.0
C      1  0.4125860000000  0.4902890000000  0.4875700000000 1.0
C      1  0.4313220000000  0.5549450000000  0.5124290000000 1.0
C      1  0.4902890000000  0.5874140000000  0.4875690000000 1.0
C      1  0.5549450000000  0.5686780000000  0.5124290000000 1.0
C      1  0.5874150000000  0.5097110000000  0.4875710000000 1.0
C      1  0.5686780000000  0.4450550000000  0.5124300000000 1.0
C      1  0.4893000000000  0.4728560000000  0.4508670000000 1.0
C      1  0.4732400000000  0.4883730000000  0.5491330000000 1.0
C      1  0.4728570000000  0.5106990000000  0.4508660000000 1.0
C      1  0.4883720000000  0.5267600000000  0.5491330000000 1.0
C      1  0.5107000000000  0.5271430000000  0.4508660000000 1.0
C      1  0.5267590000000  0.5116280000000  0.5491330000000 1.0
C      1  0.5271440000000  0.4892990000000  0.4508670000000 1.0
C      1  0.5116270000000  0.4732410000000  0.5491340000000 1.0
C      1  0.5524160000000  0.5167000000000  0.5112790000000 1.0
C      1  0.5488730000000  0.4747450000000  0.4887210000000 1.0
C      1  0.5167000000000  0.4475840000000  0.5112800000000 1.0
C      1  0.4747450000000  0.4511270000000  0.4887210000000 1.0
C      1  0.4475840000000  0.4833000000000  0.5112790000000 1.0
C      1  0.4511280000000  0.5252550000000  0.4887200000000 1.0
C      1  0.4833000000000  0.5524160000000  0.5112790000000 1.0
C      1  0.5252550000000  0.5488720000000  0.4887200000000 1.0
C      1  0.5586910000000  0.5610560000000  0.5245790000000 1.0
C      1  0.5846740000000  0.5016710000000  0.4754210000000 1.0
C      1  0.5610550000000  0.4413090000000  0.5245800000000 1.0
C      1  0.5016720000000  0.4153260000000  0.4754220000000 1.0
C      1  0.4413090000000  0.4389450000000  0.5245800000000 1.0
C      1  0.4153260000000  0.4983280000000  0.4754200000000 1.0
C      1  0.4389450000000  0.5586920000000  0.5245780000000 1.0
C      1  0.4983280000000  0.5846730000000  0.4754190000000 1.0
C      1  0.4375220000000  0.4477900000000  0.4790550000000 1.0
C      1  0.4189040000000  0.5072610000000  0.5209450000000 1.0
C      1  0.4477910000000  0.5624780000000  0.4790540000000 1.0
C      1  0.5072610000000  0.5810960000000  0.5209440000000 1.0
C      1  0.5624780000000  0.5522090000000  0.4790550000000 1.0
C      1  0.5810960000000  0.4927390000000  0.5209450000000 1.0
C      1  0.5522090000000  0.4375220000000  0.4790560000000 1.0
C      1  0.4927390000000  0.4189040000000  0.5209460000000 1.0
C      1  0.5314120000000  0.5354680000000  0.5590530000000 1.0
C      1  0.5472910000000  0.5028660000000  0.4409470000000 1.0
C      1  0.5354670000000  0.4685890000000  0.5590540000000 1.0
C      1  0.5028670000000  0.4527080000000  0.4409470000000 1.0
C      1  0.4685880000000  0.4645340000000  0.5590540000000 1.0
C      1  0.4527090000000  0.4971320000000  0.4409460000000 1.0
C      1  0.4645330000000  0.5314130000000  0.5590530000000 1.0
C      1  0.4971330000000  0.5472900000000  0.4409460000000 1.0
C      1  0.5367420000000  0.5649200000000  0.5352860000000 1.0
C      1  0.5718860000000  0.5199240000000  0.4647130000000 1.0
C      1  0.5649200000000  0.4632590000000  0.5352870000000 1.0
C      1  0.5199250000000  0.4281140000000  0.4647140000000 1.0
C      1  0.4632580000000  0.4350800000000  0.5352870000000 1.0
C      1  0.4281140000000  0.4800750000000  0.4647130000000 1.0
C      1  0.4350800000000  0.5367420000000  0.5352860000000 1.0
C      1  0.4800750000000  0.5718850000000  0.4647120000000 1.0
C      1  0.5483590000000  0.4912460000000  0.5480720000000 1.0
C      1  0.5280050000000  0.4596140000000  0.4519290000000 1.0
C      1  0.4912460000000  0.4516420000000  0.5480720000000 1.0
C      1  0.4596150000000  0.4719950000000  0.4519280000000 1.0
C      1  0.4516410000000  0.5087550000000  0.5480720000000 1.0
C      1  0.4719950000000  0.5403850000000  0.4519280000000 1.0
C      1  0.5087540000000  0.5483600000000  0.5480710000000 1.0
C      1  0.5403850000000  0.5280040000000  0.4519280000000 1.0
C      1  0.4377070000000  0.4988170000000  0.5670060000000 1.0
C      1  0.4551160000000  0.5432090000000  0.4329930000000 1.0
C      1  0.4988160000000  0.5622930000000  0.5670060000000 1.0
C      1  0.5432110000000  0.5448840000000  0.4329930000000 1.0
C      1  0.5622920000000  0.5011850000000  0.5670070000000 1.0
C      1  0.5448850000000  0.4567890000000  0.4329940000000 1.0
C      1  0.5011840000000  0.4377080000000  0.5670070000000 1.0
C      1  0.4567900000000  0.4551150000000  0.4329940000000 1.0
C      1  0.4386340000000  0.5019410000000  0.5017080000000 1.0
C      1  0.4579800000000  0.5447650000000  0.4982910000000 1.0
C      1  0.5019410000000  0.5613660000000  0.5017070000000 1.0
C      1  0.5447650000000  0.5420200000000  0.4982920000000 1.0
C      1  0.5613660000000  0.4980590000000  0.5017080000000 1.0
C      1  0.5420200000000  0.4552350000000  0.4982930000000 1.0
C      1  0.4980590000000  0.4386340000000  0.5017090000000 1.0
C      1  0.4552350000000  0.4579800000000  0.4982930000000 1.0
C      1  0.5160640000000  0.5178260000000  0.5797490000000 1.0
C      1  0.5239640000000  0.5012440000000  0.4202510000000 1.0
C      1  0.5178250000000  0.4839370000000  0.5797490000000 1.0
C      1  0.5012450000000  0.4760360000000  0.4202510000000 1.0
C      1  0.4839360000000  0.4821760000000  0.5797490000000 1.0
C      1  0.4760370000000  0.4987540000000  0.4202510000000 1.0
C      1  0.4821750000000  0.5160650000000  0.5797490000000 1.0
C      1  0.4987550000000  0.5239620000000  0.4202510000000 1.0
C      1  0.4793680000000  0.4229970000000  0.4686490000000 1.0
C      1  0.4309620000000  0.4601410000000  0.5313520000000 1.0
C      1  0.4229980000000  0.5206320000000  0.4686480000000 1.0
C      1  0.4601400000000  0.5690390000000  0.5313500000000 1.0
C      1  0.5206330000000  0.5770020000000  0.4686480000000 1.0
C      1  0.5690380000000  0.5398600000000  0.5313510000000 1.0
C      1  0.5770030000000  0.4793670000000  0.4686490000000 1.0
C      1  0.5398590000000  0.4309620000000  0.5313520000000 1.0
C      1  0.5426470000000  0.4569130000000  0.5347750000000 1.0
C      1  0.4996890000000  0.4393760000000  0.4652270000000 1.0
C      1  0.4569130000000  0.4573530000000  0.5347750000000 1.0
C      1  0.4393770000000  0.5003100000000  0.4652260000000 1.0
C      1  0.4573530000000  0.5430870000000  0.5347730000000 1.0
C      1  0.5003110000000  0.5606230000000  0.4652250000000 1.0
C      1  0.5430870000000  0.5426480000000  0.5347740000000 1.0
C      1  0.5606230000000  0.4996890000000  0.4652260000000 1.0
C      1  0.4950100000000  0.5495170000000  0.5733910000000 1.0
C      1  0.5314850000000  0.5385410000000  0.4266080000000 1.0
C      1  0.5495160000000  0.5049910000000  0.5733920000000 1.0
C      1  0.5385420000000  0.4685150000000  0.4266090000000 1.0
C      1  0.5049900000000  0.4504850000000  0.5733920000000 1.0
C      1  0.4685160000000  0.4614580000000  0.4266090000000 1.0
C      1  0.4504840000000  0.4950110000000  0.5733910000000 1.0
C      1  0.4614590000000  0.5314840000000  0.4266080000000 1.0
C      1  0.4542820000000  0.4337510000000  0.4914090000000 1.0
C      1  0.4208280000000  0.4854820000000  0.5085910000000 1.0
C      1  0.4337510000000  0.5457180000000  0.4914080000000 1.0
C      1  0.4854820000000  0.5791730000000  0.5085900000000 1.0
C      1  0.5457180000000  0.5662490000000  0.4914080000000 1.0
C      1  0.5791720000000  0.5145180000000  0.5085910000000 1.0
C      1  0.5662490000000  0.4542820000000  0.4914100000000 1.0
C      1  0.5145180000000  0.4208280000000  0.5085920000000 1.0
C      1  0.4933980000000  0.5737400000000  0.4678210000000 1.0
C      1  0.5474740000000  0.5568110000000  0.5321770000000 1.0
C      1  0.5737400000000  0.5066020000000  0.4678220000000 1.0
C      1  0.5568110000000  0.4525270000000  0.5321790000000 1.0
C      1  0.5066020000000  0.4262590000000  0.4678230000000 1.0
C      1  0.4525260000000  0.4431900000000  0.5321780000000 1.0
C      1  0.4262600000000  0.4933970000000  0.4678220000000 1.0
C      1  0.4431890000000  0.5474740000000  0.5321770000000 1.0
C      1  0.5373580000000  0.4905050000000  0.5555980000000 1.0
C      1  0.5197030000000  0.4668680000000  0.4444030000000 1.0
C      1  0.4905040000000  0.4626420000000  0.5555980000000 1.0
C      1  0.4668690000000  0.4802970000000  0.4444020000000 1.0
C      1  0.4626410000000  0.5094960000000  0.5555980000000 1.0
C      1  0.4802980000000  0.5331300000000  0.4444020000000 1.0
C      1  0.5094950000000  0.5373590000000  0.5555970000000 1.0
C      1  0.5331310000000  0.5197020000000  0.4444020000000 1.0
C      1  0.4956790000000  0.5104260000000  0.4661110000000 1.0
C      1  0.5043180000000  0.5104290000000  0.5338880000000 1.0
C      1  0.5104270000000  0.5043200000000  0.4661120000000 1.0
C      1  0.5104280000000  0.4956830000000  0.5338890000000 1.0
C      1  0.5043210000000  0.4895730000000  0.4661120000000 1.0
C      1  0.4956820000000  0.4895720000000  0.5338890000000 1.0
C      1  0.4895730000000  0.4956790000000  0.4661120000000 1.0
C      1  0.4895720000000  0.5043180000000  0.5338880000000 1.0
C      1  0.5521520000000  0.4787700000000  0.4603890000000 1.0
C      1  0.5218650000000  0.4481120000000  0.5396120000000 1.0
C      1  0.4787710000000  0.4478480000000  0.4603890000000 1.0
C      1  0.4481120000000  0.4781350000000  0.5396120000000 1.0
C      1  0.4478490000000  0.5212290000000  0.4603880000000 1.0
C      1  0.4781340000000  0.5518890000000  0.5396110000000 1.0
C      1  0.5212290000000  0.5521510000000  0.4603880000000 1.0
C      1  0.5518880000000  0.5218660000000  0.5396120000000 1.0
C      1  0.4182100000000  0.4727220000000  0.5133010000000 1.0
C      1  0.4228770000000  0.5385450000000  0.4866980000000 1.0
C      1  0.4727220000000  0.5817900000000  0.5133000000000 1.0
C      1  0.5385450000000  0.5771220000000  0.4866980000000 1.0
C      1  0.5817890000000  0.5272780000000  0.5133010000000 1.0
C      1  0.5771230000000  0.4614550000000  0.4866990000000 1.0
C      1  0.5272780000000  0.4182110000000  0.5133020000000 1.0
C      1  0.4614550000000  0.4228770000000  0.4867000000000 1.0
C      1  0.4842010000000  0.5201730000000  0.4480590000000 1.0
C      1  0.5030930000000  0.5254370000000  0.5519400000000 1.0
C      1  0.5201740000000  0.5157980000000  0.4480600000000 1.0
C      1  0.5254370000000  0.4969070000000  0.5519400000000 1.0
C      1  0.5157990000000  0.4798250000000  0.4480600000000 1.0
C      1  0.4969060000000  0.4745640000000  0.5519410000000 1.0
C      1  0.4798260000000  0.4842000000000  0.4480600000000 1.0
C      1  0.4745630000000  0.5030940000000  0.5519400000000 1.0
C      1  0.4957200000000  0.5714270000000  0.5255880000000 1.0
C      1  0.5474800000000  0.5535320000000  0.4744110000000 1.0
C      1  0.5714260000000  0.5042800000000  0.5255890000000 1.0
C      1  0.5535330000000  0.4525200000000  0.4744120000000 1.0
C      1  0.5042800000000  0.4285740000000  0.5255900000000 1.0
C      1  0.4525200000000  0.4464670000000  0.4744120000000 1.0
C      1  0.4285730000000  0.4957200000000  0.5255880000000 1.0
C      1  0.4464670000000  0.5474790000000  0.4744110000000 1.0
C      1  0.5393840000000  0.5123530000000  0.5378840000000 1.0
C      1  0.5365830000000  0.4808850000000  0.4621160000000 1.0
C      1  0.5123520000000  0.4606170000000  0.5378850000000 1.0
C      1  0.4808860000000  0.4634160000000  0.4621160000000 1.0
C      1  0.4606160000000  0.4876480000000  0.5378840000000 1.0
C      1  0.4634170000000  0.5191140000000  0.4621160000000 1.0
C      1  0.4876480000000  0.5393840000000  0.5378830000000 1.0
C      1  0.5191140000000  0.5365830000000  0.4621160000000 1.0
C      1  0.5132170000000  0.4598090000000  0.4338920000000 1.0
C      1  0.4809270000000  0.4622370000000  0.5661090000000 1.0
C      1  0.4598100000000  0.4867820000000  0.4338910000000 1.0
C      1  0.4622350000000  0.5190740000000  0.5661090000000 1.0
C      1  0.4867830000000  0.5401890000000  0.4338900000000 1.0
C      1  0.5190730000000  0.5377650000000  0.5661090000000 1.0
C      1  0.5401900000000  0.5132160000000  0.4338910000000 1.0
C      1  0.5377640000000  0.4809280000000  0.5661090000000 1.0
C      1  0.4169780000000  0.4764380000000  0.4870730000000 1.0
C      1  0.4246330000000  0.5420450000000  0.5129260000000 1.0
C      1  0.4764380000000  0.5830220000000  0.4870720000000 1.0
C      1  0.5420450000000  0.5753670000000  0.5129260000000 1.0
C      1  0.5830230000000  0.5235620000000  0.4870730000000 1.0
C      1  0.5753660000000  0.4579550000000  0.5129280000000 1.0
C      1  0.5235620000000  0.4169770000000  0.4870740000000 1.0
C      1  0.4579550000000  0.4246340000000  0.5129280000000 1.0
C      1  0.5195800000000  0.4377600000000  0.4537210000000 1.0
C      1  0.4698350000000  0.4421460000000  0.5462810000000 1.0
C      1  0.4377610000000  0.4804190000000  0.4537200000000 1.0
C      1  0.4421450000000  0.5301650000000  0.5462790000000 1.0
C      1  0.4804200000000  0.5622380000000  0.4537190000000 1.0
C      1  0.5301640000000  0.5578550000000  0.5462790000000 1.0
C      1  0.5622390000000  0.5195790000000  0.4537200000000 1.0
C      1  0.5578550000000  0.4698360000000  0.5462810000000 1.0
C      1  0.4623410000000  0.5653130000000  0.4809120000000 1.0
C      1  0.5195550000000  0.5728130000000  0.5190860000000 1.0
C      1  0.5653140000000  0.5376580000000  0.4809130000000 1.0
C      1  0.5728120000000  0.4804450000000  0.5190870000000 1.0
C      1  0.5376590000000  0.4346860000000  0.4809140000000 1.0
C      1  0.4804450000000  0.4271880000000  0.5190880000000 1.0
C      1  0.4346860000000  0.4623410000000  0.4809130000000 1.0
C      1  0.4271870000000  0.5195550000000  0.5190860000000 1.0
C      1  0.4993460000000  0.5103510000000  0.4165830000000 1.0
C      1  0.5068580000000  0.5077840000000  0.5834160000000 1.0
C      1  0.5103530000000  0.5006530000000  0.4165840000000 1.0
C      1  0.5077820000000  0.4931430000000  0.5834170000000 1.0
C      1  0.5006540000000  0.4896470000000  0.4165840000000 1.0
C      1  0.4931420000000  0.4922180000000  0.5834160000000 1.0
C      1  0.4896480000000  0.4993450000000  0.4165840000000 1.0
C      1  0.4922170000000  0.5068590000000  0.5834160000000 1.0
C      1  0.5733660000000  0.4667430000000  0.5239970000000 1.0
C      1  0.5283610000000  0.4246060000000  0.4760040000000 1.0
C      1  0.4667420000000  0.4266340000000  0.5239970000000 1.0
C      1  0.4246060000000  0.4716390000000  0.4760030000000 1.0
C      1  0.4266340000000  0.5332580000000  0.5239960000000 1.0
C      1  0.4716390000000  0.5753940000000  0.4760020000000 1.0
C      1  0.5332570000000  0.5733660000000  0.5239960000000 1.0
C      1  0.5753940000000  0.5283610000000  0.4760030000000 1.0
C      1  0.4865050000000  0.5307010000000  0.4229420000000 1.0
C      1  0.5121670000000  0.5312530000000  0.5770580000000 1.0
C      1  0.5307020000000  0.5134940000000  0.4229420000000 1.0
C      1  0.5312510000000  0.4878340000000  0.5770580000000 1.0
C      1  0.5134950000000  0.4692970000000  0.4229420000000 1.0
C      1  0.4878330000000  0.4687490000000  0.5770580000000 1.0
C      1  0.4692990000000  0.4865040000000  0.4229420000000 1.0
C      1  0.4687480000000  0.5121680000000  0.5770580000000 1.0
C      1  0.5446300000000  0.5398980000000  0.4694970000000 1.0
C      1  0.5597700000000  0.4966550000000  0.5305030000000 1.0
C      1  0.5398980000000  0.4553700000000  0.4694980000000 1.0
C      1  0.4966540000000  0.4402300000000  0.5305040000000 1.0
C      1  0.4553700000000  0.4601010000000  0.4694970000000 1.0
C      1  0.4402290000000  0.5033460000000  0.5305030000000 1.0
C      1  0.4601020000000  0.5446290000000  0.4694960000000 1.0
C      1  0.5033460000000  0.5597710000000  0.5305020000000 1.0
C      1  0.4663740000000  0.4465100000000  0.4410890000000 1.0
C      1  0.4384000000000  0.4859550000000  0.5589110000000 1.0
C      1  0.4465110000000  0.5336250000000  0.4410880000000 1.0
C      1  0.4859540000000  0.5616000000000  0.5589110000000 1.0
C      1  0.5336260000000  0.5534880000000  0.4410880000000 1.0
C      1  0.5615990000000  0.5140460000000  0.5589120000000 1.0
C      1  0.5534890000000  0.4663730000000  0.4410890000000 1.0
C      1  0.5140450000000  0.4384010000000  0.5589120000000 1.0
C      1  0.4658130000000  0.4251660000000  0.4730020000000 1.0
C      1  0.4229110000000  0.4712590000000  0.5269990000000 1.0
C      1  0.4251670000000  0.5341870000000  0.4730000000000 1.0
C      1  0.4712590000000  0.5770900000000  0.5269980000000 1.0
C      1  0.5341880000000  0.5748330000000  0.4730000000000 1.0
C      1  0.5770890000000  0.5287410000000  0.5269990000000 1.0
C      1  0.5748330000000  0.4658120000000  0.4730020000000 1.0
C      1  0.5287410000000  0.4229110000000  0.5270000000000 1.0
C      1  0.5002330000000  0.4640140000000  0.4787190000000 1.0
C      1  0.4747190000000  0.4743900000000  0.5212810000000 1.0
C      1  0.4640150000000  0.4997670000000  0.4787190000000 1.0
C      1  0.4743900000000  0.5252810000000  0.5212810000000 1.0
C      1  0.4997670000000  0.5359850000000  0.4787180000000 1.0
C      1  0.5252810000000  0.5256100000000  0.5212810000000 1.0
C      1  0.5359850000000  0.5002330000000  0.4787190000000 1.0
C      1  0.5256100000000  0.4747190000000  0.5212820000000 1.0
C      1  0.5581770000000  0.4851810000000  0.4832260000000 1.0
C      1  0.5306590000000  0.4483850000000  0.5167750000000 1.0
C      1  0.4851820000000  0.4418230000000  0.4832260000000 1.0
C      1  0.4483850000000  0.4693410000000  0.5167750000000 1.0
C      1  0.4418230000000  0.5148180000000  0.4832250000000 1.0
C      1  0.4693410000000  0.5516160000000  0.5167740000000 1.0
C      1  0.5148180000000  0.5581770000000  0.4832250000000 1.0
C      1  0.5516150000000  0.5306590000000  0.5167740000000 1.0
C      1  0.4822820000000  0.5644900000000  0.5456630000000 1.0
C      1  0.5330730000000  0.5581290000000  0.4543360000000 1.0
C      1  0.5644900000000  0.5177180000000  0.5456640000000 1.0
C      1  0.5581290000000  0.4669260000000  0.4543370000000 1.0
C      1  0.5177170000000  0.4355110000000  0.5456650000000 1.0
C      1  0.4669270000000  0.4418700000000  0.4543370000000 1.0
C      1  0.4355100000000  0.4822830000000  0.5456640000000 1.0
C      1  0.4418710000000  0.5330720000000  0.4543360000000 1.0
C      1  0.4932180000000  0.5563110000000  0.4908910000000 1.0
C      1  0.5350230000000  0.5446140000000  0.5091080000000 1.0
C      1  0.5563110000000  0.5067820000000  0.4908920000000 1.0
C      1  0.5446130000000  0.4649770000000  0.5091090000000 1.0
C      1  0.5067820000000  0.4436890000000  0.4908920000000 1.0
C      1  0.4649770000000  0.4553870000000  0.5091090000000 1.0
C      1  0.4436890000000  0.4932180000000  0.4908910000000 1.0
C      1  0.4553870000000  0.5350230000000  0.5091080000000 1.0
C      1  0.5788210000000  0.4655460000000  0.5005410000000 1.0
C      1  0.5313720000000  0.4199030000000  0.4994610000000 1.0
C      1  0.4655460000000  0.4211790000000  0.5005410000000 1.0
C      1  0.4199030000000  0.4686280000000  0.4994600000000 1.0
C      1  0.4211790000000  0.5344540000000  0.5005390000000 1.0
C      1  0.4686280000000  0.5800970000000  0.4994590000000 1.0
C      1  0.5344540000000  0.5788210000000  0.5005390000000 1.0
C      1  0.5800970000000  0.5313720000000  0.4994600000000 1.0
C      1  0.5098630000000  0.5386410000000  0.4382840000000 1.0
C      1  0.5342970000000  0.5203500000000  0.5617160000000 1.0
C      1  0.5386420000000  0.4901360000000  0.4382840000000 1.0
C      1  0.5203490000000  0.4657030000000  0.5617170000000 1.0
C      1  0.4901370000000  0.4613580000000  0.4382840000000 1.0
C      1  0.4657020000000  0.4796510000000  0.5617160000000 1.0
C      1  0.4613590000000  0.5098620000000  0.4382840000000 1.0
C      1  0.4796500000000  0.5342980000000  0.5617160000000 1.0
C      1  0.4475250000000  0.4815310000000  0.4967210000000 1.0
C      1  0.4498350000000  0.5240460000000  0.5032790000000 1.0
C      1  0.4815310000000  0.5524750000000  0.4967200000000 1.0
C      1  0.5240460000000  0.5501650000000  0.5032790000000 1.0
C      1  0.5524750000000  0.5184680000000  0.4967210000000 1.0
C      1  0.5501650000000  0.4759540000000  0.5032800000000 1.0
C      1  0.5184690000000  0.4475250000000  0.4967210000000 1.0
C      1  0.4759540000000  0.4498350000000  0.5032800000000 1.0
C      1  0.4998510000000  0.4518720000000  0.5375390000000 1.0
C      1  0.4658630000000  0.4660730000000  0.4624620000000 1.0
C      1  0.4518720000000  0.5001490000000  0.5375380000000 1.0
C      1  0.4660740000000  0.5341370000000  0.4624610000000 1.0
C      1  0.5001490000000  0.5481290000000  0.5375370000000 1.0
C      1  0.5341370000000  0.5339260000000  0.4624620000000 1.0
C      1  0.5481280000000  0.4998520000000  0.5375380000000 1.0
C      1  0.5339270000000  0.4658620000000  0.4624620000000 1.0
C      1  0.5149050000000  0.5623110000000  0.4685490000000 1.0
C      1  0.5546000000000  0.5335220000000  0.5314500000000 1.0
C      1  0.5623120000000  0.4850950000000  0.4685500000000 1.0
C      1  0.5335220000000  0.4454000000000  0.5314510000000 1.0
C      1  0.4850950000000  0.4376880000000  0.4685510000000 1.0
C      1  0.4454000000000  0.4664790000000  0.5314500000000 1.0
C      1  0.4376880000000  0.5149040000000  0.4685500000000 1.0
C      1  0.4664780000000  0.5546010000000  0.5314490000000 1.0
C      1  0.5600700000000  0.4823270000000  0.5523190000000 1.0
C      1  0.5299790000000  0.4450260000000  0.4476820000000 1.0
C      1  0.4823260000000  0.4399310000000  0.5523190000000 1.0
C      1  0.4450270000000  0.4700210000000  0.4476810000000 1.0
C      1  0.4399300000000  0.5176740000000  0.5523180000000 1.0
C      1  0.4700210000000  0.5549720000000  0.4476810000000 1.0
C      1  0.5176730000000  0.5600710000000  0.5523180000000 1.0
C      1  0.5549730000000  0.5299780000000  0.4476810000000 1.0
C      1  0.4777910000000  0.4655190000000  0.4861710000000 1.0
C      1  0.4599140000000  0.4913220000000  0.5138300000000 1.0
C      1  0.4655190000000  0.5222080000000  0.4861700000000 1.0
C      1  0.4913220000000  0.5400860000000  0.5138290000000 1.0
C      1  0.5222090000000  0.5344810000000  0.4861700000000 1.0
C      1  0.5400860000000  0.5086780000000  0.5138300000000 1.0
C      1  0.5344810000000  0.4777910000000  0.4861710000000 1.0
C      1  0.5086780000000  0.4599150000000  0.5138300000000 1.0
C      1  0.4638570000000  0.4982620000000  0.5777450000000 1.0
C      1  0.4732140000000  0.5243270000000  0.4222550000000 1.0
C      1  0.4982610000000  0.5361440000000  0.5777440000000 1.0
C      1  0.5243280000000  0.5267860000000  0.4222550000000 1.0
C      1  0.5361430000000  0.5017400000000  0.5777450000000 1.0
C      1  0.5267870000000  0.4756720000000  0.4222560000000 1.0
C      1  0.5017390000000  0.4638580000000  0.5777450000000 1.0
C      1  0.4756730000000  0.4732120000000  0.4222560000000 1.0
C      1  0.4439240000000  0.5665920000000  0.4920820000000 1.0
C      1  0.5074360000000  0.5867400000000  0.5079160000000 1.0
C      1  0.5665920000000  0.5560760000000  0.4920820000000 1.0
C      1  0.5867400000000  0.4925640000000  0.5079180000000 1.0
C      1  0.5560760000000  0.4334080000000  0.4920840000000 1.0
C      1  0.4925640000000  0.4132600000000  0.5079180000000 1.0
C      1  0.4334080000000  0.4439230000000  0.4920830000000 1.0
C      1  0.4132600000000  0.5074360000000  0.5079170000000 1.0
C      1  0.5689260000000  0.5407440000000  0.4966030000000 1.0
C      1  0.5775490000000  0.4800720000000  0.5033970000000 1.0
C      1  0.5407440000000  0.4310740000000  0.4966040000000 1.0
C      1  0.4800720000000  0.4224510000000  0.5033980000000 1.0
C      1  0.4310740000000  0.4592560000000  0.4966040000000 1.0
C      1  0.4224510000000  0.5199280000000  0.5033960000000 1.0
C      1  0.4592560000000  0.5689260000000  0.4966020000000 1.0
C      1  0.5199280000000  0.5775490000000  0.5033960000000 1.0
C      1  0.5666100000000  0.4893840000000  0.5618310000000 1.0
C      1  0.5395940000000  0.4453910000000  0.4381700000000 1.0
C      1  0.4893830000000  0.4333900000000  0.5618310000000 1.0
C      1  0.4453920000000  0.4604060000000  0.4381700000000 1.0
C      1  0.4333890000000  0.5106170000000  0.5618300000000 1.0
C      1  0.4604070000000  0.5546070000000  0.4381690000000 1.0
C      1  0.5106160000000  0.5666110000000  0.5618300000000 1.0
C      1  0.5546080000000  0.5395930000000  0.4381690000000 1.0
END
