TITL C-114178-678-37 -44.3405297066799 1000000 -1671.10094719818 0 0 240 (Td) n - 1
REM
REM in /home/chem/mssmkc/work/GAP20/Larger-Clusters/Only-C240/New/BUILD-ONLY
REM
REM
REM
REM
REM
REM ./C.cell (daee87de7206da95283bc1c1416dbc6f)
REM
REM compiler GCC version 8.3.0
REM options -cpp -mtune=generic -march=x86-64 -g -O0
REM seed -1459777821 -1608814286 -1891418061 -9856618 -1850544247 -30408879 -302083829 -1191887843 -593362920 -1996633987 798907143 1524210295 691612714 1634179433 574700421 -1407033785 -1797489290 1397736868 434889618 324276435 -2046344622 1668656009 110804787 -778569678 -1986049950 -1628561976 -1242091962 1558983360 295018894 338434904 -220263649 -571425760 211618934
REM
CELL 1.54180  100.00000  100.00000  100.00000   90.00000   90.00000   90.00000
LATT -1
SFAC C  
C      1  0.4350960000000  0.4858850000000  0.5240970000000 1.0
C      1  0.4858850000000  0.5240970000000  0.4350960000000 1.0
C      1  0.5240970000000  0.4350960000000  0.4858850000000 1.0
C      1  0.4350960000000  0.5141150000000  0.4759040000000 1.0
C      1  0.5649030000000  0.4858850000000  0.4759030000000 1.0
C      1  0.5649040000000  0.5141150000000  0.5240960000000 1.0
C      1  0.4858850000000  0.4759030000000  0.5649040000000 1.0
C      1  0.5141160000000  0.5240970000000  0.5649040000000 1.0
C      1  0.5141150000000  0.4759030000000  0.4350960000000 1.0
C      1  0.5240970000000  0.5649040000000  0.5141150000000 1.0
C      1  0.4759030000000  0.4350960000000  0.5141150000000 1.0
C      1  0.4759030000000  0.5649040000000  0.4858850000000 1.0
C      1  0.4350960000000  0.5240970000000  0.4858850000000 1.0
C      1  0.4858850000000  0.4350960000000  0.5240970000000 1.0
C      1  0.5240960000000  0.4858850000000  0.4350960000000 1.0
C      1  0.4350960000000  0.4759030000000  0.5141160000000 1.0
C      1  0.5649030000000  0.4759030000000  0.4858850000000 1.0
C      1  0.5649040000000  0.5240970000000  0.5141150000000 1.0
C      1  0.4858850000000  0.5649040000000  0.4759030000000 1.0
C      1  0.5141150000000  0.5649040000000  0.5240970000000 1.0
C      1  0.5141150000000  0.4350960000000  0.4759030000000 1.0
C      1  0.5240970000000  0.5141150000000  0.5649030000000 1.0
C      1  0.4759030000000  0.5141150000000  0.4350960000000 1.0
C      1  0.4759030000000  0.4858850000000  0.5649040000000 1.0
C      1  0.4974090000000  0.4632810000000  0.4437610000000 1.0
C      1  0.4632810000000  0.4437610000000  0.4974100000000 1.0
C      1  0.4437600000000  0.4974100000000  0.4632820000000 1.0
C      1  0.4974100000000  0.5367190000000  0.5562390000000 1.0
C      1  0.5025910000000  0.4632820000000  0.5562400000000 1.0
C      1  0.5025900000000  0.5367180000000  0.4437600000000 1.0
C      1  0.4632820000000  0.5562400000000  0.5025910000000 1.0
C      1  0.5367180000000  0.4437600000000  0.5025900000000 1.0
C      1  0.5367190000000  0.5562390000000  0.4974090000000 1.0
C      1  0.4437610000000  0.5025910000000  0.5367190000000 1.0
C      1  0.5562400000000  0.4974090000000  0.5367180000000 1.0
C      1  0.5562390000000  0.5025900000000  0.4632810000000 1.0
C      1  0.4974090000000  0.4437600000000  0.4632820000000 1.0
C      1  0.4632810000000  0.4974090000000  0.4437610000000 1.0
C      1  0.4437600000000  0.4632820000000  0.4974100000000 1.0
C      1  0.4974100000000  0.5562400000000  0.5367190000000 1.0
C      1  0.5025910000000  0.5562390000000  0.4632810000000 1.0
C      1  0.5025910000000  0.4437610000000  0.5367190000000 1.0
C      1  0.4632820000000  0.5025910000000  0.5562400000000 1.0
C      1  0.5367180000000  0.5025900000000  0.4437600000000 1.0
C      1  0.5367190000000  0.4974090000000  0.5562390000000 1.0
C      1  0.4437610000000  0.5367190000000  0.5025910000000 1.0
C      1  0.5562400000000  0.5367180000000  0.4974090000000 1.0
C      1  0.5562390000000  0.4632810000000  0.5025900000000 1.0
C      1  0.5661570000000  0.4731480000000  0.4996970000000 1.0
C      1  0.4731490000000  0.4996980000000  0.5661570000000 1.0
C      1  0.4996980000000  0.5661570000000  0.4731480000000 1.0
C      1  0.5661570000000  0.5268510000000  0.5003020000000 1.0
C      1  0.4338430000000  0.4731490000000  0.5003030000000 1.0
C      1  0.4338430000000  0.5268520000000  0.4996980000000 1.0
C      1  0.4731480000000  0.5003020000000  0.4338430000000 1.0
C      1  0.5268510000000  0.4996980000000  0.4338430000000 1.0
C      1  0.5268520000000  0.5003020000000  0.5661570000000 1.0
C      1  0.4996980000000  0.4338430000000  0.5268520000000 1.0
C      1  0.5003030000000  0.5661570000000  0.5268520000000 1.0
C      1  0.5003020000000  0.4338430000000  0.4731480000000 1.0
C      1  0.5661570000000  0.4996980000000  0.4731480000000 1.0
C      1  0.4731490000000  0.5661570000000  0.4996980000000 1.0
C      1  0.4996980000000  0.4731480000000  0.5661570000000 1.0
C      1  0.5661570000000  0.5003020000000  0.5268510000000 1.0
C      1  0.4338430000000  0.5003020000000  0.4731490000000 1.0
C      1  0.4338430000000  0.4996980000000  0.5268520000000 1.0
C      1  0.4731480000000  0.4338430000000  0.5003020000000 1.0
C      1  0.5268520000000  0.4338430000000  0.4996980000000 1.0
C      1  0.5268520000000  0.5661570000000  0.5003020000000 1.0
C      1  0.4996980000000  0.5268520000000  0.4338430000000 1.0
C      1  0.5003030000000  0.5268520000000  0.5661570000000 1.0
C      1  0.5003020000000  0.4731480000000  0.4338430000000 1.0
C      1  0.5150730000000  0.5488070000000  0.4609920000000 1.0
C      1  0.5488070000000  0.4609920000000  0.5150730000000 1.0
C      1  0.4609930000000  0.5150730000000  0.5488070000000 1.0
C      1  0.5150730000000  0.4511930000000  0.5390080000000 1.0
C      1  0.4849280000000  0.5488070000000  0.5390080000000 1.0
C      1  0.4849270000000  0.4511930000000  0.4609920000000 1.0
C      1  0.5488070000000  0.5390080000000  0.4849270000000 1.0
C      1  0.4511930000000  0.4609920000000  0.4849280000000 1.0
C      1  0.4511940000000  0.5390080000000  0.5150730000000 1.0
C      1  0.4609920000000  0.4849270000000  0.4511940000000 1.0
C      1  0.5390080000000  0.5150720000000  0.4511930000000 1.0
C      1  0.5390080000000  0.4849270000000  0.5488060000000 1.0
C      1  0.5150730000000  0.4609920000000  0.5488070000000 1.0
C      1  0.5488060000000  0.5150720000000  0.4609920000000 1.0
C      1  0.4609930000000  0.5488070000000  0.5150730000000 1.0
C      1  0.5150730000000  0.5390080000000  0.4511930000000 1.0
C      1  0.4849280000000  0.5390080000000  0.5488070000000 1.0
C      1  0.4849270000000  0.4609920000000  0.4511940000000 1.0
C      1  0.5488070000000  0.4849270000000  0.5390070000000 1.0
C      1  0.4511930000000  0.4849270000000  0.4609930000000 1.0
C      1  0.4511940000000  0.5150730000000  0.5390080000000 1.0
C      1  0.4609920000000  0.4511930000000  0.4849280000000 1.0
C      1  0.5390080000000  0.4511930000000  0.5150730000000 1.0
C      1  0.5390080000000  0.5488060000000  0.4849270000000 1.0
C      1  0.5256710000000  0.5429230000000  0.4838000000000 1.0
C      1  0.5429240000000  0.4838000000000  0.5256710000000 1.0
C      1  0.4838010000000  0.5256710000000  0.5429230000000 1.0
C      1  0.5256710000000  0.4570760000000  0.5161990000000 1.0
C      1  0.4743290000000  0.5429240000000  0.5162000000000 1.0
C      1  0.4743290000000  0.4570770000000  0.4838010000000 1.0
C      1  0.5429230000000  0.5161990000000  0.4743290000000 1.0
C      1  0.4570760000000  0.4838010000000  0.4743290000000 1.0
C      1  0.4570770000000  0.5162000000000  0.5256710000000 1.0
C      1  0.4838000000000  0.4743290000000  0.4570770000000 1.0
C      1  0.5161990000000  0.5256710000000  0.4570760000000 1.0
C      1  0.5162000000000  0.4743290000000  0.5429230000000 1.0
C      1  0.5256710000000  0.4838000000000  0.5429230000000 1.0
C      1  0.5429230000000  0.5256710000000  0.4838000000000 1.0
C      1  0.4838010000000  0.5429240000000  0.5256710000000 1.0
C      1  0.5256710000000  0.5161990000000  0.4570760000000 1.0
C      1  0.4743290000000  0.5162000000000  0.5429240000000 1.0
C      1  0.4743290000000  0.4838000000000  0.4570770000000 1.0
C      1  0.5429230000000  0.4743290000000  0.5161990000000 1.0
C      1  0.4570760000000  0.4743290000000  0.4838010000000 1.0
C      1  0.4570770000000  0.5256710000000  0.5162000000000 1.0
C      1  0.4838000000000  0.4570770000000  0.4743290000000 1.0
C      1  0.5162000000000  0.4570770000000  0.5256710000000 1.0
C      1  0.5162000000000  0.5429230000000  0.4743290000000 1.0
C      1  0.4703750000000  0.4477040000000  0.5195130000000 1.0
C      1  0.4477040000000  0.5195130000000  0.4703750000000 1.0
C      1  0.5195130000000  0.4703750000000  0.4477040000000 1.0
C      1  0.4703750000000  0.5522960000000  0.4804870000000 1.0
C      1  0.5296250000000  0.4477040000000  0.4804870000000 1.0
C      1  0.5296260000000  0.5522960000000  0.5195130000000 1.0
C      1  0.4477040000000  0.4804870000000  0.5296260000000 1.0
C      1  0.5522970000000  0.5195130000000  0.5296250000000 1.0
C      1  0.5522960000000  0.4804870000000  0.4703740000000 1.0
C      1  0.5195140000000  0.5296250000000  0.5522960000000 1.0
C      1  0.4804870000000  0.4703750000000  0.5522970000000 1.0
C      1  0.4804870000000  0.5296250000000  0.4477040000000 1.0
C      1  0.4703740000000  0.5195130000000  0.4477040000000 1.0
C      1  0.4477040000000  0.4703750000000  0.5195140000000 1.0
C      1  0.5195130000000  0.4477040000000  0.4703750000000 1.0
C      1  0.4703750000000  0.4804870000000  0.5522970000000 1.0
C      1  0.5296250000000  0.4804870000000  0.4477030000000 1.0
C      1  0.5296260000000  0.5195130000000  0.5522960000000 1.0
C      1  0.4477040000000  0.5296250000000  0.4804870000000 1.0
C      1  0.5522970000000  0.5296250000000  0.5195130000000 1.0
C      1  0.5522960000000  0.4703740000000  0.4804870000000 1.0
C      1  0.5195130000000  0.5522960000000  0.5296250000000 1.0
C      1  0.4804870000000  0.5522960000000  0.4703750000000 1.0
C      1  0.4804870000000  0.4477040000000  0.5296250000000 1.0
C      1  0.5360320000000  0.4974930000000  0.5243380000000 1.0
C      1  0.4974930000000  0.5243380000000  0.5360320000000 1.0
C      1  0.5243380000000  0.5360320000000  0.4974930000000 1.0
C      1  0.5360320000000  0.5025070000000  0.4756620000000 1.0
C      1  0.4639680000000  0.4974930000000  0.4756620000000 1.0
C      1  0.4639680000000  0.5025070000000  0.5243380000000 1.0
C      1  0.4974920000000  0.4756620000000  0.4639680000000 1.0
C      1  0.5025070000000  0.5243380000000  0.4639680000000 1.0
C      1  0.5025070000000  0.4756620000000  0.5360320000000 1.0
C      1  0.5243380000000  0.4639680000000  0.5025070000000 1.0
C      1  0.4756620000000  0.5360320000000  0.5025070000000 1.0
C      1  0.4756620000000  0.4639680000000  0.4974930000000 1.0
C      1  0.5360320000000  0.5243380000000  0.4974920000000 1.0
C      1  0.4974930000000  0.5360320000000  0.5243380000000 1.0
C      1  0.5243380000000  0.4974930000000  0.5360320000000 1.0
C      1  0.5360320000000  0.4756620000000  0.5025070000000 1.0
C      1  0.4639680000000  0.4756620000000  0.4974930000000 1.0
C      1  0.4639680000000  0.5243380000000  0.5025070000000 1.0
C      1  0.4974920000000  0.4639680000000  0.4756620000000 1.0
C      1  0.5025070000000  0.4639680000000  0.5243380000000 1.0
C      1  0.5025070000000  0.5360320000000  0.4756620000000 1.0
C      1  0.5243380000000  0.5025070000000  0.4639680000000 1.0
C      1  0.4756620000000  0.5025070000000  0.5360320000000 1.0
C      1  0.4756620000000  0.4974930000000  0.4639680000000 1.0
C      1  0.5173340000000  0.5703300000000  0.4914260000000 1.0
C      1  0.5703300000000  0.4914260000000  0.5173330000000 1.0
C      1  0.4914270000000  0.5173340000000  0.5703300000000 1.0
C      1  0.5173330000000  0.4296700000000  0.5085740000000 1.0
C      1  0.4826670000000  0.5703300000000  0.5085740000000 1.0
C      1  0.4826660000000  0.4296700000000  0.4914270000000 1.0
C      1  0.5703300000000  0.5085730000000  0.4826660000000 1.0
C      1  0.4296700000000  0.4914270000000  0.4826670000000 1.0
C      1  0.4296700000000  0.5085740000000  0.5173340000000 1.0
C      1  0.4914260000000  0.4826670000000  0.4296700000000 1.0
C      1  0.5085730000000  0.5173330000000  0.4296700000000 1.0
C      1  0.5085740000000  0.4826670000000  0.5703300000000 1.0
C      1  0.5173340000000  0.4914270000000  0.5703300000000 1.0
C      1  0.5703300000000  0.5173330000000  0.4914260000000 1.0
C      1  0.4914270000000  0.5703300000000  0.5173330000000 1.0
C      1  0.5173330000000  0.5085730000000  0.4296700000000 1.0
C      1  0.4826670000000  0.5085740000000  0.5703300000000 1.0
C      1  0.4826660000000  0.4914260000000  0.4296700000000 1.0
C      1  0.5703300000000  0.4826660000000  0.5085730000000 1.0
C      1  0.4296700000000  0.4826670000000  0.4914270000000 1.0
C      1  0.4296700000000  0.5173340000000  0.5085740000000 1.0
C      1  0.4914260000000  0.4296700000000  0.4826670000000 1.0
C      1  0.5085730000000  0.4296700000000  0.5173330000000 1.0
C      1  0.5085740000000  0.5703300000000  0.4826670000000 1.0
C      1  0.5000170000000  0.5103070000000  0.4646530000000 1.0
C      1  0.5103070000000  0.4646530000000  0.5000170000000 1.0
C      1  0.4646530000000  0.5000170000000  0.5103080000000 1.0
C      1  0.5000170000000  0.4896930000000  0.5353470000000 1.0
C      1  0.4999830000000  0.5103080000000  0.5353470000000 1.0
C      1  0.4999830000000  0.4896920000000  0.4646530000000 1.0
C      1  0.5103080000000  0.5353470000000  0.4999830000000 1.0
C      1  0.4896920000000  0.4646530000000  0.4999830000000 1.0
C      1  0.4896930000000  0.5353470000000  0.5000170000000 1.0
C      1  0.4646530000000  0.4999830000000  0.4896930000000 1.0
C      1  0.5353470000000  0.5000170000000  0.4896920000000 1.0
C      1  0.5353470000000  0.4999830000000  0.5103070000000 1.0
C      1  0.5000170000000  0.4646530000000  0.5103080000000 1.0
C      1  0.5103070000000  0.5000170000000  0.4646530000000 1.0
C      1  0.4646530000000  0.5103080000000  0.5000170000000 1.0
C      1  0.5000170000000  0.5353470000000  0.4896920000000 1.0
C      1  0.4999830000000  0.5353470000000  0.5103070000000 1.0
C      1  0.4999830000000  0.4646530000000  0.4896930000000 1.0
C      1  0.5103080000000  0.4999830000000  0.5353460000000 1.0
C      1  0.4896920000000  0.4999830000000  0.4646530000000 1.0
C      1  0.4896930000000  0.5000170000000  0.5353470000000 1.0
C      1  0.4646530000000  0.4896930000000  0.4999830000000 1.0
C      1  0.5353470000000  0.4896920000000  0.5000170000000 1.0
C      1  0.5353470000000  0.5103070000000  0.4999830000000 1.0
C      1  0.4653440000000  0.4548480000000  0.5078240000000 1.0
C      1  0.4548480000000  0.5078230000000  0.4653450000000 1.0
C      1  0.5078230000000  0.4653440000000  0.4548480000000 1.0
C      1  0.4653450000000  0.5451520000000  0.4921770000000 1.0
C      1  0.5346550000000  0.4548480000000  0.4921770000000 1.0
C      1  0.5346560000000  0.5451520000000  0.5078230000000 1.0
C      1  0.4548480000000  0.4921770000000  0.5346560000000 1.0
C      1  0.5451520000000  0.5078230000000  0.5346550000000 1.0
C      1  0.5451520000000  0.4921760000000  0.4653440000000 1.0
C      1  0.5078240000000  0.5346560000000  0.5451520000000 1.0
C      1  0.4921770000000  0.4653450000000  0.5451520000000 1.0
C      1  0.4921770000000  0.5346550000000  0.4548480000000 1.0
C      1  0.4653440000000  0.5078230000000  0.4548480000000 1.0
C      1  0.4548480000000  0.4653450000000  0.5078240000000 1.0
C      1  0.5078230000000  0.4548480000000  0.4653450000000 1.0
C      1  0.4653450000000  0.4921770000000  0.5451520000000 1.0
C      1  0.5346550000000  0.4921760000000  0.4548480000000 1.0
C      1  0.5346560000000  0.5078230000000  0.5451510000000 1.0
C      1  0.4548480000000  0.5346560000000  0.4921770000000 1.0
C      1  0.5451520000000  0.5346550000000  0.5078230000000 1.0
C      1  0.5451520000000  0.4653440000000  0.4921770000000 1.0
C      1  0.5078240000000  0.5451520000000  0.5346550000000 1.0
C      1  0.4921770000000  0.5451520000000  0.4653450000000 1.0
C      1  0.4921770000000  0.4548480000000  0.5346560000000 1.0
END
