TITL C-114181-47-9 -0.0330261892341714 1000000 -1680.99782926704 0 0 240 (C1) n - 1
REM
REM in /home/chem/mssmkc/work/GAP20/Larger-Clusters/Only-C240/New/BUILD-ONLY
REM
REM
REM
REM
REM
REM ./C.cell (daee87de7206da95283bc1c1416dbc6f)
REM
REM compiler GCC version 8.3.0
REM options -cpp -mtune=generic -march=x86-64 -g -O0
REM seed 302760179 2097587218 579378175 -1411107334 645535866 -63494333 213785611 1510405316 1521331156 -1058851722 -1206008206 -1387982979 1691784912 1219501541 1588393841 1579705466 -1977587653 -1948382093 -960492616 -1496074877 -90289000 -1420385731 41858873 -912548685 -1228416445 1975623758 -1395026351 -951625229 -997695741 676079270 450388967 1944753855 188441509
REM
CELL 1.54180  100.00000  100.00000  100.00000   90.00000   90.00000   90.00000
LATT -1
SFAC C  
C      1  0.5053590000000  0.4483960000000  0.5413220000000 1.0
C      1  0.4504760000000  0.5392680000000  0.5058820000000 1.0
C      1  0.5416040000000  0.5074100000000  0.4498850000000 1.0
C      1  0.4937360000000  0.4550040000000  0.4608730000000 1.0
C      1  0.4946500000000  0.5506110000000  0.5369430000000 1.0
C      1  0.5051460000000  0.5494660000000  0.4580840000000 1.0
C      1  0.5494770000000  0.5504930000000  0.4930230000000 1.0
C      1  0.5503620000000  0.4629800000000  0.5071310000000 1.0
C      1  0.4484370000000  0.4572900000000  0.4943140000000 1.0
C      1  0.4595190000000  0.5056980000000  0.5503150000000 1.0
C      1  0.4618010000000  0.4936430000000  0.4506800000000 1.0
C      1  0.5401930000000  0.4930640000000  0.5468730000000 1.0
C      1  0.5392090000000  0.4543370000000  0.5069560000000 1.0
C      1  0.5057770000000  0.5399220000000  0.4476400000000 1.0
C      1  0.4494910000000  0.5055040000000  0.5406800000000 1.0
C      1  0.4586800000000  0.4478090000000  0.4942760000000 1.0
C      1  0.5388140000000  0.5585450000000  0.4925850000000 1.0
C      1  0.4601300000000  0.5495870000000  0.5056460000000 1.0
C      1  0.4948180000000  0.5400460000000  0.5463220000000 1.0
C      1  0.5054270000000  0.4584070000000  0.5509830000000 1.0
C      1  0.4938640000000  0.4638090000000  0.4497780000000 1.0
C      1  0.5511470000000  0.5077610000000  0.4603110000000 1.0
C      1  0.4524240000000  0.4936010000000  0.4612310000000 1.0
C      1  0.5511900000000  0.4924960000000  0.5380010000000 1.0
C      1  0.5303690000000  0.4584020000000  0.5510370000000 1.0
C      1  0.4588410000000  0.5506050000000  0.5300480000000 1.0
C      1  0.5494150000000  0.5326960000000  0.4614610000000 1.0
C      1  0.4695300000000  0.4600270000000  0.4493950000000 1.0
C      1  0.4702380000000  0.5399860000000  0.5484560000000 1.0
C      1  0.5301080000000  0.5415080000000  0.4494240000000 1.0
C      1  0.5389500000000  0.5532090000000  0.4690590000000 1.0
C      1  0.5408390000000  0.4488820000000  0.5311050000000 1.0
C      1  0.4590380000000  0.4485510000000  0.4687180000000 1.0
C      1  0.4491130000000  0.5305880000000  0.5408650000000 1.0
C      1  0.4497350000000  0.4690800000000  0.4599490000000 1.0
C      1  0.5506280000000  0.4684670000000  0.5410550000000 1.0
C      1  0.5507770000000  0.4585930000000  0.5312030000000 1.0
C      1  0.5292960000000  0.5515590000000  0.4588290000000 1.0
C      1  0.4596300000000  0.5304490000000  0.5499010000000 1.0
C      1  0.4489850000000  0.4581050000000  0.4691770000000 1.0
C      1  0.5488920000000  0.5433070000000  0.4709350000000 1.0
C      1  0.4490960000000  0.5405970000000  0.5305930000000 1.0
C      1  0.4698920000000  0.5501360000000  0.5389070000000 1.0
C      1  0.5307750000000  0.4482980000000  0.5414970000000 1.0
C      1  0.4696180000000  0.4498370000000  0.4589240000000 1.0
C      1  0.5402650000000  0.5318910000000  0.4508110000000 1.0
C      1  0.4592700000000  0.4694980000000  0.4497210000000 1.0
C      1  0.5401270000000  0.4688500000000  0.5501950000000 1.0
C      1  0.4828840000000  0.4487180000000  0.5274560000000 1.0
C      1  0.4507480000000  0.5256380000000  0.4847050000000 1.0
C      1  0.5277440000000  0.4856210000000  0.4495370000000 1.0
C      1  0.5134440000000  0.4563310000000  0.4762720000000 1.0
C      1  0.5180890000000  0.5511430000000  0.5253270000000 1.0
C      1  0.4856720000000  0.5485330000000  0.4742470000000 1.0
C      1  0.5533380000000  0.5249330000000  0.5146850000000 1.0
C      1  0.5512600000000  0.4756950000000  0.4845000000000 1.0
C      1  0.4486260000000  0.4721140000000  0.5165810000000 1.0
C      1  0.4731900000000  0.4836800000000  0.5499440000000 1.0
C      1  0.4729870000000  0.5165660000000  0.4486170000000 1.0
C      1  0.5260630000000  0.5143620000000  0.5466910000000 1.0
C      1  0.5237820000000  0.4554230000000  0.4865190000000 1.0
C      1  0.4839290000000  0.5262350000000  0.4488140000000 1.0
C      1  0.4493950000000  0.4833600000000  0.5265500000000 1.0
C      1  0.4722990000000  0.4486130000000  0.5169720000000 1.0
C      1  0.5283070000000  0.5514880000000  0.5150160000000 1.0
C      1  0.4750550000000  0.5487020000000  0.4850270000000 1.0
C      1  0.5156010000000  0.5251620000000  0.5466080000000 1.0
C      1  0.4834830000000  0.4730220000000  0.5504190000000 1.0
C      1  0.5164190000000  0.4757420000000  0.4492760000000 1.0
C      1  0.5521420000000  0.4847990000000  0.4729540000000 1.0
C      1  0.4507820000000  0.5151670000000  0.4741310000000 1.0
C      1  0.5518750000000  0.5150130000000  0.5253970000000 1.0
C      1  0.4696750000000  0.4912640000000  0.4854140000000 1.0
C      1  0.4902230000000  0.4837980000000  0.4736000000000 1.0
C      1  0.4807370000000  0.4686090000000  0.4884460000000 1.0
C      1  0.5267440000000  0.4913970000000  0.5186830000000 1.0
C      1  0.5290320000000  0.5077520000000  0.4782760000000 1.0
C      1  0.4682080000000  0.5130830000000  0.5168780000000 1.0
C      1  0.5104300000000  0.4775430000000  0.5284580000000 1.0
C      1  0.5109130000000  0.5202930000000  0.4701820000000 1.0
C      1  0.4907940000000  0.5172780000000  0.5271900000000 1.0
C      1  0.5200030000000  0.4697900000000  0.5073610000000 1.0
C      1  0.5250570000000  0.5290600000000  0.4882260000000 1.0
C      1  0.4833660000000  0.5288010000000  0.5076000000000 1.0
C      1  0.4792470000000  0.4935930000000  0.4760110000000 1.0
C      1  0.4698550000000  0.4777340000000  0.4897850000000 1.0
C      1  0.4914520000000  0.4713670000000  0.4796710000000 1.0
C      1  0.5165370000000  0.4905070000000  0.5278360000000 1.0
C      1  0.4778220000000  0.5114110000000  0.5274790000000 1.0
C      1  0.5184020000000  0.5076960000000  0.4703810000000 1.0
C      1  0.5273680000000  0.4813480000000  0.5080180000000 1.0
C      1  0.4723320000000  0.5214180000000  0.5067610000000 1.0
C      1  0.5335920000000  0.5172590000000  0.4869330000000 1.0
C      1  0.5112040000000  0.4678940000000  0.5182190000000 1.0
C      1  0.4931210000000  0.5278430000000  0.5184490000000 1.0
C      1  0.5131410000000  0.5295610000000  0.4802870000000 1.0
C      1  0.5036870000000  0.5522260000000  0.5243600000000 1.0
C      1  0.5565300000000  0.5211660000000  0.5010140000000 1.0
C      1  0.5276450000000  0.5007130000000  0.5470520000000 1.0
C      1  0.4993450000000  0.5485800000000  0.4719530000000 1.0
C      1  0.4973280000000  0.4469610000000  0.5267260000000 1.0
C      1  0.4989800000000  0.4578980000000  0.4754330000000 1.0
C      1  0.4492820000000  0.5270100000000  0.4982340000000 1.0
C      1  0.4470150000000  0.4719070000000  0.5021310000000 1.0
C      1  0.5520650000000  0.4768370000000  0.4991540000000 1.0
C      1  0.4742460000000  0.5023510000000  0.4503480000000 1.0
C      1  0.4738610000000  0.4980410000000  0.5508580000000 1.0
C      1  0.5292470000000  0.4994760000000  0.4495840000000 1.0
C      1  0.5265520000000  0.5541280000000  0.5007880000000 1.0
C      1  0.5019650000000  0.5271290000000  0.5464560000000 1.0
C      1  0.5518490000000  0.5003650000000  0.5246480000000 1.0
C      1  0.4736650000000  0.5493790000000  0.4989280000000 1.0
C      1  0.5246250000000  0.4563690000000  0.5009630000000 1.0
C      1  0.4730440000000  0.4471250000000  0.5023690000000 1.0
C      1  0.4982900000000  0.5252880000000  0.4472090000000 1.0
C      1  0.5026290000000  0.4754310000000  0.4469300000000 1.0
C      1  0.4977730000000  0.4734670000000  0.5517570000000 1.0
C      1  0.4512150000000  0.5014720000000  0.4734450000000 1.0
C      1  0.5532630000000  0.4984750000000  0.4712020000000 1.0
C      1  0.4478100000000  0.4978500000000  0.5253280000000 1.0
C      1  0.5185530000000  0.5386770000000  0.4412790000000 1.0
C      1  0.5367740000000  0.4454850000000  0.5179090000000 1.0
C      1  0.4424080000000  0.5180420000000  0.5386480000000 1.0
C      1  0.4829640000000  0.5373730000000  0.5542110000000 1.0
C      1  0.4816620000000  0.4639710000000  0.4427600000000 1.0
C      1  0.5179520000000  0.4610230000000  0.5577260000000 1.0
C      1  0.4615870000000  0.4417900000000  0.4811790000000 1.0
C      1  0.4611380000000  0.5572790000000  0.5175310000000 1.0
C      1  0.5358430000000  0.5629460000000  0.4791280000000 1.0
C      1  0.5562400000000  0.5206920000000  0.4650280000000 1.0
C      1  0.5581550000000  0.4802820000000  0.5380510000000 1.0
C      1  0.4446030000000  0.4817260000000  0.4638720000000 1.0
C      1  0.4436100000000  0.5365930000000  0.5182360000000 1.0
C      1  0.5182210000000  0.4418230000000  0.5388030000000 1.0
C      1  0.5388920000000  0.5198070000000  0.4433700000000 1.0
C      1  0.5552290000000  0.5418310000000  0.4842720000000 1.0
C      1  0.4418670000000  0.4597040000000  0.4815400000000 1.0
C      1  0.5577450000000  0.4621670000000  0.5190770000000 1.0
C      1  0.4827000000000  0.4462440000000  0.4630450000000 1.0
C      1  0.5167950000000  0.5581590000000  0.4599680000000 1.0
C      1  0.4820620000000  0.5570110000000  0.5354580000000 1.0
C      1  0.4620690000000  0.5183260000000  0.5570320000000 1.0
C      1  0.5371600000000  0.4816910000000  0.5553020000000 1.0
C      1  0.4623190000000  0.4818620000000  0.4431310000000 1.0
C      1  0.5650390000000  0.5087720000000  0.5040180000000 1.0
C      1  0.5073590000000  0.4974150000000  0.5543110000000 1.0
C      1  0.5030710000000  0.5604830000000  0.5111470000000 1.0
C      1  0.4373740000000  0.5049180000000  0.5030320000000 1.0
C      1  0.4377080000000  0.4845150000000  0.5031000000000 1.0
C      1  0.5616570000000  0.4883980000000  0.5019960000000 1.0
C      1  0.4869020000000  0.4997910000000  0.4416830000000 1.0
C      1  0.4873310000000  0.4980030000000  0.5588440000000 1.0
C      1  0.5068920000000  0.5007100000000  0.4454980000000 1.0
C      1  0.5035360000000  0.5551780000000  0.4911150000000 1.0
C      1  0.4954270000000  0.4358420000000  0.5143610000000 1.0
C      1  0.4957500000000  0.4373860000000  0.4939930000000 1.0
C      1  0.4975380000000  0.5074860000000  0.5538750000000 1.0
C      1  0.5619860000000  0.4982860000000  0.5131080000000 1.0
C      1  0.5129010000000  0.5604020000000  0.5011480000000 1.0
C      1  0.4968100000000  0.5098540000000  0.4415070000000 1.0
C      1  0.4974150000000  0.4892820000000  0.4478550000000 1.0
C      1  0.4974860000000  0.4876300000000  0.5591670000000 1.0
C      1  0.4406360000000  0.4950790000000  0.4932360000000 1.0
C      1  0.5644970000000  0.4992280000000  0.4931600000000 1.0
C      1  0.4367550000000  0.4949690000000  0.5133880000000 1.0
C      1  0.4933840000000  0.5555060000000  0.5008060000000 1.0
C      1  0.5057100000000  0.4366940000000  0.5040480000000 1.0
C      1  0.4852410000000  0.4361960000000  0.5040290000000 1.0
C      1  0.4356470000000  0.4814400000000  0.4746270000000 1.0
C      1  0.4797590000000  0.4719300000000  0.4311800000000 1.0
C      1  0.4725450000000  0.4335760000000  0.4804480000000 1.0
C      1  0.5702730000000  0.4775260000000  0.5312330000000 1.0
C      1  0.5615540000000  0.5194410000000  0.4781030000000 1.0
C      1  0.4327520000000  0.5180860000000  0.5287080000000 1.0
C      1  0.5180980000000  0.4729400000000  0.5649520000000 1.0
C      1  0.5208880000000  0.5292520000000  0.4312000000000 1.0
C      1  0.4827900000000  0.5276530000000  0.5642940000000 1.0
C      1  0.5244420000000  0.4387550000000  0.5170160000000 1.0
C      1  0.5272680000000  0.5735310000000  0.4751940000000 1.0
C      1  0.4708790000000  0.5672040000000  0.5175160000000 1.0
C      1  0.4705450000000  0.4806150000000  0.4317160000000 1.0
C      1  0.4337050000000  0.4708790000000  0.4814760000000 1.0
C      1  0.4836010000000  0.4394290000000  0.4753390000000 1.0
C      1  0.5267000000000  0.4822020000000  0.5645660000000 1.0
C      1  0.4737080000000  0.5188290000000  0.5646300000000 1.0
C      1  0.5301440000000  0.5205590000000  0.4324460000000 1.0
C      1  0.5698760000000  0.4689270000000  0.5218610000000 1.0
C      1  0.4372940000000  0.5239550000000  0.5176500000000 1.0
C      1  0.5608620000000  0.5292370000000  0.4882230000000 1.0
C      1  0.5188650000000  0.4332700000000  0.5280610000000 1.0
C      1  0.4809860000000  0.5662820000000  0.5250520000000 1.0
C      1  0.5175730000000  0.5699700000000  0.4675240000000 1.0
C      1  0.5154840000000  0.4927430000000  0.5432020000000 1.0
C      1  0.4944680000000  0.5419030000000  0.5185350000000 1.0
C      1  0.5461980000000  0.5131080000000  0.4923740000000 1.0
C      1  0.4822470000000  0.5002740000000  0.4636210000000 1.0
C      1  0.4791690000000  0.5091730000000  0.5413970000000 1.0
C      1  0.5167410000000  0.5059920000000  0.4546010000000 1.0
C      1  0.5091470000000  0.5438100000000  0.4831420000000 1.0
C      1  0.5065630000000  0.4548640000000  0.5178720000000 1.0
C      1  0.4914880000000  0.4476140000000  0.4846710000000 1.0
C      1  0.4449300000000  0.5160990000000  0.5073470000000 1.0
C      1  0.4557880000000  0.4784000000000  0.4912360000000 1.0
C      1  0.5409170000000  0.4856290000000  0.5048930000000 1.0
C      1  0.5404510000000  0.4951960000000  0.5157140000000 1.0
C      1  0.5227940000000  0.5428070000000  0.4908060000000 1.0
C      1  0.4934110000000  0.5153480000000  0.5422310000000 1.0
C      1  0.4537240000000  0.4930520000000  0.4860310000000 1.0
C      1  0.5566790000000  0.5059520000000  0.4831260000000 1.0
C      1  0.4551060000000  0.5082310000000  0.5164190000000 1.0
C      1  0.4857210000000  0.5443920000000  0.5062070000000 1.0
C      1  0.5153720000000  0.4463480000000  0.5085170000000 1.0
C      1  0.4817240000000  0.4555770000000  0.4931570000000 1.0
C      1  0.5094750000000  0.5196510000000  0.4561690000000 1.0
C      1  0.4934860000000  0.4915890000000  0.4618450000000 1.0
C      1  0.5089230000000  0.4785710000000  0.5424740000000 1.0
C      1  0.5473610000000  0.5350800000000  0.5235790000000 1.0
C      1  0.5363270000000  0.5246500000000  0.5438950000000 1.0
C      1  0.5273530000000  0.5450760000000  0.5345360000000 1.0
C      1  0.4550420000000  0.5356100000000  0.4747770000000 1.0
C      1  0.4530760000000  0.4628560000000  0.5266970000000 1.0
C      1  0.5454900000000  0.4655890000000  0.4757260000000 1.0
C      1  0.4636630000000  0.5263050000000  0.4538230000000 1.0
C      1  0.4632050000000  0.4739010000000  0.5463400000000 1.0
C      1  0.5367740000000  0.4750330000000  0.4542720000000 1.0
C      1  0.4750990000000  0.5453380000000  0.4645040000000 1.0
C      1  0.4733320000000  0.4532980000000  0.5371590000000 1.0
C      1  0.5238690000000  0.4582870000000  0.4661910000000 1.0
C      1  0.5263100000000  0.5350470000000  0.5439620000000 1.0
C      1  0.5462860000000  0.5247260000000  0.5342540000000 1.0
C      1  0.5378990000000  0.5451420000000  0.5239510000000 1.0
C      1  0.4745880000000  0.5362810000000  0.4540290000000 1.0
C      1  0.5254340000000  0.4656560000000  0.4546260000000 1.0
C      1  0.4734980000000  0.4631890000000  0.5466770000000 1.0
C      1  0.4545410000000  0.5256750000000  0.4642380000000 1.0
C      1  0.5464050000000  0.4746000000000  0.4641790000000 1.0
C      1  0.4535560000000  0.4739360000000  0.5366300000000 1.0
C      1  0.4650130000000  0.5452610000000  0.4749320000000 1.0
C      1  0.5340350000000  0.4577680000000  0.4764470000000 1.0
C      1  0.4626960000000  0.4530970000000  0.5267370000000 1.0
END
