TITL C-114181-47-59 6.71920385289242 1000000 -1700.27020097859 0 0 240 (Th) n - 1
REM
REM in /home/chem/mssmkc/work/GAP20/Larger-Clusters/Only-C240/New/BUILD-ONLY
REM
REM
REM
REM
REM
REM ./C.cell (daee87de7206da95283bc1c1416dbc6f)
REM
REM compiler GCC version 8.3.0
REM options -cpp -mtune=generic -march=x86-64 -g -O0
REM seed -1962780762 -1826613522 216354664 2057593493 844385958 -2132663299 -158130177 -1648284933 -1443717626 -2082130904 -1464783818 1221678149 -428887013 387300983 794428560 579371502 1864356260 -2096740175 412304809 2056325008 -1187111734 1524078691 1502116160 610304477 1499179673 -1197393703 1822373841 1784325808 -1260436452 -57314224 1045122979 -1191134897 1124538743
REM
CELL 1.54180  100.00000  100.00000  100.00000   90.00000   90.00000   90.00000
LATT -1
SFAC C  
C      1  0.4611730000000  0.5679990000000  0.4927070000000 1.0
C      1  0.4927060000000  0.4611710000000  0.5679980000000 1.0
C      1  0.5679990000000  0.4927070000000  0.4611720000000 1.0
C      1  0.4611680000000  0.4320030000000  0.5072900000000 1.0
C      1  0.5388280000000  0.4320010000000  0.4927110000000 1.0
C      1  0.5388320000000  0.5679970000000  0.5072910000000 1.0
C      1  0.4927130000000  0.5388290000000  0.4320010000000 1.0
C      1  0.5072900000000  0.5388300000000  0.5679980000000 1.0
C      1  0.5072920000000  0.4611690000000  0.4320030000000 1.0
C      1  0.5679970000000  0.5072890000000  0.5388320000000 1.0
C      1  0.4320030000000  0.5072920000000  0.4611680000000 1.0
C      1  0.4320000000000  0.4927120000000  0.5388280000000 1.0
C      1  0.5388320000000  0.5679970000000  0.4927100000000 1.0
C      1  0.5072870000000  0.4611710000000  0.5679990000000 1.0
C      1  0.4320030000000  0.4927110000000  0.4611680000000 1.0
C      1  0.5388270000000  0.4320010000000  0.5072930000000 1.0
C      1  0.4611680000000  0.4320030000000  0.4927090000000 1.0
C      1  0.4611720000000  0.5679990000000  0.5072890000000 1.0
C      1  0.5072940000000  0.5388290000000  0.4320020000000 1.0
C      1  0.4927080000000  0.5388310000000  0.5679970000000 1.0
C      1  0.4927100000000  0.4611700000000  0.4320020000000 1.0
C      1  0.4320010000000  0.5072930000000  0.5388280000000 1.0
C      1  0.5680000000000  0.5072880000000  0.4611720000000 1.0
C      1  0.5679970000000  0.4927080000000  0.5388320000000 1.0
C      1  0.4215440000000  0.5075180000000  0.4710660000000 1.0
C      1  0.4710660000000  0.4215440000000  0.5075150000000 1.0
C      1  0.5075170000000  0.4710680000000  0.4215430000000 1.0
C      1  0.4215420000000  0.4924870000000  0.5289290000000 1.0
C      1  0.5784580000000  0.4924820000000  0.4710720000000 1.0
C      1  0.5784570000000  0.5075130000000  0.5289340000000 1.0
C      1  0.4710720000000  0.5784580000000  0.4924830000000 1.0
C      1  0.5289330000000  0.5784560000000  0.5075160000000 1.0
C      1  0.5289290000000  0.4215420000000  0.4924860000000 1.0
C      1  0.5075140000000  0.5289310000000  0.5784570000000 1.0
C      1  0.4924880000000  0.5289310000000  0.4215420000000 1.0
C      1  0.4924810000000  0.4710700000000  0.5784570000000 1.0
C      1  0.5784580000000  0.5075130000000  0.4710720000000 1.0
C      1  0.5289280000000  0.4215420000000  0.5075170000000 1.0
C      1  0.4924860000000  0.4710690000000  0.4215430000000 1.0
C      1  0.5784560000000  0.4924820000000  0.5289340000000 1.0
C      1  0.4215430000000  0.4924870000000  0.4710670000000 1.0
C      1  0.4215420000000  0.5075180000000  0.5289280000000 1.0
C      1  0.5289340000000  0.5784560000000  0.4924850000000 1.0
C      1  0.4710710000000  0.5784580000000  0.5075140000000 1.0
C      1  0.4710670000000  0.4215440000000  0.4924840000000 1.0
C      1  0.4924830000000  0.5289320000000  0.5784570000000 1.0
C      1  0.5075190000000  0.5289300000000  0.4215430000000 1.0
C      1  0.5075120000000  0.4710690000000  0.5784580000000 1.0
C      1  0.5074850000000  0.5146270000000  0.5765550000000 1.0
C      1  0.5765550000000  0.5074840000000  0.5146290000000 1.0
C      1  0.5146290000000  0.5765540000000  0.5074870000000 1.0
C      1  0.5074890000000  0.4853730000000  0.4234460000000 1.0
C      1  0.4925100000000  0.4853740000000  0.5765550000000 1.0
C      1  0.4925160000000  0.5146260000000  0.4234450000000 1.0
C      1  0.5765550000000  0.4925110000000  0.4853760000000 1.0
C      1  0.4234450000000  0.4925160000000  0.5146240000000 1.0
C      1  0.4234460000000  0.5074890000000  0.4853710000000 1.0
C      1  0.5146240000000  0.4234450000000  0.4925140000000 1.0
C      1  0.4853710000000  0.4234460000000  0.5074870000000 1.0
C      1  0.4853760000000  0.5765550000000  0.4925120000000 1.0
C      1  0.4925110000000  0.5146270000000  0.5765540000000 1.0
C      1  0.4234450000000  0.5074890000000  0.5146240000000 1.0
C      1  0.4853760000000  0.5765550000000  0.5074860000000 1.0
C      1  0.4925150000000  0.4853730000000  0.4234450000000 1.0
C      1  0.5074840000000  0.4853740000000  0.5765550000000 1.0
C      1  0.5074900000000  0.5146260000000  0.4234450000000 1.0
C      1  0.4234450000000  0.4925160000000  0.4853710000000 1.0
C      1  0.5765540000000  0.4925110000000  0.5146290000000 1.0
C      1  0.5765550000000  0.5074840000000  0.4853760000000 1.0
C      1  0.4853710000000  0.4234460000000  0.4925130000000 1.0
C      1  0.5146240000000  0.4234450000000  0.5074880000000 1.0
C      1  0.5146290000000  0.5765540000000  0.4925130000000 1.0
C      1  0.5363940000000  0.4733320000000  0.4633780000000 1.0
C      1  0.4633790000000  0.5363940000000  0.4733320000000 1.0
C      1  0.4733310000000  0.4633780000000  0.5363930000000 1.0
C      1  0.5363930000000  0.5266660000000  0.5366240000000 1.0
C      1  0.4636090000000  0.5266680000000  0.4633750000000 1.0
C      1  0.4636050000000  0.4733350000000  0.5366230000000 1.0
C      1  0.4633740000000  0.4636080000000  0.5266660000000 1.0
C      1  0.5366230000000  0.4636050000000  0.4733350000000 1.0
C      1  0.5366240000000  0.5363920000000  0.5266680000000 1.0
C      1  0.4733360000000  0.5366240000000  0.4636050000000 1.0
C      1  0.5266670000000  0.5366230000000  0.5363940000000 1.0
C      1  0.5266670000000  0.4633750000000  0.4636080000000 1.0
C      1  0.4636070000000  0.4733340000000  0.4633760000000 1.0
C      1  0.5366260000000  0.5363920000000  0.4733340000000 1.0
C      1  0.5266640000000  0.4633760000000  0.5363950000000 1.0
C      1  0.4636060000000  0.5266680000000  0.5366220000000 1.0
C      1  0.5363950000000  0.5266650000000  0.4633770000000 1.0
C      1  0.5363910000000  0.4733320000000  0.5366250000000 1.0
C      1  0.5366210000000  0.4636060000000  0.5266680000000 1.0
C      1  0.4633760000000  0.4636080000000  0.4733320000000 1.0
C      1  0.4633770000000  0.5363950000000  0.5266650000000 1.0
C      1  0.5266690000000  0.5366220000000  0.4636070000000 1.0
C      1  0.4733330000000  0.5366250000000  0.5363920000000 1.0
C      1  0.4733330000000  0.4633770000000  0.4636060000000 1.0
C      1  0.4928820000000  0.5521560000000  0.5366630000000 1.0
C      1  0.5366610000000  0.4928800000000  0.5521570000000 1.0
C      1  0.5521570000000  0.5366620000000  0.4928830000000 1.0
C      1  0.4928810000000  0.4478450000000  0.4633370000000 1.0
C      1  0.5071160000000  0.4478450000000  0.5366640000000 1.0
C      1  0.5071220000000  0.5521550000000  0.4633360000000 1.0
C      1  0.5366650000000  0.5071170000000  0.4478460000000 1.0
C      1  0.4633350000000  0.5071210000000  0.5521540000000 1.0
C      1  0.4633380000000  0.4928820000000  0.4478430000000 1.0
C      1  0.5521540000000  0.4633350000000  0.5071210000000 1.0
C      1  0.4478440000000  0.4633380000000  0.4928800000000 1.0
C      1  0.4478460000000  0.5366650000000  0.5071170000000 1.0
C      1  0.5071190000000  0.5521550000000  0.5366630000000 1.0
C      1  0.4633350000000  0.4928830000000  0.5521540000000 1.0
C      1  0.4478460000000  0.5366650000000  0.4928790000000 1.0
C      1  0.5071180000000  0.4478440000000  0.4633370000000 1.0
C      1  0.4928780000000  0.4478450000000  0.5366640000000 1.0
C      1  0.4928840000000  0.5521550000000  0.4633360000000 1.0
C      1  0.4633380000000  0.5071200000000  0.4478430000000 1.0
C      1  0.5366620000000  0.5071180000000  0.5521560000000 1.0
C      1  0.5366650000000  0.4928800000000  0.4478460000000 1.0
C      1  0.4478430000000  0.4633380000000  0.5071170000000 1.0
C      1  0.5521540000000  0.4633350000000  0.4928830000000 1.0
C      1  0.5521560000000  0.5366620000000  0.5071200000000 1.0
C      1  0.4840450000000  0.4570460000000  0.4564580000000 1.0
C      1  0.4564590000000  0.4840460000000  0.4570450000000 1.0
C      1  0.4570450000000  0.4564590000000  0.4840440000000 1.0
C      1  0.4840450000000  0.5429550000000  0.5435410000000 1.0
C      1  0.5159580000000  0.5429530000000  0.4564580000000 1.0
C      1  0.5159520000000  0.4570460000000  0.5435430000000 1.0
C      1  0.4564570000000  0.5159570000000  0.5429520000000 1.0
C      1  0.5435440000000  0.5159530000000  0.4570480000000 1.0
C      1  0.5435400000000  0.4840440000000  0.5429550000000 1.0
C      1  0.4570470000000  0.5435430000000  0.5159530000000 1.0
C      1  0.5429560000000  0.5435400000000  0.4840460000000 1.0
C      1  0.5429520000000  0.4564570000000  0.5159570000000 1.0
C      1  0.5159550000000  0.4570450000000  0.4564590000000 1.0
C      1  0.5435430000000  0.4840430000000  0.4570480000000 1.0
C      1  0.5429530000000  0.4564570000000  0.4840470000000 1.0
C      1  0.5159550000000  0.5429540000000  0.5435420000000 1.0
C      1  0.4840480000000  0.5429540000000  0.4564570000000 1.0
C      1  0.4840420000000  0.4570470000000  0.5435420000000 1.0
C      1  0.5435410000000  0.5159540000000  0.5429550000000 1.0
C      1  0.4564600000000  0.5159560000000  0.4570450000000 1.0
C      1  0.4564560000000  0.4840470000000  0.5429520000000 1.0
C      1  0.5429550000000  0.5435410000000  0.5159560000000 1.0
C      1  0.4570480000000  0.5435430000000  0.4840430000000 1.0
C      1  0.4570440000000  0.4564600000000  0.5159540000000 1.0
C      1  0.4729920000000  0.4411290000000  0.4753470000000 1.0
C      1  0.4753490000000  0.4729930000000  0.4411280000000 1.0
C      1  0.4411280000000  0.4753490000000  0.4729910000000 1.0
C      1  0.4729940000000  0.5588730000000  0.5246510000000 1.0
C      1  0.5270100000000  0.5588710000000  0.4753480000000 1.0
C      1  0.5270050000000  0.4411280000000  0.5246540000000 1.0
C      1  0.4753470000000  0.5270090000000  0.5588710000000 1.0
C      1  0.5246550000000  0.5270060000000  0.4411290000000 1.0
C      1  0.5246490000000  0.4729920000000  0.5588730000000 1.0
C      1  0.4411280000000  0.5246540000000  0.5270050000000 1.0
C      1  0.5588730000000  0.5246500000000  0.4729940000000 1.0
C      1  0.5588700000000  0.4753460000000  0.5270100000000 1.0
C      1  0.5270060000000  0.4411270000000  0.4753490000000 1.0
C      1  0.5246530000000  0.4729910000000  0.4411290000000 1.0
C      1  0.5588720000000  0.4753460000000  0.4729950000000 1.0
C      1  0.5270080000000  0.5588710000000  0.5246530000000 1.0
C      1  0.4729950000000  0.5588720000000  0.4753460000000 1.0
C      1  0.4729900000000  0.4411290000000  0.5246520000000 1.0
C      1  0.5246510000000  0.5270070000000  0.5588720000000 1.0
C      1  0.4753510000000  0.5270080000000  0.4411270000000 1.0
C      1  0.4753450000000  0.4729940000000  0.5588710000000 1.0
C      1  0.5588720000000  0.5246510000000  0.5270090000000 1.0
C      1  0.4411300000000  0.5246540000000  0.4729900000000 1.0
C      1  0.4411270000000  0.4753500000000  0.5270060000000 1.0
C      1  0.4394360000000  0.5265320000000  0.4860750000000 1.0
C      1  0.4860750000000  0.4394350000000  0.5265300000000 1.0
C      1  0.5265310000000  0.4860760000000  0.4394350000000 1.0
C      1  0.4394330000000  0.4734720000000  0.5139210000000 1.0
C      1  0.5605650000000  0.4734680000000  0.4860800000000 1.0
C      1  0.5605660000000  0.5265280000000  0.5139240000000 1.0
C      1  0.4860800000000  0.5605660000000  0.4734690000000 1.0
C      1  0.5139230000000  0.5605650000000  0.5265300000000 1.0
C      1  0.5139210000000  0.4394340000000  0.4734710000000 1.0
C      1  0.5265280000000  0.5139220000000  0.5605660000000 1.0
C      1  0.4734730000000  0.5139230000000  0.4394330000000 1.0
C      1  0.4734680000000  0.4860790000000  0.5605650000000 1.0
C      1  0.5605670000000  0.5265280000000  0.4860790000000 1.0
C      1  0.5139200000000  0.4394340000000  0.5265310000000 1.0
C      1  0.4734720000000  0.4860780000000  0.4394340000000 1.0
C      1  0.5605640000000  0.4734680000000  0.5139250000000 1.0
C      1  0.4394340000000  0.4734720000000  0.4860760000000 1.0
C      1  0.4394350000000  0.5265320000000  0.5139200000000 1.0
C      1  0.5139250000000  0.5605650000000  0.4734700000000 1.0
C      1  0.4860790000000  0.5605660000000  0.5265290000000 1.0
C      1  0.4860770000000  0.4394350000000  0.4734700000000 1.0
C      1  0.4734690000000  0.5139240000000  0.5605650000000 1.0
C      1  0.5265320000000  0.5139210000000  0.4394350000000 1.0
C      1  0.5265270000000  0.4860770000000  0.5605670000000 1.0
C      1  0.4828170000000  0.4929970000000  0.5693260000000 1.0
C      1  0.5693270000000  0.4828170000000  0.4929980000000 1.0
C      1  0.4929980000000  0.5693270000000  0.4828190000000 1.0
C      1  0.4828220000000  0.5070040000000  0.4306720000000 1.0
C      1  0.5171790000000  0.5070040000000  0.5693270000000 1.0
C      1  0.5171830000000  0.4929950000000  0.4306740000000 1.0
C      1  0.5693270000000  0.5171780000000  0.5070060000000 1.0
C      1  0.4306740000000  0.5171830000000  0.4929930000000 1.0
C      1  0.4306720000000  0.4828220000000  0.5070020000000 1.0
C      1  0.4929930000000  0.4306730000000  0.5171810000000 1.0
C      1  0.5070030000000  0.4306730000000  0.4828200000000 1.0
C      1  0.5070060000000  0.5693270000000  0.5171800000000 1.0
C      1  0.5171780000000  0.4929960000000  0.5693280000000 1.0
C      1  0.4306730000000  0.4828220000000  0.4929940000000 1.0
C      1  0.5070070000000  0.5693270000000  0.4828190000000 1.0
C      1  0.5171830000000  0.5070030000000  0.4306740000000 1.0
C      1  0.4828170000000  0.5070050000000  0.5693260000000 1.0
C      1  0.4828210000000  0.4929960000000  0.4306730000000 1.0
C      1  0.4306730000000  0.5171830000000  0.5070020000000 1.0
C      1  0.5693280000000  0.5171780000000  0.4929980000000 1.0
C      1  0.5693260000000  0.4828170000000  0.5070070000000 1.0
C      1  0.5070020000000  0.4306730000000  0.5171810000000 1.0
C      1  0.4929940000000  0.4306730000000  0.4828200000000 1.0
C      1  0.4929970000000  0.5693270000000  0.5171800000000 1.0
C      1  0.5159300000000  0.5372950000000  0.4432750000000 1.0
C      1  0.4432740000000  0.5159290000000  0.5372940000000 1.0
C      1  0.5372940000000  0.4432730000000  0.5159290000000 1.0
C      1  0.5159240000000  0.4627030000000  0.5567260000000 1.0
C      1  0.4840740000000  0.4627040000000  0.4432740000000 1.0
C      1  0.4840720000000  0.5372970000000  0.5567250000000 1.0
C      1  0.4432750000000  0.4840740000000  0.4627020000000 1.0
C      1  0.5567240000000  0.4840710000000  0.5372980000000 1.0
C      1  0.5567270000000  0.5159250000000  0.4627050000000 1.0
C      1  0.5372990000000  0.5567240000000  0.4840740000000 1.0
C      1  0.4627050000000  0.5567270000000  0.5159250000000 1.0
C      1  0.4627020000000  0.4432750000000  0.4840720000000 1.0
C      1  0.4840760000000  0.5372960000000  0.4432740000000 1.0
C      1  0.5567250000000  0.5159260000000  0.5372980000000 1.0
C      1  0.4627010000000  0.4432760000000  0.5159260000000 1.0
C      1  0.4840700000000  0.4627050000000  0.5567250000000 1.0
C      1  0.5159280000000  0.4627030000000  0.4432750000000 1.0
C      1  0.5159270000000  0.5372960000000  0.5567260000000 1.0
C      1  0.5567260000000  0.4840710000000  0.4627060000000 1.0
C      1  0.4432730000000  0.4840750000000  0.5372950000000 1.0
C      1  0.4432760000000  0.5159290000000  0.4627020000000 1.0
C      1  0.4627060000000  0.5567270000000  0.4840710000000 1.0
C      1  0.5372980000000  0.5567250000000  0.5159280000000 1.0
C      1  0.5372950000000  0.4432730000000  0.4840750000000 1.0
END
