TITL C-114179-1211-57 -0.00913454707301476 1000000 -1713.49290974484 0 0 240 (Oh) n - 1
REM
REM in /home/chem/mssmkc/work/GAP20/Larger-Clusters/Only-C240/New/BUILD-ONLY
REM
REM
REM
REM
REM
REM ./C.cell (daee87de7206da95283bc1c1416dbc6f)
REM
REM compiler GCC version 8.3.0
REM options -cpp -mtune=generic -march=x86-64 -g -O0
REM seed -1678817929 174393773 -1668645631 524303272 101947905 1602364162 -1210627853 208430010 121987396 -191735830 -1299651337 -2062971593 2018610287 956952414 1663068724 -1080872889 -737131425 250126301 -1619466212 -1428035424 -678464727 284882708 -6950844 -400181816 -1380781629 1769543844 1251832968 -755625557 430404570 -1822358229 745277577 -1516208301 815570714
REM
CELL 1.54180  100.00000  100.00000  100.00000   90.00000   90.00000   90.00000
LATT -1
SFAC C  
C      1  0.4920430000000  0.5408850000000  0.5408840000000 1.0
C      1  0.5408840000000  0.5408830000000  0.4920350000000 1.0
C      1  0.5408870000000  0.4920380000000  0.5408810000000 1.0
C      1  0.5079640000000  0.4591160000000  0.5408840000000 1.0
C      1  0.4920340000000  0.4591160000000  0.4591170000000 1.0
C      1  0.5079590000000  0.5408830000000  0.4591150000000 1.0
C      1  0.4591140000000  0.4591170000000  0.4920420000000 1.0
C      1  0.5408840000000  0.4591150000000  0.5079590000000 1.0
C      1  0.4591180000000  0.5408850000000  0.5079640000000 1.0
C      1  0.4591190000000  0.5079630000000  0.5408870000000 1.0
C      1  0.5408810000000  0.5079600000000  0.4591130000000 1.0
C      1  0.4591130000000  0.4920390000000  0.4591190000000 1.0
C      1  0.4920360000000  0.5408840000000  0.4591160000000 1.0
C      1  0.5408860000000  0.5408830000000  0.5079580000000 1.0
C      1  0.5408810000000  0.4920370000000  0.4591130000000 1.0
C      1  0.5079570000000  0.4591150000000  0.4591160000000 1.0
C      1  0.4920410000000  0.4591170000000  0.5408850000000 1.0
C      1  0.5079660000000  0.5408840000000  0.5408830000000 1.0
C      1  0.4591160000000  0.4591170000000  0.5079650000000 1.0
C      1  0.5408820000000  0.4591150000000  0.4920360000000 1.0
C      1  0.4591160000000  0.5408850000000  0.4920410000000 1.0
C      1  0.4591130000000  0.5079620000000  0.4591190000000 1.0
C      1  0.5408870000000  0.5079610000000  0.5408810000000 1.0
C      1  0.4591190000000  0.4920400000000  0.5408870000000 1.0
C      1  0.5476690000000  0.5378440000000  0.5378400000000 1.0
C      1  0.5378490000000  0.5378440000000  0.5476620000000 1.0
C      1  0.5378480000000  0.5476650000000  0.5378410000000 1.0
C      1  0.4523370000000  0.4621570000000  0.5378480000000 1.0
C      1  0.5476620000000  0.4621540000000  0.4621530000000 1.0
C      1  0.4523330000000  0.5378450000000  0.4621590000000 1.0
C      1  0.4621590000000  0.4621570000000  0.5476690000000 1.0
C      1  0.5378400000000  0.4621540000000  0.4523320000000 1.0
C      1  0.4621530000000  0.5378440000000  0.4523370000000 1.0
C      1  0.4621580000000  0.4523360000000  0.5378480000000 1.0
C      1  0.5378400000000  0.4523330000000  0.4621540000000 1.0
C      1  0.4621540000000  0.5476660000000  0.4621580000000 1.0
C      1  0.5476630000000  0.5378430000000  0.4621520000000 1.0
C      1  0.5378410000000  0.5378430000000  0.4523310000000 1.0
C      1  0.5378420000000  0.5476640000000  0.4621520000000 1.0
C      1  0.4523310000000  0.4621560000000  0.4621600000000 1.0
C      1  0.5476670000000  0.4621550000000  0.5378410000000 1.0
C      1  0.4523380000000  0.5378460000000  0.5378470000000 1.0
C      1  0.4621510000000  0.4621560000000  0.4523380000000 1.0
C      1  0.5378470000000  0.4621560000000  0.5476630000000 1.0
C      1  0.4621600000000  0.5378460000000  0.5476680000000 1.0
C      1  0.4621520000000  0.4523350000000  0.4621590000000 1.0
C      1  0.5378460000000  0.4523340000000  0.5378420000000 1.0
C      1  0.4621600000000  0.5476670000000  0.5378460000000 1.0
C      1  0.5327470000000  0.4854070000000  0.4483550000000 1.0
C      1  0.4854100000000  0.4483580000000  0.5327530000000 1.0
C      1  0.4483570000000  0.5327520000000  0.4854120000000 1.0
C      1  0.4672450000000  0.5145910000000  0.4483590000000 1.0
C      1  0.5327550000000  0.5145910000000  0.5516400000000 1.0
C      1  0.4672530000000  0.4854100000000  0.5516460000000 1.0
C      1  0.5145950000000  0.5516430000000  0.5327490000000 1.0
C      1  0.4854070000000  0.5516430000000  0.4672490000000 1.0
C      1  0.5145880000000  0.4483560000000  0.4672490000000 1.0
C      1  0.5516410000000  0.4672480000000  0.4854050000000 1.0
C      1  0.4483570000000  0.4672500000000  0.5145960000000 1.0
C      1  0.5516450000000  0.5327500000000  0.5145870000000 1.0
C      1  0.5327550000000  0.4854090000000  0.5516410000000 1.0
C      1  0.4854050000000  0.4483570000000  0.4672510000000 1.0
C      1  0.4483590000000  0.5327520000000  0.5145950000000 1.0
C      1  0.4672530000000  0.5145930000000  0.5516450000000 1.0
C      1  0.5327470000000  0.5145900000000  0.4483540000000 1.0
C      1  0.4672450000000  0.4854090000000  0.4483600000000 1.0
C      1  0.5145900000000  0.5516420000000  0.4672470000000 1.0
C      1  0.4854120000000  0.5516440000000  0.5327510000000 1.0
C      1  0.5145930000000  0.4483570000000  0.5327510000000 1.0
C      1  0.5516430000000  0.4672480000000  0.5145880000000 1.0
C      1  0.4483550000000  0.4672500000000  0.4854130000000 1.0
C      1  0.5516430000000  0.5327500000000  0.4854040000000 1.0
C      1  0.4927400000000  0.4232410000000  0.5072610000000 1.0
C      1  0.4232400000000  0.5072600000000  0.4927470000000 1.0
C      1  0.5072530000000  0.4927400000000  0.4232400000000 1.0
C      1  0.5072610000000  0.5767590000000  0.5072570000000 1.0
C      1  0.4927420000000  0.5767590000000  0.4927410000000 1.0
C      1  0.5072560000000  0.4232400000000  0.4927420000000 1.0
C      1  0.5767590000000  0.4927390000000  0.4927350000000 1.0
C      1  0.4232410000000  0.4927430000000  0.5072650000000 1.0
C      1  0.5767600000000  0.5072570000000  0.5072530000000 1.0
C      1  0.4927360000000  0.5072580000000  0.4232410000000 1.0
C      1  0.5072650000000  0.5072600000000  0.5767590000000 1.0
C      1  0.4927470000000  0.4927430000000  0.5767600000000 1.0
C      1  0.4927390000000  0.4232410000000  0.4927430000000 1.0
C      1  0.4232410000000  0.5072610000000  0.5072650000000 1.0
C      1  0.5072640000000  0.4927420000000  0.5767590000000 1.0
C      1  0.5072600000000  0.5767590000000  0.4927390000000 1.0
C      1  0.4927440000000  0.5767600000000  0.5072580000000 1.0
C      1  0.5072580000000  0.4232410000000  0.5072590000000 1.0
C      1  0.5767600000000  0.4927400000000  0.5072530000000 1.0
C      1  0.4232400000000  0.4927430000000  0.4927470000000 1.0
C      1  0.5767590000000  0.5072570000000  0.4927350000000 1.0
C      1  0.4927470000000  0.5072600000000  0.5767600000000 1.0
C      1  0.5072530000000  0.5072570000000  0.4232400000000 1.0
C      1  0.4927350000000  0.4927400000000  0.4232410000000 1.0
C      1  0.5296330000000  0.5062930000000  0.5296280000000 1.0
C      1  0.5062960000000  0.5296310000000  0.5296300000000 1.0
C      1  0.5296320000000  0.5296300000000  0.5062900000000 1.0
C      1  0.4703720000000  0.4937080000000  0.5296330000000 1.0
C      1  0.5296280000000  0.4937060000000  0.4703670000000 1.0
C      1  0.4703670000000  0.5062930000000  0.4703720000000 1.0
C      1  0.4937090000000  0.4703700000000  0.5296310000000 1.0
C      1  0.5062900000000  0.4703690000000  0.4703690000000 1.0
C      1  0.4937060000000  0.5296300000000  0.4703690000000 1.0
C      1  0.4703690000000  0.4703700000000  0.5062960000000 1.0
C      1  0.5296290000000  0.4703690000000  0.4937050000000 1.0
C      1  0.4703700000000  0.5296310000000  0.4937090000000 1.0
C      1  0.5296280000000  0.5062920000000  0.4703670000000 1.0
C      1  0.5062910000000  0.5296300000000  0.4703690000000 1.0
C      1  0.5296310000000  0.5296300000000  0.4937040000000 1.0
C      1  0.4703670000000  0.4937070000000  0.4703720000000 1.0
C      1  0.5296330000000  0.4937070000000  0.5296280000000 1.0
C      1  0.4703720000000  0.5062940000000  0.5296330000000 1.0
C      1  0.4937040000000  0.4703690000000  0.4703700000000 1.0
C      1  0.5062940000000  0.4703700000000  0.5296310000000 1.0
C      1  0.4937100000000  0.5296310000000  0.5296310000000 1.0
C      1  0.4703680000000  0.4703700000000  0.4937100000000 1.0
C      1  0.5296300000000  0.4703690000000  0.5062910000000 1.0
C      1  0.4703710000000  0.5296310000000  0.5062950000000 1.0
C      1  0.4714270000000  0.5513420000000  0.4714300000000 1.0
C      1  0.5513390000000  0.4714270000000  0.4714250000000 1.0
C      1  0.4714320000000  0.4714300000000  0.5513450000000 1.0
C      1  0.5285680000000  0.4486570000000  0.4714270000000 1.0
C      1  0.4714290000000  0.4486590000000  0.5285750000000 1.0
C      1  0.5285750000000  0.5513420000000  0.5285690000000 1.0
C      1  0.4486560000000  0.5285720000000  0.4714320000000 1.0
C      1  0.5513450000000  0.5285710000000  0.5285670000000 1.0
C      1  0.4486600000000  0.4714300000000  0.5285760000000 1.0
C      1  0.5285760000000  0.5285720000000  0.5513390000000 1.0
C      1  0.4714250000000  0.5285710000000  0.4486600000000 1.0
C      1  0.5285670000000  0.4714270000000  0.4486560000000 1.0
C      1  0.4714320000000  0.5513430000000  0.5285730000000 1.0
C      1  0.5513440000000  0.4714280000000  0.5285680000000 1.0
C      1  0.4714240000000  0.4714280000000  0.4486610000000 1.0
C      1  0.5285730000000  0.4486580000000  0.5285700000000 1.0
C      1  0.4714250000000  0.4486580000000  0.4714310000000 1.0
C      1  0.5285710000000  0.5513410000000  0.4714250000000 1.0
C      1  0.4486610000000  0.5285730000000  0.5285750000000 1.0
C      1  0.5513400000000  0.5285700000000  0.4714240000000 1.0
C      1  0.4486550000000  0.4714290000000  0.4714330000000 1.0
C      1  0.5285680000000  0.5285700000000  0.4486550000000 1.0
C      1  0.4714330000000  0.5285730000000  0.5513440000000 1.0
C      1  0.5285750000000  0.4714290000000  0.5513400000000 1.0
C      1  0.5143130000000  0.4326630000000  0.4856850000000 1.0
C      1  0.4326640000000  0.4856860000000  0.5143210000000 1.0
C      1  0.4856800000000  0.5143150000000  0.4326640000000 1.0
C      1  0.4856850000000  0.5673370000000  0.4856850000000 1.0
C      1  0.5143180000000  0.5673360000000  0.5143130000000 1.0
C      1  0.4856840000000  0.4326640000000  0.5143180000000 1.0
C      1  0.5673380000000  0.5143140000000  0.5143100000000 1.0
C      1  0.4326630000000  0.5143170000000  0.4856900000000 1.0
C      1  0.5673350000000  0.4856830000000  0.4856800000000 1.0
C      1  0.5143100000000  0.4856830000000  0.4326630000000 1.0
C      1  0.4856890000000  0.4856860000000  0.5673380000000 1.0
C      1  0.5143210000000  0.5143160000000  0.5673350000000 1.0
C      1  0.5143150000000  0.4326630000000  0.5143150000000 1.0
C      1  0.4326620000000  0.4856860000000  0.4856900000000 1.0
C      1  0.4856900000000  0.5143170000000  0.5673370000000 1.0
C      1  0.4856870000000  0.5673370000000  0.5143150000000 1.0
C      1  0.5143160000000  0.5673360000000  0.4856820000000 1.0
C      1  0.4856820000000  0.4326640000000  0.4856870000000 1.0
C      1  0.5673360000000  0.5143140000000  0.4856790000000 1.0
C      1  0.4326650000000  0.5143170000000  0.5143200000000 1.0
C      1  0.5673370000000  0.4856830000000  0.5143100000000 1.0
C      1  0.5143200000000  0.4856850000000  0.5673360000000 1.0
C      1  0.4856790000000  0.4856840000000  0.4326650000000 1.0
C      1  0.5143110000000  0.5143140000000  0.4326620000000 1.0
C      1  0.5516450000000  0.4854080000000  0.5327470000000 1.0
C      1  0.4854130000000  0.5327520000000  0.5516440000000 1.0
C      1  0.5327510000000  0.5516420000000  0.4854050000000 1.0
C      1  0.4483600000000  0.5145930000000  0.5327550000000 1.0
C      1  0.5516410000000  0.5145900000000  0.4672450000000 1.0
C      1  0.4483540000000  0.4854090000000  0.4672530000000 1.0
C      1  0.5145950000000  0.4672500000000  0.5516430000000 1.0
C      1  0.4854040000000  0.4672490000000  0.4483580000000 1.0
C      1  0.5145880000000  0.5327500000000  0.4483550000000 1.0
C      1  0.4672470000000  0.4483570000000  0.4854120000000 1.0
C      1  0.5327510000000  0.4483560000000  0.5145900000000 1.0
C      1  0.4672510000000  0.5516440000000  0.5145930000000 1.0
C      1  0.5516400000000  0.4854070000000  0.4672450000000 1.0
C      1  0.4854050000000  0.5327500000000  0.4483570000000 1.0
C      1  0.5327530000000  0.5516430000000  0.5145880000000 1.0
C      1  0.4483550000000  0.5145920000000  0.4672530000000 1.0
C      1  0.5516460000000  0.5145910000000  0.5327470000000 1.0
C      1  0.4483590000000  0.4854100000000  0.5327550000000 1.0
C      1  0.5145870000000  0.4672480000000  0.4483560000000 1.0
C      1  0.4854120000000  0.4672500000000  0.5516450000000 1.0
C      1  0.5145960000000  0.5327510000000  0.5516420000000 1.0
C      1  0.4672490000000  0.4483580000000  0.5145950000000 1.0
C      1  0.5327490000000  0.4483560000000  0.4854070000000 1.0
C      1  0.4672490000000  0.5516440000000  0.4854100000000 1.0
C      1  0.5249120000000  0.5071830000000  0.5603830000000 1.0
C      1  0.5071860000000  0.5603850000000  0.5249060000000 1.0
C      1  0.5603860000000  0.5249060000000  0.5071780000000 1.0
C      1  0.4750970000000  0.4928190000000  0.5603870000000 1.0
C      1  0.5249030000000  0.4928160000000  0.4396130000000 1.0
C      1  0.4750880000000  0.5071820000000  0.4396170000000 1.0
C      1  0.4928180000000  0.4396150000000  0.5249090000000 1.0
C      1  0.5071800000000  0.4396140000000  0.4750930000000 1.0
C      1  0.4928170000000  0.5603850000000  0.4750920000000 1.0
C      1  0.4396150000000  0.4750940000000  0.5071880000000 1.0
C      1  0.5603840000000  0.4750910000000  0.4928130000000 1.0
C      1  0.4396150000000  0.5249090000000  0.4928210000000 1.0
C      1  0.5249030000000  0.5071810000000  0.4396130000000 1.0
C      1  0.5071820000000  0.5603850000000  0.4750910000000 1.0
C      1  0.5603850000000  0.5249060000000  0.4928120000000 1.0
C      1  0.4750880000000  0.4928170000000  0.4396170000000 1.0
C      1  0.5249120000000  0.4928180000000  0.5603830000000 1.0
C      1  0.4750970000000  0.5071840000000  0.5603870000000 1.0
C      1  0.4928140000000  0.4396150000000  0.4750940000000 1.0
C      1  0.5071830000000  0.4396150000000  0.5249080000000 1.0
C      1  0.4928200000000  0.5603860000000  0.5249070000000 1.0
C      1  0.4396140000000  0.4750940000000  0.4928220000000 1.0
C      1  0.5603850000000  0.4750910000000  0.5071790000000 1.0
C      1  0.4396160000000  0.5249090000000  0.5071870000000 1.0
C      1  0.5603870000000  0.4928160000000  0.5249030000000 1.0
C      1  0.4928220000000  0.5249090000000  0.5603850000000 1.0
C      1  0.5249080000000  0.5603840000000  0.4928140000000 1.0
C      1  0.4396170000000  0.5071850000000  0.5249120000000 1.0
C      1  0.5603830000000  0.5071810000000  0.4750880000000 1.0
C      1  0.4396130000000  0.4928180000000  0.4750970000000 1.0
C      1  0.5071870000000  0.4750930000000  0.5603850000000 1.0
C      1  0.4928120000000  0.4750920000000  0.4396160000000 1.0
C      1  0.5071790000000  0.5249060000000  0.4396140000000 1.0
C      1  0.4750910000000  0.4396150000000  0.4928200000000 1.0
C      1  0.5249070000000  0.4396140000000  0.5071820000000 1.0
C      1  0.4750940000000  0.5603860000000  0.5071840000000 1.0
C      1  0.5603830000000  0.4928150000000  0.4750880000000 1.0
C      1  0.4928130000000  0.5249070000000  0.4396150000000 1.0
C      1  0.5249090000000  0.5603850000000  0.5071800000000 1.0
C      1  0.4396130000000  0.5071840000000  0.4750970000000 1.0
C      1  0.5603870000000  0.5071820000000  0.5249030000000 1.0
C      1  0.4396170000000  0.4928190000000  0.5249120000000 1.0
C      1  0.5071780000000  0.4750910000000  0.4396150000000 1.0
C      1  0.4928210000000  0.4750940000000  0.5603860000000 1.0
C      1  0.5071880000000  0.5249080000000  0.5603840000000 1.0
C      1  0.4750920000000  0.4396160000000  0.5071860000000 1.0
C      1  0.5249060000000  0.4396140000000  0.4928160000000 1.0
C      1  0.4750930000000  0.5603860000000  0.4928180000000 1.0
END
