TITL C-114181-47-86 -8.19947850220346 1000000 -1640.2992259419 0 0 240 (Th) n - 1
REM
REM in /home/chem/mssmkc/work/GAP20/Larger-Clusters/Only-C240/New/BUILD-ONLY
REM
REM
REM
REM
REM
REM ./C.cell (daee87de7206da95283bc1c1416dbc6f)
REM
REM compiler GCC version 8.3.0
REM options -cpp -mtune=generic -march=x86-64 -g -O0
REM seed 451459933 39212261 1648246563 983231600 -1223435575 -800987522 901506138 544811803 -560287226 -1315617292 981459173 1040402638 135811073 -124281372 1351768608 -382707019 -973861240 1204275767 -1381317485 741107640 -73713576 548608759 -1959410527 -159512574 -1936215371 -192820116 548792541 -748359602 -1777603867 331472689 -999062077 -1416369672 676035732
REM
CELL 1.54180  100.00000  100.00000  100.00000   90.00000   90.00000   90.00000
LATT -1
SFAC C  
C      1  0.4927790000000  0.5654300000000  0.5073050000000 1.0
C      1  0.5654300000000  0.5073070000000  0.4927840000000 1.0
C      1  0.5073030000000  0.4927820000000  0.5654310000000 1.0
C      1  0.5072120000000  0.5654320000000  0.4926990000000 1.0
C      1  0.5072210000000  0.4345690000000  0.5073010000000 1.0
C      1  0.4927880000000  0.4345690000000  0.4926950000000 1.0
C      1  0.4345690000000  0.5072980000000  0.5072170000000 1.0
C      1  0.4345700000000  0.4926930000000  0.4927830000000 1.0
C      1  0.5654310000000  0.4927020000000  0.5072170000000 1.0
C      1  0.4926980000000  0.4927850000000  0.4345690000000 1.0
C      1  0.4926960000000  0.5072140000000  0.5654310000000 1.0
C      1  0.5073030000000  0.5072190000000  0.4345690000000 1.0
C      1  0.4927880000000  0.4345680000000  0.5073010000000 1.0
C      1  0.5654310000000  0.4927020000000  0.4927830000000 1.0
C      1  0.5073020000000  0.5072150000000  0.5654310000000 1.0
C      1  0.5072210000000  0.4345700000000  0.4926950000000 1.0
C      1  0.5072120000000  0.5654310000000  0.5073050000000 1.0
C      1  0.4927790000000  0.5654310000000  0.4926990000000 1.0
C      1  0.4345700000000  0.4926930000000  0.5072160000000 1.0
C      1  0.4345690000000  0.5072980000000  0.4927830000000 1.0
C      1  0.5654300000000  0.5073070000000  0.5072170000000 1.0
C      1  0.4926970000000  0.5072180000000  0.4345690000000 1.0
C      1  0.4926970000000  0.4927810000000  0.5654310000000 1.0
C      1  0.5073040000000  0.4927860000000  0.4345690000000 1.0
C      1  0.4603620000000  0.4928180000000  0.5239680000000 1.0
C      1  0.4928200000000  0.5239690000000  0.4603630000000 1.0
C      1  0.5239710000000  0.4603640000000  0.4928200000000 1.0
C      1  0.5396390000000  0.4928250000000  0.4760320000000 1.0
C      1  0.5396370000000  0.5071810000000  0.5239690000000 1.0
C      1  0.4603620000000  0.5071760000000  0.4760320000000 1.0
C      1  0.5071770000000  0.5239680000000  0.5396390000000 1.0
C      1  0.5071800000000  0.4760330000000  0.4603610000000 1.0
C      1  0.4928230000000  0.4760300000000  0.5396370000000 1.0
C      1  0.4760340000000  0.4603600000000  0.5071770000000 1.0
C      1  0.4760290000000  0.5396370000000  0.4928230000000 1.0
C      1  0.5239650000000  0.5396390000000  0.5071800000000 1.0
C      1  0.4603610000000  0.5071750000000  0.5239680000000 1.0
C      1  0.4928230000000  0.4760320000000  0.4603610000000 1.0
C      1  0.5239660000000  0.5396400000000  0.4928230000000 1.0
C      1  0.5396380000000  0.5071820000000  0.4760320000000 1.0
C      1  0.5396380000000  0.4928240000000  0.5239680000000 1.0
C      1  0.4603630000000  0.4928200000000  0.4760310000000 1.0
C      1  0.5071800000000  0.4760310000000  0.5396370000000 1.0
C      1  0.5071770000000  0.5239700000000  0.4603630000000 1.0
C      1  0.4928200000000  0.5239670000000  0.5396390000000 1.0
C      1  0.4760290000000  0.5396360000000  0.5071790000000 1.0
C      1  0.4760350000000  0.4603610000000  0.4928200000000 1.0
C      1  0.5239710000000  0.4603630000000  0.5071770000000 1.0
C      1  0.5073330000000  0.4630990000000  0.4680920000000 1.0
C      1  0.4630990000000  0.4680900000000  0.5073290000000 1.0
C      1  0.4680930000000  0.5073290000000  0.4630970000000 1.0
C      1  0.4926720000000  0.4630960000000  0.5319060000000 1.0
C      1  0.4926680000000  0.5369030000000  0.4680940000000 1.0
C      1  0.5073270000000  0.5369020000000  0.5319080000000 1.0
C      1  0.5369050000000  0.4680960000000  0.4926690000000 1.0
C      1  0.5369010000000  0.5319090000000  0.5073310000000 1.0
C      1  0.4630950000000  0.5319050000000  0.4926710000000 1.0
C      1  0.5319060000000  0.5073310000000  0.5369030000000 1.0
C      1  0.5319080000000  0.4926730000000  0.4630970000000 1.0
C      1  0.4680930000000  0.4926670000000  0.5369030000000 1.0
C      1  0.5073280000000  0.5369040000000  0.4680940000000 1.0
C      1  0.4630950000000  0.5319040000000  0.5073310000000 1.0
C      1  0.4680940000000  0.4926690000000  0.4630970000000 1.0
C      1  0.4926670000000  0.5369010000000  0.5319080000000 1.0
C      1  0.4926730000000  0.4630980000000  0.4680920000000 1.0
C      1  0.5073320000000  0.4630970000000  0.5319060000000 1.0
C      1  0.5369010000000  0.5319100000000  0.4926710000000 1.0
C      1  0.5369050000000  0.4680950000000  0.5073290000000 1.0
C      1  0.4630990000000  0.4680910000000  0.4926690000000 1.0
C      1  0.5319070000000  0.4926710000000  0.5369030000000 1.0
C      1  0.5319070000000  0.5073330000000  0.4630970000000 1.0
C      1  0.4680920000000  0.5073270000000  0.5369030000000 1.0
C      1  0.5519790000000  0.5179210000000  0.4610030000000 1.0
C      1  0.5179190000000  0.4610020000000  0.5519790000000 1.0
C      1  0.4609990000000  0.5519770000000  0.5179180000000 1.0
C      1  0.4480180000000  0.5179120000000  0.5389980000000 1.0
C      1  0.4480210000000  0.4820810000000  0.4610020000000 1.0
C      1  0.5519820000000  0.4820860000000  0.5389970000000 1.0
C      1  0.4820860000000  0.4610030000000  0.4480180000000 1.0
C      1  0.4820800000000  0.5389950000000  0.5519820000000 1.0
C      1  0.5179140000000  0.5390000000000  0.4480210000000 1.0
C      1  0.5389940000000  0.5519840000000  0.4820850000000 1.0
C      1  0.5390010000000  0.4480220000000  0.5179150000000 1.0
C      1  0.4610060000000  0.4480170000000  0.4820820000000 1.0
C      1  0.5519820000000  0.4820880000000  0.4610020000000 1.0
C      1  0.5179140000000  0.5389970000000  0.5519820000000 1.0
C      1  0.4610060000000  0.4480160000000  0.5179150000000 1.0
C      1  0.4480210000000  0.4820790000000  0.5389970000000 1.0
C      1  0.4480180000000  0.5179140000000  0.4610030000000 1.0
C      1  0.5519790000000  0.5179190000000  0.5389980000000 1.0
C      1  0.4820810000000  0.5389980000000  0.4480210000000 1.0
C      1  0.4820860000000  0.4610000000000  0.5519790000000 1.0
C      1  0.5179190000000  0.4610050000000  0.4480180000000 1.0
C      1  0.5390010000000  0.4480230000000  0.4820820000000 1.0
C      1  0.5389940000000  0.5519830000000  0.5179180000000 1.0
C      1  0.4609990000000  0.5519780000000  0.4820850000000 1.0
C      1  0.4859310000000  0.4742990000000  0.4479980000000 1.0
C      1  0.4743020000000  0.4479970000000  0.4859270000000 1.0
C      1  0.4480000000000  0.4859260000000  0.4742980000000 1.0
C      1  0.5140730000000  0.4742980000000  0.5520000000000 1.0
C      1  0.5140700000000  0.5257040000000  0.4480000000000 1.0
C      1  0.4859270000000  0.5256990000000  0.5520020000000 1.0
C      1  0.5257050000000  0.4480000000000  0.5140700000000 1.0
C      1  0.5256980000000  0.5520030000000  0.4859300000000 1.0
C      1  0.4742950000000  0.5519990000000  0.5140730000000 1.0
C      1  0.5520020000000  0.4859320000000  0.5257010000000 1.0
C      1  0.5520000000000  0.5140760000000  0.4742990000000 1.0
C      1  0.4479980000000  0.5140670000000  0.5257020000000 1.0
C      1  0.4859270000000  0.5257020000000  0.4480000000000 1.0
C      1  0.4742950000000  0.5520000000000  0.4859300000000 1.0
C      1  0.4479980000000  0.5140690000000  0.4742990000000 1.0
C      1  0.5140690000000  0.5257010000000  0.5520020000000 1.0
C      1  0.5140730000000  0.4743010000000  0.4479980000000 1.0
C      1  0.4859300000000  0.4742960000000  0.5520000000000 1.0
C      1  0.5256980000000  0.5520030000000  0.5140730000000 1.0
C      1  0.5257050000000  0.4480010000000  0.4859270000000 1.0
C      1  0.4743020000000  0.4479970000000  0.5140700000000 1.0
C      1  0.5520000000000  0.5140740000000  0.5257020000000 1.0
C      1  0.5520020000000  0.4859330000000  0.4742980000000 1.0
C      1  0.4480000000000  0.4859240000000  0.5257010000000 1.0
C      1  0.5300820000000  0.4926270000000  0.5571200000000 1.0
C      1  0.4926220000000  0.5571180000000  0.5300840000000 1.0
C      1  0.5571180000000  0.5300860000000  0.4926280000000 1.0
C      1  0.4699190000000  0.4926260000000  0.4428800000000 1.0
C      1  0.4699170000000  0.5073700000000  0.5571200000000 1.0
C      1  0.5300820000000  0.5073770000000  0.4428810000000 1.0
C      1  0.5073700000000  0.5571210000000  0.4699200000000 1.0
C      1  0.5073770000000  0.4428800000000  0.5300810000000 1.0
C      1  0.4926300000000  0.4428810000000  0.4699160000000 1.0
C      1  0.4428780000000  0.5300780000000  0.5073740000000 1.0
C      1  0.4428820000000  0.4699140000000  0.4926250000000 1.0
C      1  0.5571220000000  0.4699210000000  0.5073730000000 1.0
C      1  0.5300810000000  0.5073740000000  0.5571200000000 1.0
C      1  0.4926300000000  0.4428790000000  0.5300800000000 1.0
C      1  0.5571220000000  0.4699220000000  0.4926260000000 1.0
C      1  0.4699180000000  0.5073730000000  0.4428800000000 1.0
C      1  0.4699180000000  0.4926230000000  0.5571190000000 1.0
C      1  0.5300830000000  0.4926300000000  0.4428800000000 1.0
C      1  0.5073780000000  0.4428820000000  0.4699160000000 1.0
C      1  0.5073700000000  0.5571190000000  0.5300840000000 1.0
C      1  0.4926230000000  0.5571200000000  0.4699190000000 1.0
C      1  0.4428820000000  0.4699140000000  0.5073720000000 1.0
C      1  0.4428780000000  0.5300790000000  0.4926270000000 1.0
C      1  0.5571180000000  0.5300860000000  0.5073750000000 1.0
C      1  0.5596570000000  0.4822400000000  0.5143890000000 1.0
C      1  0.4822350000000  0.5143870000000  0.5596560000000 1.0
C      1  0.5143860000000  0.5596580000000  0.4822380000000 1.0
C      1  0.4403450000000  0.4822330000000  0.4856100000000 1.0
C      1  0.4403430000000  0.5177590000000  0.5143900000000 1.0
C      1  0.5596550000000  0.5177680000000  0.4856110000000 1.0
C      1  0.5177630000000  0.5143930000000  0.4403440000000 1.0
C      1  0.5177640000000  0.4856100000000  0.5596560000000 1.0
C      1  0.4822380000000  0.4856110000000  0.4403430000000 1.0
C      1  0.4856060000000  0.5596550000000  0.5177650000000 1.0
C      1  0.4856140000000  0.4403430000000  0.4822350000000 1.0
C      1  0.5143940000000  0.4403440000000  0.5177620000000 1.0
C      1  0.5596550000000  0.5177670000000  0.5143900000000 1.0
C      1  0.4822370000000  0.4856070000000  0.5596560000000 1.0
C      1  0.5143940000000  0.4403450000000  0.4822350000000 1.0
C      1  0.4403430000000  0.5177600000000  0.4856110000000 1.0
C      1  0.4403450000000  0.4822320000000  0.5143890000000 1.0
C      1  0.5596570000000  0.4822410000000  0.4856100000000 1.0
C      1  0.5177650000000  0.4856130000000  0.4403440000000 1.0
C      1  0.5177620000000  0.5143890000000  0.5596570000000 1.0
C      1  0.4822360000000  0.5143900000000  0.4403440000000 1.0
C      1  0.4856140000000  0.4403420000000  0.5177620000000 1.0
C      1  0.4856060000000  0.5596560000000  0.4822380000000 1.0
C      1  0.5143860000000  0.5596570000000  0.5177650000000 1.0
C      1  0.5479000000000  0.4611960000000  0.4848510000000 1.0
C      1  0.4611930000000  0.4848480000000  0.5478970000000 1.0
C      1  0.4848490000000  0.5478970000000  0.4611940000000 1.0
C      1  0.4521050000000  0.4611880000000  0.5151470000000 1.0
C      1  0.4521000000000  0.5388050000000  0.4848530000000 1.0
C      1  0.5478940000000  0.5388110000000  0.5151500000000 1.0
C      1  0.5388090000000  0.4848560000000  0.4521030000000 1.0
C      1  0.5388070000000  0.5151490000000  0.5478980000000 1.0
C      1  0.4611910000000  0.5151470000000  0.4521030000000 1.0
C      1  0.5151450000000  0.5478970000000  0.5388090000000 1.0
C      1  0.5151520000000  0.4521050000000  0.4611910000000 1.0
C      1  0.4848550000000  0.4521010000000  0.5388060000000 1.0
C      1  0.5478950000000  0.5388120000000  0.4848530000000 1.0
C      1  0.4611910000000  0.5151440000000  0.5478970000000 1.0
C      1  0.4848550000000  0.4521030000000  0.4611910000000 1.0
C      1  0.4521000000000  0.5388040000000  0.5151490000000 1.0
C      1  0.4521060000000  0.4611890000000  0.4848500000000 1.0
C      1  0.5479000000000  0.4611950000000  0.5151470000000 1.0
C      1  0.5388070000000  0.5151520000000  0.4521030000000 1.0
C      1  0.5388090000000  0.4848530000000  0.5478970000000 1.0
C      1  0.4611930000000  0.4848510000000  0.4521020000000 1.0
C      1  0.5151510000000  0.4521030000000  0.5388060000000 1.0
C      1  0.5151450000000  0.5478990000000  0.4611940000000 1.0
C      1  0.4848480000000  0.5478950000000  0.5388090000000 1.0
C      1  0.4590870000000  0.4485660000000  0.4681910000000 1.0
C      1  0.4485700000000  0.4681900000000  0.4590820000000 1.0
C      1  0.4681960000000  0.4590820000000  0.4485660000000 1.0
C      1  0.5409200000000  0.4485700000000  0.5318060000000 1.0
C      1  0.5409140000000  0.5514360000000  0.4681940000000 1.0
C      1  0.4590790000000  0.5514280000000  0.5318090000000 1.0
C      1  0.5514340000000  0.4681950000000  0.5409160000000 1.0
C      1  0.5514300000000  0.5318120000000  0.4590840000000 1.0
C      1  0.4485650000000  0.5318030000000  0.5409180000000 1.0
C      1  0.5318100000000  0.4590840000000  0.5514310000000 1.0
C      1  0.5318050000000  0.5409210000000  0.4485690000000 1.0
C      1  0.4681900000000  0.5409130000000  0.5514330000000 1.0
C      1  0.4590800000000  0.5514300000000  0.4681940000000 1.0
C      1  0.4485660000000  0.5318050000000  0.4590840000000 1.0
C      1  0.4681900000000  0.5409160000000  0.4485690000000 1.0
C      1  0.5409130000000  0.5514340000000  0.5318090000000 1.0
C      1  0.5409210000000  0.4485720000000  0.4681910000000 1.0
C      1  0.4590860000000  0.4485640000000  0.5318060000000 1.0
C      1  0.5514300000000  0.5318100000000  0.5409180000000 1.0
C      1  0.5514350000000  0.4681970000000  0.4590820000000 1.0
C      1  0.4485700000000  0.4681880000000  0.5409160000000 1.0
C      1  0.5318040000000  0.5409180000000  0.5514340000000 1.0
C      1  0.5318100000000  0.4590870000000  0.4485670000000 1.0
C      1  0.4681950000000  0.4590790000000  0.5514310000000 1.0
C      1  0.5506110000000  0.4591390000000  0.4696630000000 1.0
C      1  0.4591370000000  0.4696600000000  0.5506070000000 1.0
C      1  0.4696610000000  0.5506080000000  0.4591360000000 1.0
C      1  0.4493940000000  0.4591310000000  0.5303340000000 1.0
C      1  0.4493890000000  0.5408630000000  0.4696650000000 1.0
C      1  0.5506060000000  0.5408680000000  0.5303370000000 1.0
C      1  0.5408670000000  0.4696690000000  0.4493910000000 1.0
C      1  0.5408630000000  0.5303370000000  0.5506100000000 1.0
C      1  0.4591330000000  0.5303340000000  0.4493920000000 1.0
C      1  0.5303320000000  0.5506090000000  0.5408670000000 1.0
C      1  0.5303390000000  0.4493950000000  0.4591330000000 1.0
C      1  0.4696680000000  0.4493880000000  0.5408630000000 1.0
C      1  0.5506060000000  0.5408700000000  0.4696660000000 1.0
C      1  0.4591330000000  0.5303310000000  0.5506090000000 1.0
C      1  0.4696680000000  0.4493910000000  0.4591330000000 1.0
C      1  0.4493890000000  0.5408610000000  0.5303370000000 1.0
C      1  0.4493940000000  0.4591320000000  0.4696630000000 1.0
C      1  0.5506110000000  0.4591370000000  0.5303350000000 1.0
C      1  0.5408630000000  0.5303400000000  0.4493930000000 1.0
C      1  0.5408670000000  0.4696660000000  0.5506080000000 1.0
C      1  0.4591370000000  0.4696630000000  0.4493900000000 1.0
C      1  0.5303390000000  0.4493920000000  0.5408640000000 1.0
C      1  0.5303320000000  0.5506120000000  0.4591370000000 1.0
C      1  0.4696610000000  0.5506050000000  0.5408670000000 1.0
END
