TITL C-114181-47-37 11.9088440801461 1000000 -1624.13931861431 0 0 240 (Cs) n - 1
REM
REM in /home/chem/mssmkc/work/GAP20/Larger-Clusters/Only-C240/New/BUILD-ONLY
REM
REM
REM
REM
REM
REM ./C.cell (daee87de7206da95283bc1c1416dbc6f)
REM
REM compiler GCC version 8.3.0
REM options -cpp -mtune=generic -march=x86-64 -g -O0
REM seed -1067921891 -504884909 1414661390 1463825537 -1820064206 -2025986252 1227478114 -922458216 1161406628 1323619434 -1631681574 1661417991 -997551406 -1099415104 -2058610300 -1331335976 642789277 -801237883 -379471834 2107952998 1491967929 494521523 1302215266 -861856160 -533185402 1061401898 -1279515071 -512525759 -252203708 -1963745130 -476487996 -2096626467 -1879195937
REM
CELL 1.54180  100.00000  100.00000  100.00000   90.00000   90.00000   90.00000
LATT -1
SFAC C  
C      1  0.4792400000000  0.5618960000000  0.4835710000000 1.0
C      1  0.5610450000000  0.4836640000000  0.4808530000000 1.0
C      1  0.4840370000000  0.4812330000000  0.5611420000000 1.0
C      1  0.5189290000000  0.4388550000000  0.4844360000000 1.0
C      1  0.4810650000000  0.4387280000000  0.5163600000000 1.0
C      1  0.5207640000000  0.5618490000000  0.5171510000000 1.0
C      1  0.4390490000000  0.5155370000000  0.4808490000000 1.0
C      1  0.5609810000000  0.5155520000000  0.5187550000000 1.0
C      1  0.4388790000000  0.4837290000000  0.5188370000000 1.0
C      1  0.5160230000000  0.5190910000000  0.5610710000000 1.0
C      1  0.4830260000000  0.5208960000000  0.4383080000000 1.0
C      1  0.5165650000000  0.4793920000000  0.4383980000000 1.0
C      1  0.4791670000000  0.5618270000000  0.5171440000000 1.0
C      1  0.5611320000000  0.4837920000000  0.5188550000000 1.0
C      1  0.4834750000000  0.4793750000000  0.4383930000000 1.0
C      1  0.5189930000000  0.4387470000000  0.5163660000000 1.0
C      1  0.4811390000000  0.4388360000000  0.4844310000000 1.0
C      1  0.5207010000000  0.5619180000000  0.4835770000000 1.0
C      1  0.4389970000000  0.5154890000000  0.5187360000000 1.0
C      1  0.5609400000000  0.5156000000000  0.4808670000000 1.0
C      1  0.4389780000000  0.4836000000000  0.4808340000000 1.0
C      1  0.5169710000000  0.5209140000000  0.4383130000000 1.0
C      1  0.4839390000000  0.5190750000000  0.5610660000000 1.0
C      1  0.5159640000000  0.4812490000000  0.5611470000000 1.0
C      1  0.4930890000000  0.4812260000000  0.5331050000000 1.0
C      1  0.4815360000000  0.5331450000000  0.4932510000000 1.0
C      1  0.5328830000000  0.4927110000000  0.4808740000000 1.0
C      1  0.5069160000000  0.5192220000000  0.5329770000000 1.0
C      1  0.4930040000000  0.5190340000000  0.4674160000000 1.0
C      1  0.5069780000000  0.4815880000000  0.4666770000000 1.0
C      1  0.5189040000000  0.4668170000000  0.4934460000000 1.0
C      1  0.4811380000000  0.4667330000000  0.5072560000000 1.0
C      1  0.5184670000000  0.5331510000000  0.5071780000000 1.0
C      1  0.4671340000000  0.5065190000000  0.4807850000000 1.0
C      1  0.5329560000000  0.5066760000000  0.5186640000000 1.0
C      1  0.4669690000000  0.4928220000000  0.5186950000000 1.0
C      1  0.4930510000000  0.4815810000000  0.4666750000000 1.0
C      1  0.4814970000000  0.5331320000000  0.5071730000000 1.0
C      1  0.5330330000000  0.4928560000000  0.5187050000000 1.0
C      1  0.5069860000000  0.5190410000000  0.4674180000000 1.0
C      1  0.4930540000000  0.5192150000000  0.5329740000000 1.0
C      1  0.5069200000000  0.4812330000000  0.5331070000000 1.0
C      1  0.5188940000000  0.4667520000000  0.5072620000000 1.0
C      1  0.4811320000000  0.4667970000000  0.4934410000000 1.0
C      1  0.5184320000000  0.5331650000000  0.4932570000000 1.0
C      1  0.4670320000000  0.5066420000000  0.5186540000000 1.0
C      1  0.5328650000000  0.5065530000000  0.4807950000000 1.0
C      1  0.4671310000000  0.4926770000000  0.4808650000000 1.0
C      1  0.5075400000000  0.4601650000000  0.4878990000000 1.0
C      1  0.4600160000000  0.4872750000000  0.5074010000000 1.0
C      1  0.4878460000000  0.5080340000000  0.4587320000000 1.0
C      1  0.4924840000000  0.5416770000000  0.4881470000000 1.0
C      1  0.5075230000000  0.5416920000000  0.5124420000000 1.0
C      1  0.4924660000000  0.4597760000000  0.5126840000000 1.0
C      1  0.5397490000000  0.5121090000000  0.5072640000000 1.0
C      1  0.4603760000000  0.5120580000000  0.4921530000000 1.0
C      1  0.5399930000000  0.4873480000000  0.4922340000000 1.0
C      1  0.5121430000000  0.4929070000000  0.4584600000000 1.0
C      1  0.4876170000000  0.4926190000000  0.5399580000000 1.0
C      1  0.5123410000000  0.5078050000000  0.5399160000000 1.0
C      1  0.5075720000000  0.4597840000000  0.5126870000000 1.0
C      1  0.4600220000000  0.4873070000000  0.4922220000000 1.0
C      1  0.4876390000000  0.5077930000000  0.5399120000000 1.0
C      1  0.4924300000000  0.5416840000000  0.5124390000000 1.0
C      1  0.5074760000000  0.5416840000000  0.4881490000000 1.0
C      1  0.4925050000000  0.4601570000000  0.4878970000000 1.0
C      1  0.5396140000000  0.5120990000000  0.4921650000000 1.0
C      1  0.4602360000000  0.5120680000000  0.5072520000000 1.0
C      1  0.5399950000000  0.4873160000000  0.5074130000000 1.0
C      1  0.5123780000000  0.4926320000000  0.5399620000000 1.0
C      1  0.4878770000000  0.4928950000000  0.4584560000000 1.0
C      1  0.5121580000000  0.5080470000000  0.4587350000000 1.0
C      1  0.5156500000000  0.5555550000000  0.4709190000000 1.0
C      1  0.5550340000000  0.4705850000000  0.5150990000000 1.0
C      1  0.4707430000000  0.5151740000000  0.5547950000000 1.0
C      1  0.4848950000000  0.4451450000000  0.4713480000000 1.0
C      1  0.5151680000000  0.4449980000000  0.5295650000000 1.0
C      1  0.4843210000000  0.5555210000000  0.5298800000000 1.0
C      1  0.4451580000000  0.5285720000000  0.5150100000000 1.0
C      1  0.5546780000000  0.5287040000000  0.4847160000000 1.0
C      1  0.4450820000000  0.4703910000000  0.4848120000000 1.0
C      1  0.5291430000000  0.4849840000000  0.5549080000000 1.0
C      1  0.4706480000000  0.4843440000000  0.4445970000000 1.0
C      1  0.5296650000000  0.5155940000000  0.4446080000000 1.0
C      1  0.5156130000000  0.5555370000000  0.5298850000000 1.0
C      1  0.5549530000000  0.4704480000000  0.4848280000000 1.0
C      1  0.4703360000000  0.5155630000000  0.4445990000000 1.0
C      1  0.4848800000000  0.4449830000000  0.5295600000000 1.0
C      1  0.5151710000000  0.4451600000000  0.4713520000000 1.0
C      1  0.4843020000000  0.5555390000000  0.4709140000000 1.0
C      1  0.4452970000000  0.5286480000000  0.4846990000000 1.0
C      1  0.5548080000000  0.5286290000000  0.5150260000000 1.0
C      1  0.4449920000000  0.4705280000000  0.5150820000000 1.0
C      1  0.5293850000000  0.4843740000000  0.4446050000000 1.0
C      1  0.4708560000000  0.4849540000000  0.5548990000000 1.0
C      1  0.5292250000000  0.5152050000000  0.5548040000000 1.0
C      1  0.5257850000000  0.5128750000000  0.4577360000000 1.0
C      1  0.5126600000000  0.4582400000000  0.5259890000000 1.0
C      1  0.4585410000000  0.5253330000000  0.5123990000000 1.0
C      1  0.4744190000000  0.4876100000000  0.4576350000000 1.0
C      1  0.5256450000000  0.4875050000000  0.5416380000000 1.0
C      1  0.4742970000000  0.5127470000000  0.5415440000000 1.0
C      1  0.4873410000000  0.5424660000000  0.5259790000000 1.0
C      1  0.5126950000000  0.5423730000000  0.4746530000000 1.0
C      1  0.4873660000000  0.4585680000000  0.4746090000000 1.0
C      1  0.5417640000000  0.4740650000000  0.5125760000000 1.0
C      1  0.4583070000000  0.4739440000000  0.4873210000000 1.0
C      1  0.5412700000000  0.5253870000000  0.4870580000000 1.0
C      1  0.5256780000000  0.5127740000000  0.5415510000000 1.0
C      1  0.5126850000000  0.4585810000000  0.4746130000000 1.0
C      1  0.4587080000000  0.5253450000000  0.4870460000000 1.0
C      1  0.4743550000000  0.4874790000000  0.5416300000000 1.0
C      1  0.5256070000000  0.4876370000000  0.4576420000000 1.0
C      1  0.4742140000000  0.5128480000000  0.4577280000000 1.0
C      1  0.4872690000000  0.5423600000000  0.4746500000000 1.0
C      1  0.5126070000000  0.5424790000000  0.5259830000000 1.0
C      1  0.4873760000000  0.4582270000000  0.5259850000000 1.0
C      1  0.5417230000000  0.4739870000000  0.4873330000000 1.0
C      1  0.4582590000000  0.4740220000000  0.5125640000000 1.0
C      1  0.5414290000000  0.5253750000000  0.5124110000000 1.0
C      1  0.4525940000000  0.5114430000000  0.4602720000000 1.0
C      1  0.5117270000000  0.4599460000000  0.4529090000000 1.0
C      1  0.4603850000000  0.4522590000000  0.5119840000000 1.0
C      1  0.5472580000000  0.4879740000000  0.4602560000000 1.0
C      1  0.4525780000000  0.4880690000000  0.5394770000000 1.0
C      1  0.5474260000000  0.5115580000000  0.5393480000000 1.0
C      1  0.4882970000000  0.5400780000000  0.4531070000000 1.0
C      1  0.5117400000000  0.5397340000000  0.5475710000000 1.0
C      1  0.4882870000000  0.4605450000000  0.5476990000000 1.0
C      1  0.5399580000000  0.5470760000000  0.5118410000000 1.0
C      1  0.4601570000000  0.5470530000000  0.4884550000000 1.0
C      1  0.5395470000000  0.4522480000000  0.4884860000000 1.0
C      1  0.4525500000000  0.5115090000000  0.5393340000000 1.0
C      1  0.5117400000000  0.4605570000000  0.5477030000000 1.0
C      1  0.4605050000000  0.4522070000000  0.4884740000000 1.0
C      1  0.5474230000000  0.4881190000000  0.5394910000000 1.0
C      1  0.4527660000000  0.4879250000000  0.4602420000000 1.0
C      1  0.5474060000000  0.5114920000000  0.4602860000000 1.0
C      1  0.4882050000000  0.5397210000000  0.5475680000000 1.0
C      1  0.5116750000000  0.5400900000000  0.4531110000000 1.0
C      1  0.4883290000000  0.4599340000000  0.4529050000000 1.0
C      1  0.5397980000000  0.5470940000000  0.4884670000000 1.0
C      1  0.4599900000000  0.5470350000000  0.5118290000000 1.0
C      1  0.5396610000000  0.4523000000000  0.5119960000000 1.0
C      1  0.4418760000000  0.5071990000000  0.5305100000000 1.0
C      1  0.5079280000000  0.5323810000000  0.4415940000000 1.0
C      1  0.5307190000000  0.4416280000000  0.5079570000000 1.0
C      1  0.5581460000000  0.4921520000000  0.5305850000000 1.0
C      1  0.4420560000000  0.4919570000000  0.4691180000000 1.0
C      1  0.5579920000000  0.5072080000000  0.4691570000000 1.0
C      1  0.4922150000000  0.4676530000000  0.4414160000000 1.0
C      1  0.5075810000000  0.4694970000000  0.5583270000000 1.0
C      1  0.4923580000000  0.5307870000000  0.5581480000000 1.0
C      1  0.4676440000000  0.5586290000000  0.5081700000000 1.0
C      1  0.5322340000000  0.5586580000000  0.4924600000000 1.0
C      1  0.4693780000000  0.4415980000000  0.4927920000000 1.0
C      1  0.4420100000000  0.5071480000000  0.4691390000000 1.0
C      1  0.5075930000000  0.5307950000000  0.5581500000000 1.0
C      1  0.5306850000000  0.4416290000000  0.4928020000000 1.0
C      1  0.5579620000000  0.4920160000000  0.4691350000000 1.0
C      1  0.4418530000000  0.4920920000000  0.5305680000000 1.0
C      1  0.5581080000000  0.5072590000000  0.5305280000000 1.0
C      1  0.4924330000000  0.4694890000000  0.5583240000000 1.0
C      1  0.5078360000000  0.4676610000000  0.4414180000000 1.0
C      1  0.4920570000000  0.5323730000000  0.4415920000000 1.0
C      1  0.4677070000000  0.5586250000000  0.4924510000000 1.0
C      1  0.5322930000000  0.5586620000000  0.5081800000000 1.0
C      1  0.4693390000000  0.4415960000000  0.5079470000000 1.0
C      1  0.5353180000000  0.5129400000000  0.5317540000000 1.0
C      1  0.5131200000000  0.5323180000000  0.5353720000000 1.0
C      1  0.5317310000000  0.5352690000000  0.5131920000000 1.0
C      1  0.4646970000000  0.4867450000000  0.5318630000000 1.0
C      1  0.5350870000000  0.4865940000000  0.4677490000000 1.0
C      1  0.4647350000000  0.5128540000000  0.4677460000000 1.0
C      1  0.4869390000000  0.4680890000000  0.5355530000000 1.0
C      1  0.5130810000000  0.4682610000000  0.4646720000000 1.0
C      1  0.4868020000000  0.5321710000000  0.4650680000000 1.0
C      1  0.4679960000000  0.4643610000000  0.5133400000000 1.0
C      1  0.5319620000000  0.4643520000000  0.4871750000000 1.0
C      1  0.4683680000000  0.5352710000000  0.4869870000000 1.0
C      1  0.5352620000000  0.5128910000000  0.4677560000000 1.0
C      1  0.5131750000000  0.5321840000000  0.4650720000000 1.0
C      1  0.5315990000000  0.5353040000000  0.4869960000000 1.0
C      1  0.4649370000000  0.4865580000000  0.4677380000000 1.0
C      1  0.5353070000000  0.4867820000000  0.5318740000000 1.0
C      1  0.4646590000000  0.5129030000000  0.5317430000000 1.0
C      1  0.4869630000000  0.4682480000000  0.4646680000000 1.0
C      1  0.5130830000000  0.4681030000000  0.5355570000000 1.0
C      1  0.4868360000000  0.5323040000000  0.5353680000000 1.0
C      1  0.4680790000000  0.4643190000000  0.4871650000000 1.0
C      1  0.5320360000000  0.4643950000000  0.5133500000000 1.0
C      1  0.4682290000000  0.5352360000000  0.5131820000000 1.0
C      1  0.5561220000000  0.5071930000000  0.5073910000000 1.0
C      1  0.5075220000000  0.5078190000000  0.5562330000000 1.0
C      1  0.5120610000000  0.5566590000000  0.5073950000000 1.0
C      1  0.4438050000000  0.4921050000000  0.5074360000000 1.0
C      1  0.5561800000000  0.4921560000000  0.4921730000000 1.0
C      1  0.4438410000000  0.5071300000000  0.4921480000000 1.0
C      1  0.4924650000000  0.4925650000000  0.5562510000000 1.0
C      1  0.5070410000000  0.4885890000000  0.4432620000000 1.0
C      1  0.4929360000000  0.5126010000000  0.4438650000000 1.0
C      1  0.4923890000000  0.4436000000000  0.5079050000000 1.0
C      1  0.5076340000000  0.4436440000000  0.4928360000000 1.0
C      1  0.4879430000000  0.5566870000000  0.4933010000000 1.0
C      1  0.5561540000000  0.5071880000000  0.4921650000000 1.0
C      1  0.5070680000000  0.5126090000000  0.4438670000000 1.0
C      1  0.5120000000000  0.5567000000000  0.4933050000000 1.0
C      1  0.4438310000000  0.4920980000000  0.4921570000000 1.0
C      1  0.5562010000000  0.4921630000000  0.5074530000000 1.0
C      1  0.4438680000000  0.5071350000000  0.5073740000000 1.0
C      1  0.4929880000000  0.4885820000000  0.4432600000000 1.0
C      1  0.5075260000000  0.4925730000000  0.5562530000000 1.0
C      1  0.4924530000000  0.5078110000000  0.5562300000000 1.0
C      1  0.4924260000000  0.4436360000000  0.4928340000000 1.0
C      1  0.5076670000000  0.4436070000000  0.5079070000000 1.0
C      1  0.4878780000000  0.5566470000000  0.5073910000000 1.0
C      1  0.4582290000000  0.5075740000000  0.5529490000000 1.0
C      1  0.5075730000000  0.5536780000000  0.4589060000000 1.0
C      1  0.5531620000000  0.4580240000000  0.5076640000000 1.0
C      1  0.5417150000000  0.4924200000000  0.5530120000000 1.0
C      1  0.4584390000000  0.4921950000000  0.4466170000000 1.0
C      1  0.5417820000000  0.5075240000000  0.4465530000000 1.0
C      1  0.4924640000000  0.4465890000000  0.4588820000000 1.0
C      1  0.5076230000000  0.4469510000000  0.5420670000000 1.0
C      1  0.4923150000000  0.5534390000000  0.5419840000000 1.0
C      1  0.4466740000000  0.5410610000000  0.5075010000000 1.0
C      1  0.5532150000000  0.5411330000000  0.4923920000000 1.0
C      1  0.4468990000000  0.4578940000000  0.4924300000000 1.0
C      1  0.4582260000000  0.5074810000000  0.4465410000000 1.0
C      1  0.5076170000000  0.5534470000000  0.5419860000000 1.0
C      1  0.5531460000000  0.4579490000000  0.4924460000000 1.0
C      1  0.5415850000000  0.4922380000000  0.4466300000000 1.0
C      1  0.4582770000000  0.4923760000000  0.5530000000000 1.0
C      1  0.5417470000000  0.5076170000000  0.5529620000000 1.0
C      1  0.4924190000000  0.4469430000000  0.5420650000000 1.0
C      1  0.5076030000000  0.4465970000000  0.4588840000000 1.0
C      1  0.4923840000000  0.5536700000000  0.4589040000000 1.0
C      1  0.4467450000000  0.5410780000000  0.4923760000000 1.0
C      1  0.5532810000000  0.5411160000000  0.5075170000000 1.0
C      1  0.4468790000000  0.4579690000000  0.5076480000000 1.0
END
