TITL C-114180-423-41 -0.583178666360243 1000000 -1672.16854234092 0 0 240 (C1) n - 1
REM
REM in /home/chem/mssmkc/work/GAP20/Larger-Clusters/Only-C240/New/BUILD-ONLY
REM
REM
REM
REM
REM
REM ./C.cell (daee87de7206da95283bc1c1416dbc6f)
REM
REM compiler GCC version 8.3.0
REM options -cpp -mtune=generic -march=x86-64 -g -O0
REM seed 194878901 -1453352770 -689238134 919314407 -1715668762 1997884653 -289657905 1046508737 -470907276 -213014631 1904423159 -1851147983 68848479 -569560222 -1908889663 2011441873 2116253377 404486226 -258408400 90238564 1516367774 -1116037255 1245460059 1050554474 -4930399 -847925515 2005441812 1368760021 608018197 -502075368 -682188775 -242090949 574333765
REM
CELL 1.54180  100.00000  100.00000  100.00000   90.00000   90.00000   90.00000
LATT -1
SFAC C  
C      1  0.4834900000000  0.5648150000000  0.4951060000000 1.0
C      1  0.4949050000000  0.4839550000000  0.5648650000000 1.0
C      1  0.5648350000000  0.4949140000000  0.4839800000000 1.0
C      1  0.5163290000000  0.4354440000000  0.4948960000000 1.0
C      1  0.5162820000000  0.5648970000000  0.5047920000000 1.0
C      1  0.4834450000000  0.4351190000000  0.5044200000000 1.0
C      1  0.5046900000000  0.5165630000000  0.5649670000000 1.0
C      1  0.5046900000000  0.4834880000000  0.4352840000000 1.0
C      1  0.4953140000000  0.5164880000000  0.4352400000000 1.0
C      1  0.4352560000000  0.5050320000000  0.4840790000000 1.0
C      1  0.4352090000000  0.4952380000000  0.5166660000000 1.0
C      1  0.5649720000000  0.5047370000000  0.5165630000000 1.0
C      1  0.5649300000000  0.4833350000000  0.4954940000000 1.0
C      1  0.4833100000000  0.4955380000000  0.5649840000000 1.0
C      1  0.4950650000000  0.5647950000000  0.4835300000000 1.0
C      1  0.4351550000000  0.5166040000000  0.4956040000000 1.0
C      1  0.5647990000000  0.5162380000000  0.5050580000000 1.0
C      1  0.4353820000000  0.4837010000000  0.5051330000000 1.0
C      1  0.5162200000000  0.5050360000000  0.5648020000000 1.0
C      1  0.4838060000000  0.5049950000000  0.4352100000000 1.0
C      1  0.5162140000000  0.4949730000000  0.4352240000000 1.0
C      1  0.5048010000000  0.4352830000000  0.4833770000000 1.0
C      1  0.4950040000000  0.4352330000000  0.5159650000000 1.0
C      1  0.5047180000000  0.5649260000000  0.5163290000000 1.0
C      1  0.5531150000000  0.4688060000000  0.5132030000000 1.0
C      1  0.5129890000000  0.5529740000000  0.4687560000000 1.0
C      1  0.4687810000000  0.5132450000000  0.5531090000000 1.0
C      1  0.4469610000000  0.5311790000000  0.5132550000000 1.0
C      1  0.4470930000000  0.4690360000000  0.4871070000000 1.0
C      1  0.5531530000000  0.5309540000000  0.4870150000000 1.0
C      1  0.4870100000000  0.4471870000000  0.4686740000000 1.0
C      1  0.4868880000000  0.5530900000000  0.5311290000000 1.0
C      1  0.5129230000000  0.4462400000000  0.5313860000000 1.0
C      1  0.5309350000000  0.4870140000000  0.5531290000000 1.0
C      1  0.5315740000000  0.5128950000000  0.4462140000000 1.0
C      1  0.4684350000000  0.4871170000000  0.4462540000000 1.0
C      1  0.4687580000000  0.5529460000000  0.5129980000000 1.0
C      1  0.5537390000000  0.5128190000000  0.4686410000000 1.0
C      1  0.5128790000000  0.4685670000000  0.5538160000000 1.0
C      1  0.5309810000000  0.4471140000000  0.5129180000000 1.0
C      1  0.4688400000000  0.4469440000000  0.4867750000000 1.0
C      1  0.5311560000000  0.5531360000000  0.4869070000000 1.0
C      1  0.4463410000000  0.4871710000000  0.4687150000000 1.0
C      1  0.5531310000000  0.4869200000000  0.5313500000000 1.0
C      1  0.4471120000000  0.5130550000000  0.5313890000000 1.0
C      1  0.4868880000000  0.5313490000000  0.5530870000000 1.0
C      1  0.5131520000000  0.5309660000000  0.4468560000000 1.0
C      1  0.4868690000000  0.4690800000000  0.4469620000000 1.0
C      1  0.4744070000000  0.4646070000000  0.4536690000000 1.0
C      1  0.4537800000000  0.4748980000000  0.4646190000000 1.0
C      1  0.4643520000000  0.4538350000000  0.4743640000000 1.0
C      1  0.5255370000000  0.5353450000000  0.4537640000000 1.0
C      1  0.5250910000000  0.4646230000000  0.5461750000000 1.0
C      1  0.4743290000000  0.5359480000000  0.5465510000000 1.0
C      1  0.5461940000000  0.5250760000000  0.4646370000000 1.0
C      1  0.5461850000000  0.4744810000000  0.5357330000000 1.0
C      1  0.4535060000000  0.5257080000000  0.5359540000000 1.0
C      1  0.5355240000000  0.5460810000000  0.4745550000000 1.0
C      1  0.5353250000000  0.4538780000000  0.5253980000000 1.0
C      1  0.4642020000000  0.5464980000000  0.5256190000000 1.0
C      1  0.4644220000000  0.4748360000000  0.4537610000000 1.0
C      1  0.4744590000000  0.4538930000000  0.4642450000000 1.0
C      1  0.4538130000000  0.4646840000000  0.4746090000000 1.0
C      1  0.5355270000000  0.5251370000000  0.4538190000000 1.0
C      1  0.4641390000000  0.5258280000000  0.5466310000000 1.0
C      1  0.5353050000000  0.4746000000000  0.5462620000000 1.0
C      1  0.5254500000000  0.5460540000000  0.4644400000000 1.0
C      1  0.4743510000000  0.5465750000000  0.5357650000000 1.0
C      1  0.5251080000000  0.4538780000000  0.5353770000000 1.0
C      1  0.5461960000000  0.5352680000000  0.4746310000000 1.0
C      1  0.4534740000000  0.5358520000000  0.5257760000000 1.0
C      1  0.5461920000000  0.4643770000000  0.5256270000000 1.0
C      1  0.4962140000000  0.5336820000000  0.5433860000000 1.0
C      1  0.5436280000000  0.4963760000000  0.5339080000000 1.0
C      1  0.5340390000000  0.5437740000000  0.4964060000000 1.0
C      1  0.5029660000000  0.4643870000000  0.5455340000000 1.0
C      1  0.5035900000000  0.5337740000000  0.4561590000000 1.0
C      1  0.4963370000000  0.4665260000000  0.4564330000000 1.0
C      1  0.4567830000000  0.5036860000000  0.5337740000000 1.0
C      1  0.4548160000000  0.4969890000000  0.4646980000000 1.0
C      1  0.5452680000000  0.5030030000000  0.4646100000000 1.0
C      1  0.4663240000000  0.4563030000000  0.4963900000000 1.0
C      1  0.4661740000000  0.5433520000000  0.5036230000000 1.0
C      1  0.5339740000000  0.4565550000000  0.5035380000000 1.0
C      1  0.5339260000000  0.4964090000000  0.5437090000000 1.0
C      1  0.4962390000000  0.5434750000000  0.5336760000000 1.0
C      1  0.5438320000000  0.5340580000000  0.4964600000000 1.0
C      1  0.4665000000000  0.5037240000000  0.5435750000000 1.0
C      1  0.5354520000000  0.5029880000000  0.4546150000000 1.0
C      1  0.4645840000000  0.4970330000000  0.4546550000000 1.0
C      1  0.5029860000000  0.4544800000000  0.5355840000000 1.0
C      1  0.4963550000000  0.4568580000000  0.4662660000000 1.0
C      1  0.5035220000000  0.5435580000000  0.4658970000000 1.0
C      1  0.4565020000000  0.4660000000000  0.4965050000000 1.0
C      1  0.5437010000000  0.4663440000000  0.5036230000000 1.0
C      1  0.4564920000000  0.5335140000000  0.5037460000000 1.0
C      1  0.4806150000000  0.5618560000000  0.5091700000000 1.0
C      1  0.5088950000000  0.4809110000000  0.5618470000000 1.0
C      1  0.5618130000000  0.5088910000000  0.4809520000000 1.0
C      1  0.5190460000000  0.4385000000000  0.5089740000000 1.0
C      1  0.5191780000000  0.5618860000000  0.4907150000000 1.0
C      1  0.4806420000000  0.4380120000000  0.4903820000000 1.0
C      1  0.4906410000000  0.5195280000000  0.5620770000000 1.0
C      1  0.4906180000000  0.4808590000000  0.4381780000000 1.0
C      1  0.5093840000000  0.5191290000000  0.4381440000000 1.0
C      1  0.4383030000000  0.4910610000000  0.4810450000000 1.0
C      1  0.4381020000000  0.5092830000000  0.5196020000000 1.0
C      1  0.5620750000000  0.4906770000000  0.5195040000000 1.0
C      1  0.5621000000000  0.4805630000000  0.5095540000000 1.0
C      1  0.4805220000000  0.5095920000000  0.5621280000000 1.0
C      1  0.5091380000000  0.5618140000000  0.4806620000000 1.0
C      1  0.4380060000000  0.5193940000000  0.5096470000000 1.0
C      1  0.5616940000000  0.5189640000000  0.4909710000000 1.0
C      1  0.4384930000000  0.4809800000000  0.4910640000000 1.0
C      1  0.5189560000000  0.4909460000000  0.5617040000000 1.0
C      1  0.4806870000000  0.4910030000000  0.4380710000000 1.0
C      1  0.5193190000000  0.5089790000000  0.4380570000000 1.0
C      1  0.4907620000000  0.4381570000000  0.4804390000000 1.0
C      1  0.5089860000000  0.4382620000000  0.5190110000000 1.0
C      1  0.4906570000000  0.5619290000000  0.5192100000000 1.0
C      1  0.4778060000000  0.4459860000000  0.5320490000000 1.0
C      1  0.5321130000000  0.4778500000000  0.4460780000000 1.0
C      1  0.4463010000000  0.5321630000000  0.4783760000000 1.0
C      1  0.5219190000000  0.5536930000000  0.5322630000000 1.0
C      1  0.5219730000000  0.4466630000000  0.4675680000000 1.0
C      1  0.4778050000000  0.5535180000000  0.4676380000000 1.0
C      1  0.4678460000000  0.5221500000000  0.4460510000000 1.0
C      1  0.4676680000000  0.4783020000000  0.5538440000000 1.0
C      1  0.5321610000000  0.5222180000000  0.5536600000000 1.0
C      1  0.5537170000000  0.4678240000000  0.4782580000000 1.0
C      1  0.5537240000000  0.5322500000000  0.5222670000000 1.0
C      1  0.4464980000000  0.4677130000000  0.5223350000000 1.0
C      1  0.4465100000000  0.4779760000000  0.5325090000000 1.0
C      1  0.4781680000000  0.5322370000000  0.4461410000000 1.0
C      1  0.5322340000000  0.4466480000000  0.4777350000000 1.0
C      1  0.5537160000000  0.5220170000000  0.5324290000000 1.0
C      1  0.4461930000000  0.5220820000000  0.4680380000000 1.0
C      1  0.5538120000000  0.4779280000000  0.4679470000000 1.0
C      1  0.5217510000000  0.4678020000000  0.4462510000000 1.0
C      1  0.4777090000000  0.4679150000000  0.5539990000000 1.0
C      1  0.5219170000000  0.5323770000000  0.5536240000000 1.0
C      1  0.4676100000000  0.5534770000000  0.4778730000000 1.0
C      1  0.5321630000000  0.5537320000000  0.5221090000000 1.0
C      1  0.4677480000000  0.4461240000000  0.5216920000000 1.0
C      1  0.5285320000000  0.5178100000000  0.5390130000000 1.0
C      1  0.5390570000000  0.5286310000000  0.5178720000000 1.0
C      1  0.5177220000000  0.5389760000000  0.5284640000000 1.0
C      1  0.4717010000000  0.4820500000000  0.5392000000000 1.0
C      1  0.4710350000000  0.5179320000000  0.4604650000000 1.0
C      1  0.5289580000000  0.4821580000000  0.4604770000000 1.0
C      1  0.4611760000000  0.4713140000000  0.5179580000000 1.0
C      1  0.4609510000000  0.5282210000000  0.4821490000000 1.0
C      1  0.5390800000000  0.4717930000000  0.4821180000000 1.0
C      1  0.4820190000000  0.4604070000000  0.5291120000000 1.0
C      1  0.4821420000000  0.5388070000000  0.4713180000000 1.0
C      1  0.5177260000000  0.4613940000000  0.4714810000000 1.0
C      1  0.5176860000000  0.5284710000000  0.5389240000000 1.0
C      1  0.5285480000000  0.5390180000000  0.5177790000000 1.0
C      1  0.5389760000000  0.5177820000000  0.5285450000000 1.0
C      1  0.4820000000000  0.4708750000000  0.5396050000000 1.0
C      1  0.5178760000000  0.4717860000000  0.4608520000000 1.0
C      1  0.4820650000000  0.5283800000000  0.4607650000000 1.0
C      1  0.4716760000000  0.4608220000000  0.5179490000000 1.0
C      1  0.5285830000000  0.4613040000000  0.4821430000000 1.0
C      1  0.4714220000000  0.5387710000000  0.4821210000000 1.0
C      1  0.4612470000000  0.4821570000000  0.5286220000000 1.0
C      1  0.5394100000000  0.4822050000000  0.4709860000000 1.0
C      1  0.4606130000000  0.5178480000000  0.4710130000000 1.0
C      1  0.4998830000000  0.5343840000000  0.4895580000000 1.0
C      1  0.4902680000000  0.4990260000000  0.5351500000000 1.0
C      1  0.5351710000000  0.4903070000000  0.4992060000000 1.0
C      1  0.5004350000000  0.4653890000000  0.4902240000000 1.0
C      1  0.5002450000000  0.5343790000000  0.5100950000000 1.0
C      1  0.5004250000000  0.4660770000000  0.5109150000000 1.0
C      1  0.5106550000000  0.4997830000000  0.5341770000000 1.0
C      1  0.5104430000000  0.5003040000000  0.4658350000000 1.0
C      1  0.4896080000000  0.4999130000000  0.4657560000000 1.0
C      1  0.4650510000000  0.5096670000000  0.4992540000000 1.0
C      1  0.4659740000000  0.4892680000000  0.4999690000000 1.0
C      1  0.5342000000000  0.5107200000000  0.4999720000000 1.0
C      1  0.5339390000000  0.5005150000000  0.4892640000000 1.0
C      1  0.5004520000000  0.4890700000000  0.5340110000000 1.0
C      1  0.4898140000000  0.5344160000000  0.4996420000000 1.0
C      1  0.4662310000000  0.4994810000000  0.4892800000000 1.0
C      1  0.5348890000000  0.5004700000000  0.5099310000000 1.0
C      1  0.4653240000000  0.4994720000000  0.5099400000000 1.0
C      1  0.5004070000000  0.5097520000000  0.5347790000000 1.0
C      1  0.4995060000000  0.5102440000000  0.4651650000000 1.0
C      1  0.5005330000000  0.4899520000000  0.4653420000000 1.0
C      1  0.5106490000000  0.4659770000000  0.5002040000000 1.0
C      1  0.4902490000000  0.4649480000000  0.5009380000000 1.0
C      1  0.5103610000000  0.5343410000000  0.5000050000000 1.0
C      1  0.4734890000000  0.4852110000000  0.5646190000000 1.0
C      1  0.5645740000000  0.4735210000000  0.4851430000000 1.0
C      1  0.4846510000000  0.5641520000000  0.4737780000000 1.0
C      1  0.5260190000000  0.5154070000000  0.5642980000000 1.0
C      1  0.5259760000000  0.4844990000000  0.4352950000000 1.0
C      1  0.4740380000000  0.5154480000000  0.4353280000000 1.0
C      1  0.4354760000000  0.5264310000000  0.4852690000000 1.0
C      1  0.4359140000000  0.4739110000000  0.5154940000000 1.0
C      1  0.5643170000000  0.5260560000000  0.5154200000000 1.0
C      1  0.5152020000000  0.4358840000000  0.4735620000000 1.0
C      1  0.5150910000000  0.5643600000000  0.5261510000000 1.0
C      1  0.4845750000000  0.4354440000000  0.5256760000000 1.0
C      1  0.4844560000000  0.4742730000000  0.5645610000000 1.0
C      1  0.4737160000000  0.5641410000000  0.4847150000000 1.0
C      1  0.5645020000000  0.4845320000000  0.4742240000000 1.0
C      1  0.5151110000000  0.5263790000000  0.5643920000000 1.0
C      1  0.4850280000000  0.5263750000000  0.4353720000000 1.0
C      1  0.5149450000000  0.4735690000000  0.4354050000000 1.0
C      1  0.5261200000000  0.4360010000000  0.4845400000000 1.0
C      1  0.4736090000000  0.4353860000000  0.5147510000000 1.0
C      1  0.5260430000000  0.5643590000000  0.5152290000000 1.0
C      1  0.4355380000000  0.5154310000000  0.4743300000000 1.0
C      1  0.5644400000000  0.5151710000000  0.5263840000000 1.0
C      1  0.4357910000000  0.4848170000000  0.5264680000000 1.0
C      1  0.4775490000000  0.4954610000000  0.5394980000000 1.0
C      1  0.5392420000000  0.4774930000000  0.4956010000000 1.0
C      1  0.4956140000000  0.5388740000000  0.4770170000000 1.0
C      1  0.5228100000000  0.5043200000000  0.5393140000000 1.0
C      1  0.5246750000000  0.4965710000000  0.4638430000000 1.0
C      1  0.4753630000000  0.5035490000000  0.4638180000000 1.0
C      1  0.4608300000000  0.5224420000000  0.4956210000000 1.0
C      1  0.4610010000000  0.4770240000000  0.5044680000000 1.0
C      1  0.5393370000000  0.5229320000000  0.5043790000000 1.0
C      1  0.5043470000000  0.4614590000000  0.4774100000000 1.0
C      1  0.5043470000000  0.5391760000000  0.5225660000000 1.0
C      1  0.4964810000000  0.4637910000000  0.5250380000000 1.0
C      1  0.4964770000000  0.4749590000000  0.5362490000000 1.0
C      1  0.4772390000000  0.5389130000000  0.4955240000000 1.0
C      1  0.5358930000000  0.4966420000000  0.4751270000000 1.0
C      1  0.5043000000000  0.5225130000000  0.5389710000000 1.0
C      1  0.4955720000000  0.5226930000000  0.4604470000000 1.0
C      1  0.5044470000000  0.4776010000000  0.4604110000000 1.0
C      1  0.5229040000000  0.4610960000000  0.4956470000000 1.0
C      1  0.4774310000000  0.4607650000000  0.5044810000000 1.0
C      1  0.5228480000000  0.5390890000000  0.5042790000000 1.0
C      1  0.4641740000000  0.5034160000000  0.4751500000000 1.0
C      1  0.5390520000000  0.5043700000000  0.5226860000000 1.0
C      1  0.4612400000000  0.4955500000000  0.5227010000000 1.0
END
