TITL C-114179-1211-24 14.2555948508618 1000000 -1743.07890499898 0 0 240 (Td) n - 1
REM
REM in /home/chem/mssmkc/work/GAP20/Larger-Clusters/Only-C240/New/BUILD-ONLY
REM
REM
REM
REM
REM
REM ./C.cell (daee87de7206da95283bc1c1416dbc6f)
REM
REM compiler GCC version 8.3.0
REM options -cpp -mtune=generic -march=x86-64 -g -O0
REM seed -221266005 -1454611619 24868593 1124904503 1777851019 -1030405742 -1161699176 -1347295991 -1083315819 759121833 -1693676621 1313301918 2142519010 381392 -1150353101 979954617 -201452644 1803157303 -1249091362 -1586685855 307283639 -58074706 -924060553 -834812979 1337190727 -1181189708 584498873 -150249305 -92524774 122778665 -589128127 1555547718 1078987285
REM
CELL 1.54180  100.00000  100.00000  100.00000   90.00000   90.00000   90.00000
LATT -1
SFAC C  
C      1  0.4669590000000  0.5531600000000  0.4569460000000 1.0
C      1  0.5531650000000  0.4569490000000  0.4669640000000 1.0
C      1  0.4569510000000  0.4669630000000  0.5531660000000 1.0
C      1  0.5330380000000  0.4468370000000  0.4569480000000 1.0
C      1  0.4669690000000  0.4468360000000  0.5430560000000 1.0
C      1  0.5330340000000  0.5531680000000  0.5430500000000 1.0
C      1  0.4468330000000  0.5430480000000  0.4669640000000 1.0
C      1  0.5531620000000  0.5430570000000  0.5330330000000 1.0
C      1  0.4468400000000  0.4569450000000  0.5330390000000 1.0
C      1  0.5430520000000  0.5330410000000  0.5531610000000 1.0
C      1  0.4569440000000  0.5330310000000  0.4468360000000 1.0
C      1  0.5430530000000  0.4669650000000  0.4468360000000 1.0
C      1  0.5531650000000  0.4669660000000  0.4569470000000 1.0
C      1  0.4569430000000  0.5531600000000  0.4669630000000 1.0
C      1  0.4669680000000  0.4569470000000  0.5531660000000 1.0
C      1  0.4468330000000  0.5330310000000  0.4569470000000 1.0
C      1  0.4468400000000  0.4669620000000  0.5430560000000 1.0
C      1  0.5531630000000  0.5330410000000  0.5430500000000 1.0
C      1  0.5430550000000  0.4468380000000  0.4669650000000 1.0
C      1  0.5430500000000  0.5531680000000  0.5330330000000 1.0
C      1  0.4569520000000  0.4468350000000  0.5330390000000 1.0
C      1  0.5330350000000  0.5430570000000  0.5531610000000 1.0
C      1  0.5330370000000  0.4569470000000  0.4468370000000 1.0
C      1  0.4669600000000  0.5430490000000  0.4468360000000 1.0
C      1  0.4538120000000  0.5656650000000  0.5013820000000 1.0
C      1  0.5656670000000  0.5013850000000  0.4538140000000 1.0
C      1  0.5013880000000  0.4538190000000  0.5656700000000 1.0
C      1  0.5461880000000  0.4343350000000  0.5013840000000 1.0
C      1  0.4538200000000  0.4343290000000  0.4986210000000 1.0
C      1  0.5461790000000  0.5656710000000  0.4986130000000 1.0
C      1  0.4343310000000  0.4986110000000  0.4538180000000 1.0
C      1  0.5656690000000  0.4986230000000  0.5461820000000 1.0
C      1  0.4343330000000  0.5013810000000  0.5461860000000 1.0
C      1  0.4986160000000  0.5461860000000  0.5656660000000 1.0
C      1  0.5013780000000  0.5461810000000  0.4343300000000 1.0
C      1  0.4986180000000  0.4538140000000  0.4343340000000 1.0
C      1  0.5656710000000  0.4538210000000  0.5013830000000 1.0
C      1  0.5013770000000  0.5656660000000  0.4538140000000 1.0
C      1  0.4538180000000  0.5013830000000  0.5656690000000 1.0
C      1  0.4343290000000  0.5461800000000  0.5013830000000 1.0
C      1  0.4343350000000  0.4538120000000  0.4986210000000 1.0
C      1  0.5656650000000  0.5461880000000  0.4986130000000 1.0
C      1  0.4986200000000  0.4343300000000  0.4538190000000 1.0
C      1  0.4986140000000  0.5656700000000  0.5461810000000 1.0
C      1  0.5013890000000  0.4343340000000  0.5461860000000 1.0
C      1  0.5461860000000  0.4986230000000  0.5656670000000 1.0
C      1  0.5461820000000  0.5013830000000  0.4343310000000 1.0
C      1  0.4538140000000  0.4986110000000  0.4343330000000 1.0
C      1  0.4381550000000  0.5064220000000  0.4827360000000 1.0
C      1  0.5064260000000  0.4827320000000  0.4381570000000 1.0
C      1  0.4827390000000  0.4381550000000  0.5064300000000 1.0
C      1  0.5618440000000  0.4935760000000  0.4827330000000 1.0
C      1  0.4381570000000  0.4935700000000  0.5172680000000 1.0
C      1  0.5618440000000  0.5064320000000  0.5172640000000 1.0
C      1  0.4935700000000  0.5172630000000  0.4381560000000 1.0
C      1  0.5064280000000  0.5172690000000  0.5618430000000 1.0
C      1  0.4935760000000  0.4827360000000  0.5618450000000 1.0
C      1  0.5172620000000  0.5618450000000  0.5064240000000 1.0
C      1  0.4827300000000  0.5618420000000  0.4935710000000 1.0
C      1  0.5172690000000  0.4381570000000  0.4935750000000 1.0
C      1  0.5064310000000  0.4381560000000  0.4827370000000 1.0
C      1  0.4827320000000  0.5064240000000  0.4381560000000 1.0
C      1  0.4381570000000  0.4827310000000  0.5064300000000 1.0
C      1  0.4935680000000  0.5618430000000  0.4827320000000 1.0
C      1  0.4935770000000  0.4381560000000  0.5172680000000 1.0
C      1  0.5064240000000  0.5618450000000  0.5172630000000 1.0
C      1  0.5172640000000  0.4935720000000  0.4381560000000 1.0
C      1  0.5172670000000  0.5064310000000  0.5618430000000 1.0
C      1  0.4827370000000  0.4935740000000  0.5618450000000 1.0
C      1  0.5618430000000  0.5172700000000  0.5064250000000 1.0
C      1  0.5618450000000  0.4827380000000  0.4935720000000 1.0
C      1  0.4381550000000  0.5172610000000  0.4935740000000 1.0
C      1  0.4726410000000  0.4828590000000  0.5627470000000 1.0
C      1  0.4828530000000  0.5627430000000  0.4726360000000 1.0
C      1  0.5627470000000  0.4726420000000  0.4828580000000 1.0
C      1  0.5273620000000  0.5171460000000  0.5627440000000 1.0
C      1  0.4726360000000  0.5171370000000  0.4372550000000 1.0
C      1  0.5273610000000  0.4828580000000  0.4372550000000 1.0
C      1  0.5171450000000  0.4372550000000  0.4726400000000 1.0
C      1  0.4828630000000  0.4372550000000  0.5273650000000 1.0
C      1  0.5171390000000  0.5627480000000  0.5273590000000 1.0
C      1  0.4372520000000  0.5273570000000  0.4828590000000 1.0
C      1  0.5627440000000  0.5273660000000  0.5171390000000 1.0
C      1  0.4372570000000  0.4726350000000  0.5171450000000 1.0
C      1  0.4828620000000  0.4726400000000  0.5627470000000 1.0
C      1  0.5627460000000  0.4828610000000  0.4726370000000 1.0
C      1  0.4726340000000  0.5627430000000  0.4828570000000 1.0
C      1  0.5171420000000  0.5273650000000  0.5627440000000 1.0
C      1  0.5171420000000  0.4726370000000  0.4372550000000 1.0
C      1  0.4828550000000  0.5273580000000  0.4372540000000 1.0
C      1  0.4372530000000  0.5171370000000  0.4726400000000 1.0
C      1  0.4372570000000  0.4828550000000  0.5273640000000 1.0
C      1  0.5627450000000  0.5171470000000  0.5273590000000 1.0
C      1  0.5273650000000  0.4372560000000  0.4828600000000 1.0
C      1  0.5273580000000  0.5627480000000  0.5171380000000 1.0
C      1  0.4726430000000  0.4372540000000  0.5171450000000 1.0
C      1  0.5176020000000  0.4425150000000  0.5070600000000 1.0
C      1  0.4425140000000  0.5070550000000  0.5176000000000 1.0
C      1  0.5070550000000  0.5175960000000  0.4425130000000 1.0
C      1  0.4823980000000  0.5574860000000  0.5070560000000 1.0
C      1  0.5175940000000  0.5574870000000  0.4929390000000 1.0
C      1  0.4824050000000  0.4425120000000  0.4929450000000 1.0
C      1  0.5574870000000  0.4929460000000  0.5175970000000 1.0
C      1  0.4425140000000  0.4929370000000  0.4824040000000 1.0
C      1  0.5574850000000  0.5070610000000  0.4824000000000 1.0
C      1  0.4929410000000  0.4823990000000  0.4425150000000 1.0
C      1  0.5070610000000  0.4824050000000  0.5574870000000 1.0
C      1  0.4929420000000  0.5176000000000  0.5574860000000 1.0
C      1  0.4425130000000  0.5175950000000  0.5070590000000 1.0
C      1  0.5070620000000  0.4425150000000  0.5176000000000 1.0
C      1  0.5175960000000  0.5070570000000  0.4425130000000 1.0
C      1  0.5574880000000  0.4824060000000  0.5070570000000 1.0
C      1  0.5574850000000  0.5176020000000  0.4929390000000 1.0
C      1  0.4425150000000  0.4823980000000  0.4929440000000 1.0
C      1  0.4929390000000  0.5574870000000  0.5175960000000 1.0
C      1  0.4929450000000  0.4425120000000  0.4824040000000 1.0
C      1  0.5070540000000  0.5574860000000  0.4823990000000 1.0
C      1  0.4824010000000  0.4929380000000  0.4425140000000 1.0
C      1  0.4824030000000  0.5070590000000  0.5574870000000 1.0
C      1  0.5176000000000  0.4929450000000  0.5574860000000 1.0
C      1  0.4615010000000  0.4812740000000  0.4714910000000 1.0
C      1  0.4812790000000  0.4714860000000  0.4615030000000 1.0
C      1  0.4714910000000  0.4614980000000  0.4812800000000 1.0
C      1  0.5384970000000  0.5187240000000  0.4714870000000 1.0
C      1  0.4615000000000  0.5187210000000  0.5285120000000 1.0
C      1  0.5385010000000  0.4812810000000  0.5285110000000 1.0
C      1  0.5187190000000  0.5285110000000  0.4614990000000 1.0
C      1  0.4812770000000  0.5285120000000  0.5384990000000 1.0
C      1  0.5187250000000  0.4714910000000  0.5385000000000 1.0
C      1  0.5285080000000  0.5385000000000  0.4812750000000 1.0
C      1  0.4714870000000  0.5384980000000  0.5187210000000 1.0
C      1  0.5285140000000  0.4615030000000  0.5187230000000 1.0
C      1  0.4812790000000  0.4614990000000  0.4714910000000 1.0
C      1  0.4714890000000  0.4812740000000  0.4615020000000 1.0
C      1  0.4615020000000  0.4714850000000  0.4812800000000 1.0
C      1  0.5187190000000  0.5384990000000  0.4714870000000 1.0
C      1  0.5187250000000  0.4615030000000  0.5285120000000 1.0
C      1  0.4812760000000  0.5384990000000  0.5285100000000 1.0
C      1  0.5285090000000  0.5187220000000  0.4614990000000 1.0
C      1  0.5285140000000  0.4812810000000  0.5384990000000 1.0
C      1  0.4714890000000  0.5187220000000  0.5384990000000 1.0
C      1  0.5384970000000  0.5285130000000  0.4812760000000 1.0
C      1  0.5385020000000  0.4714920000000  0.5187220000000 1.0
C      1  0.4615000000000  0.5285100000000  0.5187220000000 1.0
C      1  0.5070560000000  0.5532610000000  0.4572460000000 1.0
C      1  0.5532650000000  0.4572520000000  0.5070610000000 1.0
C      1  0.4572500000000  0.5070600000000  0.5532630000000 1.0
C      1  0.4929410000000  0.4467360000000  0.4572510000000 1.0
C      1  0.5070660000000  0.4467400000000  0.5427530000000 1.0
C      1  0.4929370000000  0.5532630000000  0.5427490000000 1.0
C      1  0.4467360000000  0.5427480000000  0.5070610000000 1.0
C      1  0.5532590000000  0.5427540000000  0.4929360000000 1.0
C      1  0.4467410000000  0.4572450000000  0.4929420000000 1.0
C      1  0.5427530000000  0.4929440000000  0.5532610000000 1.0
C      1  0.4572480000000  0.4929340000000  0.4467400000000 1.0
C      1  0.5427490000000  0.5070620000000  0.4467370000000 1.0
C      1  0.5532600000000  0.5070630000000  0.4572470000000 1.0
C      1  0.4572460000000  0.5532590000000  0.5070600000000 1.0
C      1  0.5070650000000  0.4572510000000  0.5532630000000 1.0
C      1  0.4467370000000  0.4929340000000  0.4572510000000 1.0
C      1  0.4467390000000  0.5070590000000  0.5427520000000 1.0
C      1  0.5532640000000  0.4929440000000  0.5427500000000 1.0
C      1  0.5427550000000  0.4467410000000  0.5070620000000 1.0
C      1  0.5427480000000  0.5532640000000  0.4929360000000 1.0
C      1  0.4572520000000  0.4467350000000  0.4929420000000 1.0
C      1  0.4929380000000  0.5427530000000  0.5532600000000 1.0
C      1  0.4929400000000  0.4572460000000  0.4467400000000 1.0
C      1  0.5070570000000  0.5427500000000  0.4467360000000 1.0
C      1  0.5408170000000  0.5208910000000  0.5606220000000 1.0
C      1  0.5208830000000  0.5606270000000  0.5408130000000 1.0
C      1  0.5606220000000  0.5408210000000  0.5208820000000 1.0
C      1  0.4591870000000  0.4791140000000  0.5606260000000 1.0
C      1  0.5408160000000  0.4791150000000  0.4393760000000 1.0
C      1  0.4591800000000  0.5208810000000  0.4393770000000 1.0
C      1  0.4791200000000  0.4393770000000  0.5408200000000 1.0
C      1  0.5208880000000  0.4393760000000  0.4591850000000 1.0
C      1  0.4791090000000  0.5606210000000  0.4591820000000 1.0
C      1  0.4393800000000  0.4591800000000  0.5208890000000 1.0
C      1  0.5606260000000  0.4591870000000  0.4791140000000 1.0
C      1  0.4393730000000  0.5408120000000  0.4791150000000 1.0
C      1  0.5208850000000  0.5408200000000  0.5606210000000 1.0
C      1  0.5606230000000  0.5208910000000  0.5408140000000 1.0
C      1  0.5408130000000  0.5606270000000  0.5208820000000 1.0
C      1  0.4791190000000  0.4591850000000  0.5606260000000 1.0
C      1  0.4791100000000  0.5408130000000  0.4393750000000 1.0
C      1  0.5208860000000  0.4591820000000  0.4393770000000 1.0
C      1  0.4393790000000  0.4791120000000  0.5408190000000 1.0
C      1  0.4393740000000  0.5208800000000  0.4591840000000 1.0
C      1  0.5606240000000  0.4791170000000  0.4591830000000 1.0
C      1  0.4591880000000  0.4393750000000  0.5208890000000 1.0
C      1  0.4591790000000  0.5606200000000  0.4791130000000 1.0
C      1  0.5408200000000  0.4393780000000  0.4791160000000 1.0
C      1  0.4489980000000  0.4889990000000  0.5611730000000 1.0
C      1  0.4889940000000  0.5611680000000  0.4489930000000 1.0
C      1  0.5611740000000  0.4489990000000  0.4890000000000 1.0
C      1  0.5510060000000  0.5110060000000  0.5611690000000 1.0
C      1  0.4489930000000  0.5109950000000  0.4388300000000 1.0
C      1  0.5510030000000  0.4890000000000  0.4388280000000 1.0
C      1  0.5110030000000  0.4388270000000  0.4489980000000 1.0
C      1  0.4890050000000  0.4388300000000  0.5510070000000 1.0
C      1  0.5109980000000  0.5611740000000  0.5510020000000 1.0
C      1  0.4388250000000  0.5510000000000  0.4889990000000 1.0
C      1  0.5611680000000  0.5510090000000  0.5109970000000 1.0
C      1  0.4388320000000  0.4489920000000  0.5110040000000 1.0
C      1  0.4890040000000  0.4489970000000  0.5611740000000 1.0
C      1  0.5611700000000  0.4890010000000  0.4489940000000 1.0
C      1  0.4489910000000  0.5611680000000  0.4889980000000 1.0
C      1  0.5109990000000  0.5510080000000  0.5611690000000 1.0
C      1  0.5110020000000  0.4489940000000  0.4388300000000 1.0
C      1  0.4889940000000  0.5510010000000  0.4388270000000 1.0
C      1  0.4388270000000  0.5109950000000  0.4489970000000 1.0
C      1  0.4388310000000  0.4889980000000  0.5510070000000 1.0
C      1  0.5611720000000  0.5110070000000  0.5510020000000 1.0
C      1  0.5510080000000  0.4388320000000  0.4890000000000 1.0
C      1  0.5510010000000  0.5611750000000  0.5109970000000 1.0
C      1  0.4490000000000  0.4388260000000  0.5110050000000 1.0
C      1  0.5501530000000  0.5108510000000  0.4703900000000 1.0
C      1  0.5108530000000  0.4703950000000  0.5501550000000 1.0
C      1  0.4703890000000  0.5501530000000  0.5108480000000 1.0
C      1  0.4498460000000  0.4891460000000  0.4703940000000 1.0
C      1  0.5501560000000  0.4891550000000  0.5296070000000 1.0
C      1  0.4498460000000  0.5108470000000  0.5296090000000 1.0
C      1  0.4891500000000  0.5296090000000  0.5501530000000 1.0
C      1  0.5108460000000  0.5296060000000  0.4498440000000 1.0
C      1  0.4891510000000  0.4703900000000  0.4498470000000 1.0
C      1  0.5296110000000  0.4498480000000  0.5108510000000 1.0
C      1  0.4703950000000  0.4498430000000  0.4891530000000 1.0
C      1  0.5296040000000  0.5501560000000  0.4891480000000 1.0
C      1  0.5108450000000  0.5501540000000  0.4703900000000 1.0
C      1  0.4703930000000  0.5108490000000  0.5501550000000 1.0
C      1  0.5501560000000  0.4703960000000  0.5108490000000 1.0
C      1  0.4891530000000  0.4498440000000  0.4703950000000 1.0
C      1  0.4891480000000  0.5501550000000  0.5296060000000 1.0
C      1  0.5108530000000  0.4498480000000  0.5296090000000 1.0
C      1  0.5296100000000  0.4891550000000  0.5501540000000 1.0
C      1  0.5296060000000  0.5108490000000  0.4498440000000 1.0
C      1  0.4703920000000  0.4891470000000  0.4498470000000 1.0
C      1  0.4498440000000  0.5296050000000  0.5108500000000 1.0
C      1  0.4498470000000  0.4703890000000  0.4891530000000 1.0
C      1  0.5501520000000  0.5296100000000  0.4891480000000 1.0
END
