TITL C-114179-1211-36 -0.0279373329577691 1000000 -1697.81342047042 0 0 240 (Td) n - 1
REM
REM in /home/chem/mssmkc/work/GAP20/Larger-Clusters/Only-C240/New/BUILD-ONLY
REM
REM
REM
REM
REM
REM ./C.cell (daee87de7206da95283bc1c1416dbc6f)
REM
REM compiler GCC version 8.3.0
REM options -cpp -mtune=generic -march=x86-64 -g -O0
REM seed 749755798 2054499945 -931499979 1349598143 -1675462228 -1635690307 -1947694637 1456514241 2073222726 1697292001 -1254496808 -162074971 230839410 282082499 -391045766 559311164 242104791 -1886094175 -491386962 -1794463680 229955861 791770565 1619824549 1391832315 -1335917844 2054123615 821653529 -938434629 1554018203 1126313520 -289070343 -1809307369 289546006
REM
CELL 1.54180  100.00000  100.00000  100.00000   90.00000   90.00000   90.00000
LATT -1
SFAC C  
C      1  0.4842980000000  0.4732740000000  0.4626650000000 1.0
C      1  0.4732710000000  0.4626690000000  0.4842960000000 1.0
C      1  0.4626670000000  0.4843010000000  0.4732700000000 1.0
C      1  0.4842970000000  0.5267280000000  0.5373330000000 1.0
C      1  0.5156980000000  0.4732710000000  0.5373340000000 1.0
C      1  0.5157060000000  0.5267270000000  0.4626680000000 1.0
C      1  0.4732740000000  0.5373350000000  0.5157010000000 1.0
C      1  0.5267240000000  0.4626650000000  0.5157030000000 1.0
C      1  0.5267310000000  0.5373320000000  0.4843000000000 1.0
C      1  0.4626660000000  0.5157040000000  0.5267250000000 1.0
C      1  0.5373310000000  0.4842950000000  0.5267290000000 1.0
C      1  0.5373360000000  0.5157000000000  0.4732750000000 1.0
C      1  0.4842970000000  0.4626680000000  0.4732710000000 1.0
C      1  0.4732740000000  0.4843000000000  0.4626650000000 1.0
C      1  0.4626660000000  0.4732750000000  0.4842950000000 1.0
C      1  0.4842990000000  0.5373340000000  0.5267270000000 1.0
C      1  0.5157060000000  0.5373330000000  0.4732740000000 1.0
C      1  0.5156980000000  0.4626650000000  0.5267280000000 1.0
C      1  0.4732710000000  0.5157030000000  0.5373320000000 1.0
C      1  0.5267310000000  0.5157010000000  0.4626680000000 1.0
C      1  0.5267240000000  0.4842960000000  0.5373350000000 1.0
C      1  0.4626670000000  0.5267300000000  0.5157000000000 1.0
C      1  0.5373360000000  0.5267250000000  0.4843010000000 1.0
C      1  0.5373310000000  0.4732700000000  0.5157040000000 1.0
C      1  0.5277120000000  0.4923240000000  0.4450760000000 1.0
C      1  0.4923200000000  0.4450740000000  0.5277080000000 1.0
C      1  0.4450760000000  0.5277130000000  0.4923220000000 1.0
C      1  0.5277060000000  0.5076720000000  0.5549280000000 1.0
C      1  0.4722870000000  0.4923260000000  0.5549240000000 1.0
C      1  0.4722950000000  0.5076770000000  0.4450730000000 1.0
C      1  0.4923300000000  0.5549270000000  0.4722910000000 1.0
C      1  0.5076730000000  0.4450740000000  0.4722900000000 1.0
C      1  0.5076770000000  0.5549250000000  0.5277110000000 1.0
C      1  0.4450720000000  0.4722940000000  0.5076710000000 1.0
C      1  0.5549270000000  0.5277060000000  0.5076790000000 1.0
C      1  0.5549250000000  0.4722870000000  0.4923280000000 1.0
C      1  0.5277060000000  0.4450720000000  0.4923260000000 1.0
C      1  0.4923300000000  0.5277110000000  0.4450740000000 1.0
C      1  0.4450720000000  0.4923280000000  0.5277060000000 1.0
C      1  0.5277120000000  0.5549240000000  0.5076770000000 1.0
C      1  0.4722950000000  0.5549280000000  0.4923240000000 1.0
C      1  0.4722870000000  0.4450760000000  0.5076720000000 1.0
C      1  0.4923200000000  0.4722900000000  0.5549250000000 1.0
C      1  0.5076760000000  0.4722910000000  0.4450740000000 1.0
C      1  0.5076730000000  0.5277080000000  0.5549270000000 1.0
C      1  0.4450760000000  0.5076790000000  0.4722870000000 1.0
C      1  0.5549250000000  0.5076710000000  0.5277130000000 1.0
C      1  0.5549270000000  0.4923220000000  0.4722940000000 1.0
C      1  0.4509370000000  0.5154390000000  0.5375420000000 1.0
C      1  0.5154420000000  0.5375450000000  0.4509400000000 1.0
C      1  0.5375410000000  0.4509350000000  0.5154380000000 1.0
C      1  0.4509390000000  0.4845670000000  0.4624520000000 1.0
C      1  0.5490650000000  0.5154340000000  0.4624580000000 1.0
C      1  0.5490590000000  0.4845600000000  0.5375480000000 1.0
C      1  0.5154310000000  0.4624530000000  0.5490620000000 1.0
C      1  0.4845630000000  0.5375450000000  0.5490620000000 1.0
C      1  0.4845640000000  0.4624560000000  0.4509360000000 1.0
C      1  0.5375490000000  0.5490600000000  0.4845670000000 1.0
C      1  0.4624530000000  0.4509410000000  0.4845610000000 1.0
C      1  0.4624570000000  0.5490640000000  0.5154350000000 1.0
C      1  0.4509390000000  0.5375480000000  0.5154340000000 1.0
C      1  0.5154310000000  0.4509360000000  0.5375450000000 1.0
C      1  0.5375490000000  0.5154350000000  0.4509410000000 1.0
C      1  0.4509370000000  0.4624580000000  0.4845600000000 1.0
C      1  0.5490590000000  0.4624510000000  0.5154390000000 1.0
C      1  0.5490650000000  0.5375420000000  0.4845670000000 1.0
C      1  0.5154420000000  0.5490620000000  0.4624560000000 1.0
C      1  0.4845650000000  0.5490620000000  0.5375450000000 1.0
C      1  0.4845630000000  0.4509400000000  0.4624530000000 1.0
C      1  0.5375410000000  0.4845610000000  0.5490640000000 1.0
C      1  0.4624570000000  0.4845670000000  0.4509350000000 1.0
C      1  0.4624530000000  0.5154380000000  0.5490600000000 1.0
C      1  0.5562060000000  0.5028800000000  0.4626280000000 1.0
C      1  0.5028780000000  0.4626240000000  0.5562030000000 1.0
C      1  0.4626280000000  0.5562060000000  0.5028820000000 1.0
C      1  0.5562010000000  0.4971130000000  0.5373790000000 1.0
C      1  0.4437940000000  0.5028860000000  0.5373720000000 1.0
C      1  0.4437980000000  0.4971210000000  0.4626210000000 1.0
C      1  0.5028890000000  0.5373760000000  0.4437970000000 1.0
C      1  0.4971180000000  0.4626260000000  0.4437960000000 1.0
C      1  0.4971160000000  0.5373740000000  0.5562040000000 1.0
C      1  0.4626210000000  0.4437990000000  0.4971140000000 1.0
C      1  0.5373790000000  0.5562010000000  0.4971200000000 1.0
C      1  0.5373710000000  0.4437940000000  0.5028850000000 1.0
C      1  0.5562010000000  0.4626210000000  0.5028860000000 1.0
C      1  0.5028890000000  0.5562040000000  0.4626260000000 1.0
C      1  0.4626220000000  0.5028850000000  0.5562010000000 1.0
C      1  0.5562060000000  0.5373720000000  0.4971210000000 1.0
C      1  0.4437990000000  0.5373790000000  0.5028810000000 1.0
C      1  0.4437940000000  0.4626280000000  0.4971130000000 1.0
C      1  0.5028780000000  0.4437960000000  0.5373740000000 1.0
C      1  0.4971150000000  0.4437970000000  0.4626240000000 1.0
C      1  0.4971180000000  0.5562030000000  0.5373760000000 1.0
C      1  0.4626280000000  0.4971200000000  0.4437940000000 1.0
C      1  0.5373720000000  0.4971130000000  0.5562060000000 1.0
C      1  0.5373790000000  0.5028820000000  0.4437990000000 1.0
C      1  0.4700970000000  0.5399440000000  0.4498510000000 1.0
C      1  0.5399400000000  0.4498510000000  0.4700940000000 1.0
C      1  0.4498480000000  0.4700940000000  0.5399380000000 1.0
C      1  0.4700860000000  0.4600600000000  0.5501450000000 1.0
C      1  0.5299080000000  0.5399390000000  0.5501500000000 1.0
C      1  0.5299090000000  0.4600580000000  0.4498540000000 1.0
C      1  0.5399430000000  0.5501440000000  0.5299110000000 1.0
C      1  0.4600540000000  0.4498550000000  0.5299050000000 1.0
C      1  0.4600640000000  0.5501500000000  0.4700900000000 1.0
C      1  0.4498570000000  0.5299120000000  0.4600560000000 1.0
C      1  0.5501480000000  0.4700890000000  0.4600610000000 1.0
C      1  0.5501470000000  0.5299040000000  0.5399450000000 1.0
C      1  0.4700860000000  0.4498540000000  0.5399390000000 1.0
C      1  0.5399420000000  0.4700900000000  0.4498550000000 1.0
C      1  0.4498570000000  0.5399450000000  0.4700900000000 1.0
C      1  0.4700980000000  0.5501500000000  0.4600580000000 1.0
C      1  0.5299090000000  0.5501450000000  0.5399440000000 1.0
C      1  0.5299070000000  0.4498510000000  0.4600600000000 1.0
C      1  0.5399400000000  0.5299050000000  0.5501500000000 1.0
C      1  0.4600640000000  0.5299110000000  0.4498510000000 1.0
C      1  0.4600540000000  0.4700940000000  0.5501450000000 1.0
C      1  0.4498480000000  0.4600620000000  0.5299040000000 1.0
C      1  0.5501470000000  0.4600560000000  0.4700940000000 1.0
C      1  0.5501480000000  0.5399380000000  0.5299120000000 1.0
C      1  0.5065460000000  0.4835270000000  0.4534730000000 1.0
C      1  0.4835230000000  0.4534740000000  0.5065420000000 1.0
C      1  0.4534750000000  0.5065470000000  0.4835240000000 1.0
C      1  0.5065420000000  0.5164720000000  0.5465270000000 1.0
C      1  0.4934520000000  0.4835260000000  0.5465260000000 1.0
C      1  0.4934600000000  0.5164750000000  0.4534730000000 1.0
C      1  0.4835300000000  0.5465280000000  0.4934560000000 1.0
C      1  0.5164710000000  0.4534720000000  0.4934560000000 1.0
C      1  0.5164760000000  0.5465260000000  0.5065460000000 1.0
C      1  0.4534720000000  0.4934590000000  0.5164700000000 1.0
C      1  0.5465260000000  0.5065410000000  0.5164760000000 1.0
C      1  0.5465270000000  0.4934530000000  0.4835290000000 1.0
C      1  0.5065420000000  0.4534730000000  0.4835260000000 1.0
C      1  0.4835300000000  0.5065460000000  0.4534720000000 1.0
C      1  0.4534720000000  0.4835290000000  0.5065410000000 1.0
C      1  0.5065460000000  0.5465260000000  0.5164740000000 1.0
C      1  0.4934600000000  0.5465270000000  0.4835270000000 1.0
C      1  0.4934520000000  0.4534730000000  0.5164720000000 1.0
C      1  0.4835230000000  0.4934560000000  0.5465260000000 1.0
C      1  0.5164760000000  0.4934560000000  0.4534740000000 1.0
C      1  0.5164710000000  0.5065420000000  0.5465280000000 1.0
C      1  0.4534750000000  0.5164760000000  0.4934540000000 1.0
C      1  0.5465270000000  0.5164700000000  0.5065470000000 1.0
C      1  0.5465260000000  0.4835240000000  0.4934590000000 1.0
C      1  0.4420610000000  0.5358990000000  0.5270570000000 1.0
C      1  0.5359010000000  0.5270590000000  0.4420630000000 1.0
C      1  0.5270540000000  0.4420590000000  0.5358960000000 1.0
C      1  0.4420600000000  0.4641090000000  0.4729360000000 1.0
C      1  0.5579430000000  0.5358920000000  0.4729440000000 1.0
C      1  0.5579350000000  0.4641000000000  0.5270630000000 1.0
C      1  0.5358900000000  0.4729370000000  0.5579410000000 1.0
C      1  0.4641030000000  0.5270620000000  0.5579370000000 1.0
C      1  0.4641060000000  0.4729430000000  0.4420580000000 1.0
C      1  0.5270660000000  0.5579380000000  0.4641070000000 1.0
C      1  0.4729380000000  0.4420630000000  0.4641020000000 1.0
C      1  0.4729410000000  0.5579400000000  0.5358950000000 1.0
C      1  0.4420600000000  0.5270630000000  0.5358920000000 1.0
C      1  0.5358900000000  0.4420580000000  0.5270610000000 1.0
C      1  0.5270660000000  0.5358950000000  0.4420630000000 1.0
C      1  0.4420610000000  0.4729440000000  0.4641010000000 1.0
C      1  0.5579350000000  0.4729360000000  0.5358990000000 1.0
C      1  0.5579430000000  0.5270570000000  0.4641080000000 1.0
C      1  0.5359010000000  0.5579370000000  0.4729430000000 1.0
C      1  0.4641070000000  0.5579410000000  0.5270590000000 1.0
C      1  0.4641030000000  0.4420640000000  0.4729370000000 1.0
C      1  0.5270540000000  0.4641020000000  0.5579400000000 1.0
C      1  0.4729410000000  0.4641070000000  0.4420590000000 1.0
C      1  0.4729390000000  0.5358960000000  0.5579380000000 1.0
C      1  0.5178450000000  0.5571220000000  0.5377920000000 1.0
C      1  0.5571250000000  0.5377870000000  0.5178480000000 1.0
C      1  0.5377880000000  0.5178410000000  0.5571260000000 1.0
C      1  0.5178430000000  0.4428760000000  0.4622100000000 1.0
C      1  0.4821620000000  0.5571250000000  0.4622090000000 1.0
C      1  0.4821500000000  0.4428770000000  0.5377890000000 1.0
C      1  0.5571220000000  0.4622060000000  0.4821590000000 1.0
C      1  0.4428800000000  0.5377940000000  0.4821530000000 1.0
C      1  0.4428730000000  0.4622130000000  0.5178400000000 1.0
C      1  0.5377930000000  0.4821550000000  0.4428790000000 1.0
C      1  0.4622140000000  0.5178470000000  0.4428750000000 1.0
C      1  0.4622050000000  0.4821580000000  0.5571210000000 1.0
C      1  0.5178430000000  0.5377880000000  0.5571250000000 1.0
C      1  0.5571220000000  0.5178400000000  0.5377940000000 1.0
C      1  0.5377930000000  0.5571210000000  0.5178470000000 1.0
C      1  0.5178450000000  0.4622090000000  0.4428770000000 1.0
C      1  0.4821500000000  0.4622100000000  0.5571220000000 1.0
C      1  0.4821620000000  0.5377920000000  0.4428760000000 1.0
C      1  0.5571240000000  0.4821530000000  0.4622130000000 1.0
C      1  0.4428730000000  0.4821590000000  0.5377870000000 1.0
C      1  0.4428800000000  0.5178480000000  0.4622060000000 1.0
C      1  0.5377880000000  0.4428750000000  0.4821580000000 1.0
C      1  0.4622050000000  0.4428790000000  0.5178410000000 1.0
C      1  0.4622140000000  0.5571260000000  0.4821550000000 1.0
C      1  0.4843430000000  0.4602780000000  0.4941560000000 1.0
C      1  0.4602770000000  0.4941600000000  0.4843430000000 1.0
C      1  0.4941590000000  0.4843460000000  0.4602760000000 1.0
C      1  0.4843470000000  0.5397240000000  0.5058420000000 1.0
C      1  0.5156520000000  0.4602760000000  0.5058430000000 1.0
C      1  0.5156580000000  0.5397220000000  0.4941590000000 1.0
C      1  0.4602760000000  0.5058450000000  0.5156520000000 1.0
C      1  0.5397220000000  0.4941550000000  0.5156570000000 1.0
C      1  0.5397240000000  0.5058400000000  0.4843480000000 1.0
C      1  0.4941560000000  0.5156550000000  0.5397230000000 1.0
C      1  0.5058390000000  0.4843440000000  0.5397230000000 1.0
C      1  0.5058460000000  0.5156550000000  0.4602770000000 1.0
C      1  0.4843470000000  0.4941590000000  0.4602760000000 1.0
C      1  0.4602760000000  0.4843480000000  0.4941550000000 1.0
C      1  0.4941560000000  0.4602770000000  0.4843440000000 1.0
C      1  0.4843430000000  0.5058430000000  0.5397220000000 1.0
C      1  0.5156580000000  0.5058420000000  0.4602780000000 1.0
C      1  0.5156520000000  0.4941560000000  0.5397240000000 1.0
C      1  0.4602780000000  0.5156570000000  0.5058400000000 1.0
C      1  0.5397240000000  0.5156520000000  0.4941600000000 1.0
C      1  0.5397220000000  0.4843430000000  0.5058440000000 1.0
C      1  0.4941590000000  0.5397230000000  0.5156550000000 1.0
C      1  0.5058460000000  0.5397230000000  0.4843460000000 1.0
C      1  0.5058390000000  0.4602760000000  0.5156550000000 1.0
C      1  0.5477340000000  0.5576180000000  0.5069690000000 1.0
C      1  0.5576190000000  0.5069610000000  0.5477350000000 1.0
C      1  0.5069650000000  0.5477300000000  0.5576230000000 1.0
C      1  0.5477280000000  0.4423760000000  0.4930370000000 1.0
C      1  0.4522730000000  0.5576250000000  0.4930330000000 1.0
C      1  0.4522650000000  0.4423810000000  0.5069620000000 1.0
C      1  0.5576240000000  0.4930320000000  0.4522720000000 1.0
C      1  0.4423820000000  0.5069700000000  0.4522650000000 1.0
C      1  0.4423750000000  0.4930380000000  0.5477280000000 1.0
C      1  0.5069660000000  0.4522690000000  0.4423780000000 1.0
C      1  0.4930410000000  0.5477330000000  0.4423790000000 1.0
C      1  0.4930280000000  0.4522680000000  0.5576200000000 1.0
C      1  0.5477280000000  0.5069610000000  0.5576240000000 1.0
C      1  0.5576240000000  0.5477270000000  0.5069700000000 1.0
C      1  0.5069660000000  0.5576200000000  0.5477330000000 1.0
C      1  0.5477340000000  0.4930330000000  0.4423810000000 1.0
C      1  0.4522650000000  0.4930370000000  0.5576180000000 1.0
C      1  0.4522730000000  0.5069690000000  0.4423760000000 1.0
C      1  0.5576190000000  0.4522650000000  0.4930370000000 1.0
C      1  0.4423750000000  0.4522720000000  0.5069610000000 1.0
C      1  0.4423820000000  0.5477350000000  0.4930320000000 1.0
C      1  0.5069650000000  0.4423790000000  0.4522680000000 1.0
C      1  0.4930280000000  0.4423780000000  0.5477300000000 1.0
C      1  0.4930410000000  0.5576230000000  0.4522690000000 1.0
END
