TITL C-114181-47-17 61.2990766917462 1000000 -1673.58588077522 0 0 240 (C1) n - 1
REM
REM in /home/chem/mssmkc/work/GAP20/Larger-Clusters/Only-C240/New/BUILD-ONLY
REM
REM
REM
REM
REM
REM ./C.cell (daee87de7206da95283bc1c1416dbc6f)
REM
REM compiler GCC version 8.3.0
REM options -cpp -mtune=generic -march=x86-64 -g -O0
REM seed 1764244046 -725154992 -1895707572 789483320 -2094525109 392976947 -1307151691 -998303111 1187814674 -36840726 -685764667 1408947118 -1930044883 -806001165 -1521424332 -1977994726 1155378861 -1703636535 285789349 -380735893 2141118065 -1318022587 993707735 -2034888768 995516271 -551231582 1271100859 503249786 -1120682380 -1995721726 1416911561 1822247176 1314089040
REM
CELL 1.54180  100.00000  100.00000  100.00000   90.00000   90.00000   90.00000
LATT -1
SFAC C  
C      1  0.5219700000000  0.4589260000000  0.5359140000000 1.0
C      1  0.4579030000000  0.5360460000000  0.5222970000000 1.0
C      1  0.5357290000000  0.5217560000000  0.4592760000000 1.0
C      1  0.4772810000000  0.5406330000000  0.5357850000000 1.0
C      1  0.5217330000000  0.5407330000000  0.4645070000000 1.0
C      1  0.4783720000000  0.4589590000000  0.4643150000000 1.0
C      1  0.5409950000000  0.4641260000000  0.5219320000000 1.0
C      1  0.4601170000000  0.4645810000000  0.4792470000000 1.0
C      1  0.5407100000000  0.5355510000000  0.4784460000000 1.0
C      1  0.4644980000000  0.4780130000000  0.4594490000000 1.0
C      1  0.5360450000000  0.4779230000000  0.5410790000000 1.0
C      1  0.4637330000000  0.5208380000000  0.5405560000000 1.0
C      1  0.5219630000000  0.4591280000000  0.4645070000000 1.0
C      1  0.4590300000000  0.5359370000000  0.4778200000000 1.0
C      1  0.5357940000000  0.5217320000000  0.5409950000000 1.0
C      1  0.4782510000000  0.5409490000000  0.4641540000000 1.0
C      1  0.5216790000000  0.5406460000000  0.5358180000000 1.0
C      1  0.4773720000000  0.4588010000000  0.5354720000000 1.0
C      1  0.5410870000000  0.4642190000000  0.4783100000000 1.0
C      1  0.4585300000000  0.4649000000000  0.5214970000000 1.0
C      1  0.5406970000000  0.5355600000000  0.5218540000000 1.0
C      1  0.4646350000000  0.4785600000000  0.5407630000000 1.0
C      1  0.5358360000000  0.4781580000000  0.4593030000000 1.0
C      1  0.4643820000000  0.5219570000000  0.4588470000000 1.0
C      1  0.4860110000000  0.5603140000000  0.4738560000000 1.0
C      1  0.5604600000000  0.4737680000000  0.4861850000000 1.0
C      1  0.4746430000000  0.4860480000000  0.5599640000000 1.0
C      1  0.5142030000000  0.4396710000000  0.4739970000000 1.0
C      1  0.4857000000000  0.4397540000000  0.5258870000000 1.0
C      1  0.5135320000000  0.5599340000000  0.5263490000000 1.0
C      1  0.4396440000000  0.5263240000000  0.4854150000000 1.0
C      1  0.5602080000000  0.5261270000000  0.5140460000000 1.0
C      1  0.4389790000000  0.4766400000000  0.5153080000000 1.0
C      1  0.5263150000000  0.5137910000000  0.5603690000000 1.0
C      1  0.4739990000000  0.5138600000000  0.4396380000000 1.0
C      1  0.5263030000000  0.4860120000000  0.4399020000000 1.0
C      1  0.4855840000000  0.5599070000000  0.5262520000000 1.0
C      1  0.5603950000000  0.4737350000000  0.5140280000000 1.0
C      1  0.4739700000000  0.4859650000000  0.4399360000000 1.0
C      1  0.5137520000000  0.4397050000000  0.5262830000000 1.0
C      1  0.4864240000000  0.4396130000000  0.4736980000000 1.0
C      1  0.5138160000000  0.5601090000000  0.4740550000000 1.0
C      1  0.4388820000000  0.5267640000000  0.5131090000000 1.0
C      1  0.5602160000000  0.5261300000000  0.4862180000000 1.0
C      1  0.4409520000000  0.4745960000000  0.4876480000000 1.0
C      1  0.5263030000000  0.5138710000000  0.4398340000000 1.0
C      1  0.4742420000000  0.5130040000000  0.5596910000000 1.0
C      1  0.5265580000000  0.4859520000000  0.5604290000000 1.0
C      1  0.5292130000000  0.4572060000000  0.4765750000000 1.0
C      1  0.4576750000000  0.4768670000000  0.5288200000000 1.0
C      1  0.4765110000000  0.5290940000000  0.4570770000000 1.0
C      1  0.4709440000000  0.5428430000000  0.4761750000000 1.0
C      1  0.5287640000000  0.5425050000000  0.5236720000000 1.0
C      1  0.4701920000000  0.4572090000000  0.5231780000000 1.0
C      1  0.5426980000000  0.5234990000000  0.5290680000000 1.0
C      1  0.4573400000000  0.5237830000000  0.4706860000000 1.0
C      1  0.5429070000000  0.4763280000000  0.4711360000000 1.0
C      1  0.5237140000000  0.4710060000000  0.4574940000000 1.0
C      1  0.4761830000000  0.4705000000000  0.5428220000000 1.0
C      1  0.5236630000000  0.5288280000000  0.5428510000000 1.0
C      1  0.5291250000000  0.4570730000000  0.5237950000000 1.0
C      1  0.4577910000000  0.4763570000000  0.4715740000000 1.0
C      1  0.4756280000000  0.5286130000000  0.5426030000000 1.0
C      1  0.4700010000000  0.5427680000000  0.5237910000000 1.0
C      1  0.5287930000000  0.5425060000000  0.4766940000000 1.0
C      1  0.4716120000000  0.4572930000000  0.4766500000000 1.0
C      1  0.5426630000000  0.5234990000000  0.4712000000000 1.0
C      1  0.4560370000000  0.5236120000000  0.5290710000000 1.0
C      1  0.5429200000000  0.4762090000000  0.5291260000000 1.0
C      1  0.5239660000000  0.4707370000000  0.5429780000000 1.0
C      1  0.4765720000000  0.4708720000000  0.4574080000000 1.0
C      1  0.5236370000000  0.5289440000000  0.4573730000000 1.0
C      1  0.5714960000000  0.4806610000000  0.5073360000000 1.0
C      1  0.4811840000000  0.5068200000000  0.5709340000000 1.0
C      1  0.5071230000000  0.5712440000000  0.4809160000000 1.0
C      1  0.4281210000000  0.5197990000000  0.5061330000000 1.0
C      1  0.5713580000000  0.5192990000000  0.4929240000000 1.0
C      1  0.4295340000000  0.4812800000000  0.4932760000000 1.0
C      1  0.5195810000000  0.4926420000000  0.5714920000000 1.0
C      1  0.4808390000000  0.4926280000000  0.4287560000000 1.0
C      1  0.5194640000000  0.5071170000000  0.4287280000000 1.0
C      1  0.4930630000000  0.4284810000000  0.4806170000000 1.0
C      1  0.5070250000000  0.4286440000000  0.5193530000000 1.0
C      1  0.4923960000000  0.5710300000000  0.5194670000000 1.0
C      1  0.5715260000000  0.4806850000000  0.4929140000000 1.0
C      1  0.4808950000000  0.5070550000000  0.4286310000000 1.0
C      1  0.5068230000000  0.5710530000000  0.5195060000000 1.0
C      1  0.4284420000000  0.5195140000000  0.4918590000000 1.0
C      1  0.5713540000000  0.5192890000000  0.5073450000000 1.0
C      1  0.4278650000000  0.4827790000000  0.5075370000000 1.0
C      1  0.5194400000000  0.4926920000000  0.4287730000000 1.0
C      1  0.4813970000000  0.4924570000000  0.5710970000000 1.0
C      1  0.5194070000000  0.5070890000000  0.5714420000000 1.0
C      1  0.4925960000000  0.4286700000000  0.5191850000000 1.0
C      1  0.5074630000000  0.4285550000000  0.4807900000000 1.0
C      1  0.4927080000000  0.5713320000000  0.4808590000000 1.0
C      1  0.5072310000000  0.4742570000000  0.4369720000000 1.0
C      1  0.4742600000000  0.4366930000000  0.5066750000000 1.0
C      1  0.4371430000000  0.5069280000000  0.4739760000000 1.0
C      1  0.4930810000000  0.5256100000000  0.4367150000000 1.0
C      1  0.5070930000000  0.5255120000000  0.5630770000000 1.0
C      1  0.4933460000000  0.4737330000000  0.5633090000000 1.0
C      1  0.5253530000000  0.5629640000000  0.5073460000000 1.0
C      1  0.4741240000000  0.5631710000000  0.4929010000000 1.0
C      1  0.5258460000000  0.4366660000000  0.4931490000000 1.0
C      1  0.5633280000000  0.4928930000000  0.4744740000000 1.0
C      1  0.4411750000000  0.4957500000000  0.5302360000000 1.0
C      1  0.5632370000000  0.5070260000000  0.5257660000000 1.0
C      1  0.5075570000000  0.4739250000000  0.5633390000000 1.0
C      1  0.4745730000000  0.4366700000000  0.4925920000000 1.0
C      1  0.4362940000000  0.5068120000000  0.5234610000000 1.0
C      1  0.4928660000000  0.5255240000000  0.5629630000000 1.0
C      1  0.5072400000000  0.5256230000000  0.4367660000000 1.0
C      1  0.4930670000000  0.4742220000000  0.4369390000000 1.0
C      1  0.5254460000000  0.5629920000000  0.4931920000000 1.0
C      1  0.4739320000000  0.5631000000000  0.5070730000000 1.0
C      1  0.5257020000000  0.4366580000000  0.5073120000000 1.0
C      1  0.5632950000000  0.4928570000000  0.5257690000000 1.0
C      1  0.4374140000000  0.4928010000000  0.4742840000000 1.0
C      1  0.5632550000000  0.5070580000000  0.4744780000000 1.0
C      1  0.5516230000000  0.4847650000000  0.4800760000000 1.0
C      1  0.4852050000000  0.4788260000000  0.5515960000000 1.0
C      1  0.4797630000000  0.5514980000000  0.4847780000000 1.0
C      1  0.4486840000000  0.5152980000000  0.4796340000000 1.0
C      1  0.5514670000000  0.5150720000000  0.5201540000000 1.0
C      1  0.4493060000000  0.4863000000000  0.5203410000000 1.0
C      1  0.5152170000000  0.5197590000000  0.5514500000000 1.0
C      1  0.4849830000000  0.5200550000000  0.4484640000000 1.0
C      1  0.5152720000000  0.4799240000000  0.4487280000000 1.0
C      1  0.5203390000000  0.4484340000000  0.4850330000000 1.0
C      1  0.4795110000000  0.4485410000000  0.5148280000000 1.0
C      1  0.5196970000000  0.5511920000000  0.5153130000000 1.0
C      1  0.5515870000000  0.4847170000000  0.5201710000000 1.0
C      1  0.4849900000000  0.4798550000000  0.4486640000000 1.0
C      1  0.4792030000000  0.5513280000000  0.5152450000000 1.0
C      1  0.4476410000000  0.5157890000000  0.5189560000000 1.0
C      1  0.5514630000000  0.5150780000000  0.4800920000000 1.0
C      1  0.4491260000000  0.4851530000000  0.4802080000000 1.0
C      1  0.5152580000000  0.5200350000000  0.4485690000000 1.0
C      1  0.4847880000000  0.5201460000000  0.5512140000000 1.0
C      1  0.5155070000000  0.4797600000000  0.5516040000000 1.0
C      1  0.5201170000000  0.4484090000000  0.5153530000000 1.0
C      1  0.4804730000000  0.4484010000000  0.4847690000000 1.0
C      1  0.5197930000000  0.5512330000000  0.4851050000000 1.0
C      1  0.5531300000000  0.4616460000000  0.5143410000000 1.0
C      1  0.4626990000000  0.5115330000000  0.5520090000000 1.0
C      1  0.5142480000000  0.5528990000000  0.4619610000000 1.0
C      1  0.4460400000000  0.5388150000000  0.5142610000000 1.0
C      1  0.5528890000000  0.5381590000000  0.4859260000000 1.0
C      1  0.4488220000000  0.4627710000000  0.4884630000000 1.0
C      1  0.5385930000000  0.4856130000000  0.5531380000000 1.0
C      1  0.4619260000000  0.4856030000000  0.4472790000000 1.0
C      1  0.5383380000000  0.5142060000000  0.4471420000000 1.0
C      1  0.4858880000000  0.4468160000000  0.4616370000000 1.0
C      1  0.5140830000000  0.4469400000000  0.5383510000000 1.0
C      1  0.4852580000000  0.5525050000000  0.5382670000000 1.0
C      1  0.5532270000000  0.4616830000000  0.4858520000000 1.0
C      1  0.4619100000000  0.5142220000000  0.4468090000000 1.0
C      1  0.5139420000000  0.5526700000000  0.5383830000000 1.0
C      1  0.4468660000000  0.5383910000000  0.4854240000000 1.0
C      1  0.5528730000000  0.5381640000000  0.5143640000000 1.0
C      1  0.4450590000000  0.4639350000000  0.5149980000000 1.0
C      1  0.5383700000000  0.4857000000000  0.4471560000000 1.0
C      1  0.4632600000000  0.4874570000000  0.5521930000000 1.0
C      1  0.5383720000000  0.5141510000000  0.5531100000000 1.0
C      1  0.4852690000000  0.4469630000000  0.5379140000000 1.0
C      1  0.5143950000000  0.4469940000000  0.4619620000000 1.0
C      1  0.4858190000000  0.5530970000000  0.4617480000000 1.0
C      1  0.5433490000000  0.5070150000000  0.5074310000000 1.0
C      1  0.5073760000000  0.5070020000000  0.5432320000000 1.0
C      1  0.5068160000000  0.5430670000000  0.5073110000000 1.0
C      1  0.4571530000000  0.4941200000000  0.5077850000000 1.0
C      1  0.5434090000000  0.4927160000000  0.4928280000000 1.0
C      1  0.4567930000000  0.5077990000000  0.4925520000000 1.0
C      1  0.4931980000000  0.4922150000000  0.5431310000000 1.0
C      1  0.5072420000000  0.4926960000000  0.4568130000000 1.0
C      1  0.4929340000000  0.5073010000000  0.4567330000000 1.0
C      1  0.4927150000000  0.4567390000000  0.5071620000000 1.0
C      1  0.5075480000000  0.4565900000000  0.4930080000000 1.0
C      1  0.4923190000000  0.5432140000000  0.4929230000000 1.0
C      1  0.5433520000000  0.5070180000000  0.4928290000000 1.0
C      1  0.5072360000000  0.5072990000000  0.4567600000000 1.0
C      1  0.5069160000000  0.5431460000000  0.4930210000000 1.0
C      1  0.4571140000000  0.4935100000000  0.4930940000000 1.0
C      1  0.5434060000000  0.4927100000000  0.5074330000000 1.0
C      1  0.4570720000000  0.5084140000000  0.5071230000000 1.0
C      1  0.4929420000000  0.4926840000000  0.4567930000000 1.0
C      1  0.5074910000000  0.4923760000000  0.5432830000000 1.0
C      1  0.4930620000000  0.5068980000000  0.5430890000000 1.0
C      1  0.4929950000000  0.4566850000000  0.4928640000000 1.0
C      1  0.5073520000000  0.4566430000000  0.5073100000000 1.0
C      1  0.4921760000000  0.5431330000000  0.5072400000000 1.0
C      1  0.4932870000000  0.4455090000000  0.5493970000000 1.0
C      1  0.4451120000000  0.5496830000000  0.4935330000000 1.0
C      1  0.5499180000000  0.4936340000000  0.4454930000000 1.0
C      1  0.5059790000000  0.5542150000000  0.5499240000000 1.0
C      1  0.4938320000000  0.5547480000000  0.4502650000000 1.0
C      1  0.5064210000000  0.4453230000000  0.4504910000000 1.0
C      1  0.5548370000000  0.4501180000000  0.4937540000000 1.0
C      1  0.4391950000000  0.4523530000000  0.5092070000000 1.0
C      1  0.5545120000000  0.5497430000000  0.5064730000000 1.0
C      1  0.4504320000000  0.5062010000000  0.4451810000000 1.0
C      1  0.5499450000000  0.5062730000000  0.5547500000000 1.0
C      1  0.4454350000000  0.4978770000000  0.5423040000000 1.0
C      1  0.4937840000000  0.4451800000000  0.4500010000000 1.0
C      1  0.4448630000000  0.5502800000000  0.5061620000000 1.0
C      1  0.5500860000000  0.4936340000000  0.5547390000000 1.0
C      1  0.5064760000000  0.5546400000000  0.4503090000000 1.0
C      1  0.4933460000000  0.5539420000000  0.5496760000000 1.0
C      1  0.5059150000000  0.4452830000000  0.5497230000000 1.0
C      1  0.5548020000000  0.4501220000000  0.5063980000000 1.0
C      1  0.4464800000000  0.4533570000000  0.4985280000000 1.0
C      1  0.5545120000000  0.5497280000000  0.4938280000000 1.0
C      1  0.4549630000000  0.4992300000000  0.5513090000000 1.0
C      1  0.5498860000000  0.5062770000000  0.4455170000000 1.0
C      1  0.4504380000000  0.4935640000000  0.4454180000000 1.0
C      1  0.4265080000000  0.5073450000000  0.4840070000000 1.0
C      1  0.5075440000000  0.4846770000000  0.4266070000000 1.0
C      1  0.4847400000000  0.4263640000000  0.5072120000000 1.0
C      1  0.5736620000000  0.4926070000000  0.4849230000000 1.0
C      1  0.4212380000000  0.4946690000000  0.5107840000000 1.0
C      1  0.5735780000000  0.5073870000000  0.5153340000000 1.0
C      1  0.4927960000000  0.5150700000000  0.4264440000000 1.0
C      1  0.5074900000000  0.5151620000000  0.5734940000000 1.0
C      1  0.4930820000000  0.4843430000000  0.5735460000000 1.0
C      1  0.5148940000000  0.5732960000000  0.5076540000000 1.0
C      1  0.4846370000000  0.5734440000000  0.4927340000000 1.0
C      1  0.5153500000000  0.4263580000000  0.4927500000000 1.0
C      1  0.4263070000000  0.5070580000000  0.5136510000000 1.0
C      1  0.5078330000000  0.4844080000000  0.5736640000000 1.0
C      1  0.4849550000000  0.4262710000000  0.4924120000000 1.0
C      1  0.5736370000000  0.4925730000000  0.5153380000000 1.0
C      1  0.4268050000000  0.4925180000000  0.4843160000000 1.0
C      1  0.5735940000000  0.5074140000000  0.4849210000000 1.0
C      1  0.4927040000000  0.5151310000000  0.5733540000000 1.0
C      1  0.5075900000000  0.5151140000000  0.4264710000000 1.0
C      1  0.4927360000000  0.4846320000000  0.4265750000000 1.0
C      1  0.5150360000000  0.5733740000000  0.4928590000000 1.0
C      1  0.4844740000000  0.5733410000000  0.5075410000000 1.0
C      1  0.5151590000000  0.4264030000000  0.5075420000000 1.0
END
