TITL C-114181-47-19 0.0124844868562768 1000000 -1642.5797668991 0 0 240 (Td) n - 1
REM
REM in /home/chem/mssmkc/work/GAP20/Larger-Clusters/Only-C240/New/BUILD-ONLY
REM
REM
REM
REM
REM
REM ./C.cell (daee87de7206da95283bc1c1416dbc6f)
REM
REM compiler GCC version 8.3.0
REM options -cpp -mtune=generic -march=x86-64 -g -O0
REM seed 593003116 -1125984977 870112497 286082481 -1707790863 176427675 423561657 1369504622 -2115634599 466803563 448999512 -1912094923 851472835 -1669698918 -969495913 -1233466435 -879466947 548010427 429297082 1474875260 -513279138 1500509251 678497014 -631365175 -1626389590 -1031274526 2103560674 1866490111 1110604309 799364759 416287432 211336899 1238554752
REM
CELL 1.54180  100.00000  100.00000  100.00000   90.00000   90.00000   90.00000
LATT -1
SFAC C  
C      1  0.5520210000000  0.4663100000000  0.5164100000000 1.0
C      1  0.4663100000000  0.5164130000000  0.5520210000000 1.0
C      1  0.5164090000000  0.5520190000000  0.4663060000000 1.0
C      1  0.4479810000000  0.5336910000000  0.5164130000000 1.0
C      1  0.5520180000000  0.5336920000000  0.4835850000000 1.0
C      1  0.4479800000000  0.4663070000000  0.4835920000000 1.0
C      1  0.5336940000000  0.4835910000000  0.5520190000000 1.0
C      1  0.4663060000000  0.4835860000000  0.4479820000000 1.0
C      1  0.5336890000000  0.5164100000000  0.4479780000000 1.0
C      1  0.4835880000000  0.4479790000000  0.4663110000000 1.0
C      1  0.5164140000000  0.4479820000000  0.5336930000000 1.0
C      1  0.4835890000000  0.5520200000000  0.5336910000000 1.0
C      1  0.4663080000000  0.5520200000000  0.5164110000000 1.0
C      1  0.5164140000000  0.4663100000000  0.5520200000000 1.0
C      1  0.5520180000000  0.5164110000000  0.4663060000000 1.0
C      1  0.5336930000000  0.4479810000000  0.5164120000000 1.0
C      1  0.5336900000000  0.5520200000000  0.4835850000000 1.0
C      1  0.4663080000000  0.4479790000000  0.4835920000000 1.0
C      1  0.4835900000000  0.5336930000000  0.5520190000000 1.0
C      1  0.4835870000000  0.4663060000000  0.4479820000000 1.0
C      1  0.5164090000000  0.5336900000000  0.4479790000000 1.0
C      1  0.4479790000000  0.4835870000000  0.4663110000000 1.0
C      1  0.4479820000000  0.5164120000000  0.5336930000000 1.0
C      1  0.5520210000000  0.4835900000000  0.5336900000000 1.0
C      1  0.4834740000000  0.5275910000000  0.4615700000000 1.0
C      1  0.5275930000000  0.4615700000000  0.4834760000000 1.0
C      1  0.4615720000000  0.4834760000000  0.5275950000000 1.0
C      1  0.5165230000000  0.4724060000000  0.4615700000000 1.0
C      1  0.4834780000000  0.4724080000000  0.5384320000000 1.0
C      1  0.5165250000000  0.5275940000000  0.5384280000000 1.0
C      1  0.4724060000000  0.5384290000000  0.4834760000000 1.0
C      1  0.5275930000000  0.5384310000000  0.5165210000000 1.0
C      1  0.4724090000000  0.4615700000000  0.5165260000000 1.0
C      1  0.5384310000000  0.5165250000000  0.5275910000000 1.0
C      1  0.4615690000000  0.5165220000000  0.4724080000000 1.0
C      1  0.5384290000000  0.4834760000000  0.4724060000000 1.0
C      1  0.5275910000000  0.4834750000000  0.4615690000000 1.0
C      1  0.4615690000000  0.5275920000000  0.4834770000000 1.0
C      1  0.4834780000000  0.4615710000000  0.5275950000000 1.0
C      1  0.4724050000000  0.5165220000000  0.4615710000000 1.0
C      1  0.4724090000000  0.4834770000000  0.5384320000000 1.0
C      1  0.5275940000000  0.5165260000000  0.5384280000000 1.0
C      1  0.5384300000000  0.4724070000000  0.4834750000000 1.0
C      1  0.5384300000000  0.5275940000000  0.5165210000000 1.0
C      1  0.4615710000000  0.4724070000000  0.5165260000000 1.0
C      1  0.5165240000000  0.5384310000000  0.5275910000000 1.0
C      1  0.5165230000000  0.4615690000000  0.4724080000000 1.0
C      1  0.4834740000000  0.5384290000000  0.4724070000000 1.0
C      1  0.4464670000000  0.5314190000000  0.4780070000000 1.0
C      1  0.5314190000000  0.4780050000000  0.4464680000000 1.0
C      1  0.4780080000000  0.4464690000000  0.5314230000000 1.0
C      1  0.5535310000000  0.4685800000000  0.4780050000000 1.0
C      1  0.4464700000000  0.4685790000000  0.5219980000000 1.0
C      1  0.5535320000000  0.5314220000000  0.5219910000000 1.0
C      1  0.4685770000000  0.5219920000000  0.4464690000000 1.0
C      1  0.5314230000000  0.5219960000000  0.5535290000000 1.0
C      1  0.4685820000000  0.4780070000000  0.5535340000000 1.0
C      1  0.5219950000000  0.5535330000000  0.5314180000000 1.0
C      1  0.4780040000000  0.5535300000000  0.4685790000000 1.0
C      1  0.5219940000000  0.4464680000000  0.4685800000000 1.0
C      1  0.5314210000000  0.4464680000000  0.4780060000000 1.0
C      1  0.4780030000000  0.5314190000000  0.4464680000000 1.0
C      1  0.4464700000000  0.4780060000000  0.5314240000000 1.0
C      1  0.4685780000000  0.5535300000000  0.4780050000000 1.0
C      1  0.4685810000000  0.4464690000000  0.5219970000000 1.0
C      1  0.5314210000000  0.5535330000000  0.5219910000000 1.0
C      1  0.5219920000000  0.4685780000000  0.4464690000000 1.0
C      1  0.5219960000000  0.5314230000000  0.5535300000000 1.0
C      1  0.4780090000000  0.4685810000000  0.5535340000000 1.0
C      1  0.5535330000000  0.5219960000000  0.5314180000000 1.0
C      1  0.5535310000000  0.4780060000000  0.4685780000000 1.0
C      1  0.4464670000000  0.5219920000000  0.4685810000000 1.0
C      1  0.4771510000000  0.4563100000000  0.5030770000000 1.0
C      1  0.4563100000000  0.5030730000000  0.4771520000000 1.0
C      1  0.5030730000000  0.4771490000000  0.4563110000000 1.0
C      1  0.5228490000000  0.5436900000000  0.5030720000000 1.0
C      1  0.4771500000000  0.5436890000000  0.4969250000000 1.0
C      1  0.5228500000000  0.4563110000000  0.4969260000000 1.0
C      1  0.5436880000000  0.4969260000000  0.4771490000000 1.0
C      1  0.4563120000000  0.4969260000000  0.5228520000000 1.0
C      1  0.5436900000000  0.5030760000000  0.5228480000000 1.0
C      1  0.4969240000000  0.5228480000000  0.4563100000000 1.0
C      1  0.5030760000000  0.5228510000000  0.5436890000000 1.0
C      1  0.4969280000000  0.4771520000000  0.5436900000000 1.0
C      1  0.4563110000000  0.4771500000000  0.5030770000000 1.0
C      1  0.5030740000000  0.4563100000000  0.4771520000000 1.0
C      1  0.4771490000000  0.5030720000000  0.4563110000000 1.0
C      1  0.5436890000000  0.5228500000000  0.5030720000000 1.0
C      1  0.5436900000000  0.4771510000000  0.4969250000000 1.0
C      1  0.4563100000000  0.5228490000000  0.4969270000000 1.0
C      1  0.4969240000000  0.5436890000000  0.4771490000000 1.0
C      1  0.4969270000000  0.4563110000000  0.5228510000000 1.0
C      1  0.5030740000000  0.5436900000000  0.5228480000000 1.0
C      1  0.5228480000000  0.4969250000000  0.4563100000000 1.0
C      1  0.5228510000000  0.5030760000000  0.5436880000000 1.0
C      1  0.4771520000000  0.4969270000000  0.5436900000000 1.0
C      1  0.4440620000000  0.5062150000000  0.4528640000000 1.0
C      1  0.5062160000000  0.4528600000000  0.4440650000000 1.0
C      1  0.4528630000000  0.4440630000000  0.5062210000000 1.0
C      1  0.5559340000000  0.4937820000000  0.4528600000000 1.0
C      1  0.4440660000000  0.4937830000000  0.5471410000000 1.0
C      1  0.5559380000000  0.5062200000000  0.5471360000000 1.0
C      1  0.4937790000000  0.5471360000000  0.4440630000000 1.0
C      1  0.5062190000000  0.5471400000000  0.5559340000000 1.0
C      1  0.4937860000000  0.4528640000000  0.5559380000000 1.0
C      1  0.5471370000000  0.5559370000000  0.5062140000000 1.0
C      1  0.4528610000000  0.5559350000000  0.4937830000000 1.0
C      1  0.5471390000000  0.4440650000000  0.4937820000000 1.0
C      1  0.5062160000000  0.4440630000000  0.4528630000000 1.0
C      1  0.4528590000000  0.5062150000000  0.4440660000000 1.0
C      1  0.4440650000000  0.4528610000000  0.5062210000000 1.0
C      1  0.4937800000000  0.5559340000000  0.4528600000000 1.0
C      1  0.4937850000000  0.4440650000000  0.5471400000000 1.0
C      1  0.5062190000000  0.5559380000000  0.5471360000000 1.0
C      1  0.5471360000000  0.4937810000000  0.4440620000000 1.0
C      1  0.5471400000000  0.5062200000000  0.5559340000000 1.0
C      1  0.4528640000000  0.4937840000000  0.5559380000000 1.0
C      1  0.5559350000000  0.5471390000000  0.5062140000000 1.0
C      1  0.5559360000000  0.4528630000000  0.4937820000000 1.0
C      1  0.4440630000000  0.5471370000000  0.4937830000000 1.0
C      1  0.4691470000000  0.5082590000000  0.5405770000000 1.0
C      1  0.5082560000000  0.5405750000000  0.4691440000000 1.0
C      1  0.5405770000000  0.4691460000000  0.5082570000000 1.0
C      1  0.5308570000000  0.4917440000000  0.5405750000000 1.0
C      1  0.4691440000000  0.4917400000000  0.4594260000000 1.0
C      1  0.5308530000000  0.5082570000000  0.4594220000000 1.0
C      1  0.4917420000000  0.4594230000000  0.4691470000000 1.0
C      1  0.5082600000000  0.4594250000000  0.5308560000000 1.0
C      1  0.4917430000000  0.5405770000000  0.5308540000000 1.0
C      1  0.4594240000000  0.5308540000000  0.5082590000000 1.0
C      1  0.5405750000000  0.5308550000000  0.4917390000000 1.0
C      1  0.4594240000000  0.4691440000000  0.4917450000000 1.0
C      1  0.5082600000000  0.4691470000000  0.5405770000000 1.0
C      1  0.5405740000000  0.5082570000000  0.4691430000000 1.0
C      1  0.4691450000000  0.5405760000000  0.5082580000000 1.0
C      1  0.4917430000000  0.5308560000000  0.5405750000000 1.0
C      1  0.4917410000000  0.4691440000000  0.4594250000000 1.0
C      1  0.5082560000000  0.5308540000000  0.4594230000000 1.0
C      1  0.4594230000000  0.4917410000000  0.4691470000000 1.0
C      1  0.4594250000000  0.5082580000000  0.5308560000000 1.0
C      1  0.5405770000000  0.4917440000000  0.5308530000000 1.0
C      1  0.5308560000000  0.4594250000000  0.5082580000000 1.0
C      1  0.5308540000000  0.5405760000000  0.4917400000000 1.0
C      1  0.4691460000000  0.4594230000000  0.4917450000000 1.0
C      1  0.5225400000000  0.4986140000000  0.4411670000000 1.0
C      1  0.4986180000000  0.4411680000000  0.5225450000000 1.0
C      1  0.4411670000000  0.5225420000000  0.4986180000000 1.0
C      1  0.4774550000000  0.5013820000000  0.4411690000000 1.0
C      1  0.5225450000000  0.5013870000000  0.5588310000000 1.0
C      1  0.4774600000000  0.4986170000000  0.5588330000000 1.0
C      1  0.5013840000000  0.5588330000000  0.5225410000000 1.0
C      1  0.4986140000000  0.5588320000000  0.4774550000000 1.0
C      1  0.5013840000000  0.4411670000000  0.4774590000000 1.0
C      1  0.5588330000000  0.4774580000000  0.4986140000000 1.0
C      1  0.4411680000000  0.4774560000000  0.5013870000000 1.0
C      1  0.5588320000000  0.5225440000000  0.5013810000000 1.0
C      1  0.4986130000000  0.5225410000000  0.4411670000000 1.0
C      1  0.4411690000000  0.4986160000000  0.5225450000000 1.0
C      1  0.5225440000000  0.4411680000000  0.4986170000000 1.0
C      1  0.5013820000000  0.4774550000000  0.4411680000000 1.0
C      1  0.5013860000000  0.5225450000000  0.5588320000000 1.0
C      1  0.4986190000000  0.4774590000000  0.5588330000000 1.0
C      1  0.5588330000000  0.5013860000000  0.5225400000000 1.0
C      1  0.5588310000000  0.4986160000000  0.4774550000000 1.0
C      1  0.4411670000000  0.5013830000000  0.4774600000000 1.0
C      1  0.4774560000000  0.5588320000000  0.4986150000000 1.0
C      1  0.4774580000000  0.4411670000000  0.5013870000000 1.0
C      1  0.5225420000000  0.5588330000000  0.5013810000000 1.0
C      1  0.5102600000000  0.5348750000000  0.5611160000000 1.0
C      1  0.5348720000000  0.5611190000000  0.5102550000000 1.0
C      1  0.5611190000000  0.5102600000000  0.5348700000000 1.0
C      1  0.4897450000000  0.4651290000000  0.5611200000000 1.0
C      1  0.5102560000000  0.4651250000000  0.4388830000000 1.0
C      1  0.4897390000000  0.5348710000000  0.4388810000000 1.0
C      1  0.4651290000000  0.4388820000000  0.5102620000000 1.0
C      1  0.5348730000000  0.4388820000000  0.4897420000000 1.0
C      1  0.4651260000000  0.5611170000000  0.4897410000000 1.0
C      1  0.4388840000000  0.4897420000000  0.5348760000000 1.0
C      1  0.5611170000000  0.4897420000000  0.4651250000000 1.0
C      1  0.4388800000000  0.5102560000000  0.4651300000000 1.0
C      1  0.5348750000000  0.5102610000000  0.5611160000000 1.0
C      1  0.5611180000000  0.5348740000000  0.5102550000000 1.0
C      1  0.5102590000000  0.5611190000000  0.5348700000000 1.0
C      1  0.4651300000000  0.4897430000000  0.5611200000000 1.0
C      1  0.4651240000000  0.5102560000000  0.4388830000000 1.0
C      1  0.5348700000000  0.4897400000000  0.4388810000000 1.0
C      1  0.4388830000000  0.4651270000000  0.5102620000000 1.0
C      1  0.4388810000000  0.5348710000000  0.4897430000000 1.0
C      1  0.5611180000000  0.4651280000000  0.4897400000000 1.0
C      1  0.4897440000000  0.4388830000000  0.5348750000000 1.0
C      1  0.4897390000000  0.5611170000000  0.4651260000000 1.0
C      1  0.5102580000000  0.4388810000000  0.4651290000000 1.0
C      1  0.4773620000000  0.4870640000000  0.4387100000000 1.0
C      1  0.4870660000000  0.4387080000000  0.4773670000000 1.0
C      1  0.4387080000000  0.4773630000000  0.4870690000000 1.0
C      1  0.5226330000000  0.5129320000000  0.4387070000000 1.0
C      1  0.4773670000000  0.5129360000000  0.5612920000000 1.0
C      1  0.5226380000000  0.4870680000000  0.5612910000000 1.0
C      1  0.5129320000000  0.5612910000000  0.4773620000000 1.0
C      1  0.4870660000000  0.5612920000000  0.5226340000000 1.0
C      1  0.5129360000000  0.4387100000000  0.5226370000000 1.0
C      1  0.5612900000000  0.5226360000000  0.4870630000000 1.0
C      1  0.4387090000000  0.5226350000000  0.5129360000000 1.0
C      1  0.5612920000000  0.4773660000000  0.5129320000000 1.0
C      1  0.4870640000000  0.4773620000000  0.4387100000000 1.0
C      1  0.4387080000000  0.4870640000000  0.4773670000000 1.0
C      1  0.4773650000000  0.4387080000000  0.4870690000000 1.0
C      1  0.5129310000000  0.5226340000000  0.4387070000000 1.0
C      1  0.5129370000000  0.4773670000000  0.5612920000000 1.0
C      1  0.4870680000000  0.5226370000000  0.5612910000000 1.0
C      1  0.5612900000000  0.5129340000000  0.4773610000000 1.0
C      1  0.5612930000000  0.4870680000000  0.5226330000000 1.0
C      1  0.4387090000000  0.5129340000000  0.5226380000000 1.0
C      1  0.5226340000000  0.5612910000000  0.4870630000000 1.0
C      1  0.5226370000000  0.4387090000000  0.5129350000000 1.0
C      1  0.4773640000000  0.5612910000000  0.5129330000000 1.0
C      1  0.5491910000000  0.5291830000000  0.4609030000000 1.0
C      1  0.5291860000000  0.4609090000000  0.5491940000000 1.0
C      1  0.4609070000000  0.5491940000000  0.5291830000000 1.0
C      1  0.4508050000000  0.4708150000000  0.4609100000000 1.0
C      1  0.5491960000000  0.4708190000000  0.5390920000000 1.0
C      1  0.4508080000000  0.5291840000000  0.5390950000000 1.0
C      1  0.4708180000000  0.5390950000000  0.5491940000000 1.0
C      1  0.5291800000000  0.5390920000000  0.4508040000000 1.0
C      1  0.4708150000000  0.4609040000000  0.4508090000000 1.0
C      1  0.5390960000000  0.4508080000000  0.5291830000000 1.0
C      1  0.4609060000000  0.4508050000000  0.4708200000000 1.0
C      1  0.5390910000000  0.5491930000000  0.4708140000000 1.0
C      1  0.5291810000000  0.5491930000000  0.4609040000000 1.0
C      1  0.4609080000000  0.5291840000000  0.5491940000000 1.0
C      1  0.5491960000000  0.4609080000000  0.5291820000000 1.0
C      1  0.4708160000000  0.4508050000000  0.4609090000000 1.0
C      1  0.4708180000000  0.5491940000000  0.5390930000000 1.0
C      1  0.5291860000000  0.4508080000000  0.5390940000000 1.0
C      1  0.5390960000000  0.4708190000000  0.5491930000000 1.0
C      1  0.5390910000000  0.5291820000000  0.4508040000000 1.0
C      1  0.4609050000000  0.4708150000000  0.4508090000000 1.0
C      1  0.4508070000000  0.5390940000000  0.5291840000000 1.0
C      1  0.4508060000000  0.4609050000000  0.4708200000000 1.0
C      1  0.5491920000000  0.5390930000000  0.4708130000000 1.0
END
