TITL C-114180-423-90 -0.0542751319115081 1000000 -1633.05572371115 0 0 240 (C1) n - 1
REM
REM in /home/chem/mssmkc/work/GAP20/Larger-Clusters/Only-C240/New/BUILD-ONLY
REM
REM
REM
REM
REM
REM ./C.cell (daee87de7206da95283bc1c1416dbc6f)
REM
REM compiler GCC version 8.3.0
REM options -cpp -mtune=generic -march=x86-64 -g -O0
REM seed 465750028 -1344276636 2109810616 -499060341 -101338387 1346939460 1184093801 1371775009 -1476658530 -263726979 -642395062 1721673083 -1078213197 -2133784099 794436176 -1222102982 245714649 -1960573059 2003715096 -28364927 -2076249521 739121526 1060984796 -355553724 -1923521719 414517113 -1140854848 1615471740 1658928009 885939610 -662402309 -583708812 -300253873
REM
CELL 1.54180  100.00000  100.00000  100.00000   90.00000   90.00000   90.00000
LATT -1
SFAC C  
C      1  0.5271240000000  0.4612450000000  0.4968330000000 1.0
C      1  0.4974160000000  0.5272740000000  0.4620140000000 1.0
C      1  0.4636630000000  0.4968720000000  0.5270590000000 1.0
C      1  0.4733080000000  0.5379890000000  0.4966100000000 1.0
C      1  0.4734040000000  0.4627180000000  0.5030290000000 1.0
C      1  0.5267530000000  0.5386750000000  0.5032860000000 1.0
C      1  0.5033110000000  0.4725240000000  0.4621430000000 1.0
C      1  0.5028370000000  0.5276230000000  0.5379230000000 1.0
C      1  0.4975600000000  0.4727220000000  0.5372820000000 1.0
C      1  0.5356600000000  0.5034220000000  0.5272950000000 1.0
C      1  0.5359160000000  0.4967690000000  0.4727070000000 1.0
C      1  0.4627630000000  0.5031200000000  0.4726920000000 1.0
C      1  0.4636590000000  0.5270080000000  0.4968490000000 1.0
C      1  0.5271100000000  0.4968280000000  0.4612570000000 1.0
C      1  0.4974280000000  0.4620460000000  0.5273450000000 1.0
C      1  0.5358960000000  0.4727180000000  0.4967820000000 1.0
C      1  0.4627570000000  0.4726980000000  0.5031990000000 1.0
C      1  0.5356700000000  0.5272940000000  0.5033960000000 1.0
C      1  0.4734030000000  0.5029390000000  0.4627040000000 1.0
C      1  0.5267520000000  0.5033260000000  0.5386850000000 1.0
C      1  0.4733120000000  0.4966470000000  0.5380380000000 1.0
C      1  0.5028340000000  0.5379330000000  0.5275910000000 1.0
C      1  0.4975450000000  0.5372120000000  0.4726930000000 1.0
C      1  0.5032740000000  0.4623100000000  0.4726150000000 1.0
C      1  0.4661590000000  0.5078540000000  0.4307140000000 1.0
C      1  0.4303010000000  0.4673620000000  0.5097840000000 1.0
C      1  0.5081040000000  0.4298150000000  0.4659430000000 1.0
C      1  0.5334450000000  0.4904370000000  0.4292110000000 1.0
C      1  0.5328210000000  0.5095690000000  0.5707980000000 1.0
C      1  0.4677830000000  0.4900710000000  0.5704660000000 1.0
C      1  0.5679640000000  0.5321000000000  0.5088430000000 1.0
C      1  0.5681520000000  0.4681470000000  0.4914460000000 1.0
C      1  0.4316580000000  0.5342980000000  0.4923560000000 1.0
C      1  0.4926620000000  0.5691650000000  0.4653520000000 1.0
C      1  0.4909560000000  0.4295960000000  0.5326620000000 1.0
C      1  0.5080410000000  0.5704720000000  0.5340620000000 1.0
C      1  0.5084510000000  0.4660930000000  0.4295370000000 1.0
C      1  0.4661580000000  0.4307280000000  0.5079610000000 1.0
C      1  0.4303010000000  0.5096880000000  0.4673520000000 1.0
C      1  0.4909420000000  0.5325670000000  0.4295560000000 1.0
C      1  0.5080570000000  0.5341440000000  0.5704550000000 1.0
C      1  0.4926780000000  0.4654230000000  0.5692450000000 1.0
C      1  0.5328100000000  0.5707930000000  0.5094910000000 1.0
C      1  0.4677580000000  0.5704070000000  0.4899940000000 1.0
C      1  0.5332360000000  0.4291760000000  0.4902550000000 1.0
C      1  0.5682090000000  0.4914120000000  0.4682110000000 1.0
C      1  0.4316640000000  0.4923900000000  0.5343770000000 1.0
C      1  0.5679580000000  0.5088570000000  0.5320960000000 1.0
C      1  0.4828690000000  0.5424930000000  0.4308900000000 1.0
C      1  0.4333500000000  0.4843270000000  0.5441590000000 1.0
C      1  0.5430790000000  0.4307970000000  0.4821470000000 1.0
C      1  0.5164870000000  0.4561860000000  0.4309960000000 1.0
C      1  0.5161050000000  0.5440310000000  0.5689720000000 1.0
C      1  0.4845610000000  0.4556580000000  0.5675710000000 1.0
C      1  0.5666140000000  0.5152060000000  0.5431190000000 1.0
C      1  0.5669670000000  0.4850570000000  0.4571790000000 1.0
C      1  0.4316770000000  0.5177130000000  0.4573970000000 1.0
C      1  0.4578920000000  0.5689990000000  0.4818710000000 1.0
C      1  0.4564200000000  0.4324050000000  0.5160900000000 1.0
C      1  0.5426500000000  0.5692830000000  0.5176230000000 1.0
C      1  0.5432600000000  0.4823090000000  0.4308460000000 1.0
C      1  0.4828970000000  0.4309380000000  0.5425990000000 1.0
C      1  0.4333350000000  0.5440710000000  0.4842810000000 1.0
C      1  0.4564180000000  0.5159860000000  0.4323750000000 1.0
C      1  0.5426590000000  0.5177000000000  0.5692760000000 1.0
C      1  0.4579180000000  0.4819440000000  0.5690760000000 1.0
C      1  0.5160900000000  0.5690090000000  0.5439510000000 1.0
C      1  0.4845470000000  0.5674740000000  0.4555890000000 1.0
C      1  0.5161050000000  0.4313020000000  0.4560320000000 1.0
C      1  0.5668830000000  0.4571140000000  0.4850960000000 1.0
C      1  0.4316730000000  0.4574160000000  0.5178230000000 1.0
C      1  0.5666180000000  0.5431300000000  0.5151800000000 1.0
C      1  0.5343030000000  0.5467350000000  0.5251760000000 1.0
C      1  0.5238640000000  0.5357170000000  0.5466560000000 1.0
C      1  0.5448320000000  0.5249820000000  0.5355860000000 1.0
C      1  0.4653420000000  0.4541650000000  0.5243740000000 1.0
C      1  0.4658670000000  0.5461080000000  0.4751170000000 1.0
C      1  0.5346840000000  0.4533720000000  0.4748310000000 1.0
C      1  0.4762540000000  0.4645870000000  0.5458220000000 1.0
C      1  0.4759170000000  0.5346530000000  0.4537420000000 1.0
C      1  0.5242570000000  0.4644310000000  0.4533780000000 1.0
C      1  0.4548960000000  0.4756070000000  0.5352950000000 1.0
C      1  0.4545180000000  0.5246370000000  0.4651890000000 1.0
C      1  0.5451650000000  0.4751930000000  0.4645740000000 1.0
C      1  0.5448310000000  0.5356060000000  0.5249520000000 1.0
C      1  0.5343070000000  0.5252220000000  0.5467180000000 1.0
C      1  0.5238590000000  0.5466850000000  0.5356700000000 1.0
C      1  0.4545190000000  0.4652150000000  0.5247300000000 1.0
C      1  0.5451300000000  0.4645630000000  0.4751890000000 1.0
C      1  0.4548890000000  0.5352100000000  0.4755730000000 1.0
C      1  0.4658810000000  0.4751630000000  0.5461870000000 1.0
C      1  0.5347410000000  0.4748850000000  0.4533600000000 1.0
C      1  0.4653400000000  0.5242730000000  0.4541370000000 1.0
C      1  0.4759280000000  0.4537780000000  0.5347480000000 1.0
C      1  0.5242020000000  0.4534540000000  0.4643610000000 1.0
C      1  0.4762390000000  0.5457380000000  0.4645420000000 1.0
C      1  0.4876020000000  0.5470650000000  0.4758270000000 1.0
C      1  0.4769520000000  0.4865820000000  0.5474920000000 1.0
C      1  0.5448490000000  0.4758060000000  0.4863940000000 1.0
C      1  0.5130840000000  0.4523290000000  0.4758250000000 1.0
C      1  0.5126890000000  0.5478360000000  0.5243010000000 1.0
C      1  0.4873740000000  0.4525640000000  0.5236430000000 1.0
C      1  0.5233250000000  0.5135280000000  0.5480500000000 1.0
C      1  0.5237900000000  0.4865620000000  0.4519270000000 1.0
C      1  0.4766190000000  0.5128900000000  0.4528880000000 1.0
C      1  0.4537620000000  0.5238770000000  0.4869410000000 1.0
C      1  0.4533240000000  0.4763200000000  0.5132840000000 1.0
C      1  0.5446700000000  0.5243550000000  0.5137780000000 1.0
C      1  0.5448700000000  0.4863850000000  0.4758150000000 1.0
C      1  0.4876170000000  0.4758730000000  0.5471320000000 1.0
C      1  0.4769380000000  0.5474340000000  0.4865340000000 1.0
C      1  0.4533260000000  0.5132040000000  0.4763070000000 1.0
C      1  0.5446670000000  0.5137960000000  0.5243450000000 1.0
C      1  0.4537620000000  0.4869590000000  0.5239490000000 1.0
C      1  0.5126950000000  0.5243500000000  0.5478280000000 1.0
C      1  0.4873660000000  0.5235550000000  0.4525330000000 1.0
C      1  0.5131290000000  0.4758170000000  0.4522120000000 1.0
C      1  0.5237530000000  0.4519590000000  0.4865540000000 1.0
C      1  0.4766190000000  0.4529140000000  0.5129940000000 1.0
C      1  0.5233200000000  0.5480480000000  0.5134790000000 1.0
C      1  0.4735600000000  0.4471120000000  0.4833730000000 1.0
C      1  0.4835860000000  0.4730200000000  0.4468080000000 1.0
C      1  0.4473670000000  0.4834620000000  0.4733740000000 1.0
C      1  0.5275590000000  0.5535820000000  0.4835730000000 1.0
C      1  0.5276750000000  0.4462870000000  0.5164880000000 1.0
C      1  0.4731560000000  0.5535260000000  0.5161650000000 1.0
C      1  0.5172520000000  0.5263670000000  0.4469050000000 1.0
C      1  0.5173870000000  0.4735980000000  0.5526210000000 1.0
C      1  0.4830560000000  0.5265590000000  0.5531070000000 1.0
C      1  0.5525270000000  0.5148890000000  0.4750690000000 1.0
C      1  0.5524080000000  0.4853380000000  0.5251070000000 1.0
C      1  0.4480010000000  0.5165810000000  0.5266560000000 1.0
C      1  0.4473410000000  0.4733050000000  0.4835460000000 1.0
C      1  0.4736330000000  0.4832340000000  0.4471640000000 1.0
C      1  0.4835310000000  0.4469220000000  0.4731900000000 1.0
C      1  0.5524240000000  0.5250940000000  0.4853200000000 1.0
C      1  0.4480020000000  0.5266420000000  0.5165660000000 1.0
C      1  0.5525130000000  0.4750700000000  0.5149190000000 1.0
C      1  0.5276720000000  0.5164760000000  0.4462770000000 1.0
C      1  0.4731640000000  0.5162210000000  0.5535480000000 1.0
C      1  0.5275740000000  0.4836300000000  0.5536160000000 1.0
C      1  0.5173670000000  0.5525670000000  0.4735500000000 1.0
C      1  0.4830470000000  0.5531080000000  0.5265050000000 1.0
C      1  0.5172730000000  0.4469470000000  0.5264040000000 1.0
C      1  0.5052140000000  0.5235480000000  0.5620290000000 1.0
C      1  0.5595470000000  0.5086150000000  0.5200890000000 1.0
C      1  0.5226020000000  0.5621350000000  0.5057850000000 1.0
C      1  0.4951670000000  0.4764730000000  0.5613460000000 1.0
C      1  0.4948790000000  0.5225370000000  0.4382620000000 1.0
C      1  0.5055740000000  0.4766470000000  0.4380190000000 1.0
C      1  0.4395010000000  0.4945710000000  0.5232140000000 1.0
C      1  0.4389760000000  0.5057750000000  0.4774180000000 1.0
C      1  0.5597060000000  0.4916110000000  0.4801600000000 1.0
C      1  0.4772270000000  0.4386370000000  0.5054660000000 1.0
C      1  0.4778690000000  0.5617920000000  0.4939800000000 1.0
C      1  0.5230590000000  0.4377990000000  0.4941290000000 1.0
C      1  0.5226120000000  0.5058500000000  0.5621460000000 1.0
C      1  0.5052000000000  0.5620320000000  0.5234770000000 1.0
C      1  0.5595490000000  0.5200940000000  0.5086090000000 1.0
C      1  0.4778880000000  0.4940460000000  0.5618400000000 1.0
C      1  0.5231500000000  0.4941320000000  0.4377750000000 1.0
C      1  0.4772240000000  0.5053400000000  0.4386210000000 1.0
C      1  0.4948930000000  0.4382930000000  0.5226260000000 1.0
C      1  0.5055010000000  0.4381410000000  0.4766630000000 1.0
C      1  0.4951480000000  0.5612840000000  0.4764150000000 1.0
C      1  0.4389690000000  0.4774240000000  0.5058470000000 1.0
C      1  0.5596950000000  0.4801260000000  0.4916380000000 1.0
C      1  0.4395010000000  0.5231430000000  0.4945600000000 1.0
C      1  0.4896010000000  0.5324580000000  0.5426270000000 1.0
C      1  0.5419040000000  0.4906350000000  0.5319060000000 1.0
C      1  0.5330210000000  0.5432240000000  0.4906140000000 1.0
C      1  0.5108040000000  0.4678090000000  0.5421310000000 1.0
C      1  0.5104950000000  0.5322650000000  0.4572450000000 1.0
C      1  0.4902880000000  0.4673690000000  0.4572820000000 1.0
C      1  0.4584510000000  0.5098930000000  0.5322750000000 1.0
C      1  0.4577350000000  0.4902200000000  0.4675450000000 1.0
C      1  0.5421170000000  0.5095950000000  0.4681160000000 1.0
C      1  0.4681050000000  0.4576810000000  0.4900290000000 1.0
C      1  0.4677670000000  0.5430170000000  0.5093080000000 1.0
C      1  0.5332620000000  0.4566960000000  0.5095650000000 1.0
C      1  0.5330210000000  0.4906600000000  0.5432440000000 1.0
C      1  0.4895970000000  0.5426420000000  0.5324210000000 1.0
C      1  0.5419150000000  0.5318950000000  0.4906070000000 1.0
C      1  0.4677680000000  0.5093500000000  0.5430520000000 1.0
C      1  0.5332410000000  0.5095730000000  0.4567100000000 1.0
C      1  0.4681470000000  0.4899010000000  0.4577160000000 1.0
C      1  0.5105230000000  0.4572870000000  0.5323130000000 1.0
C      1  0.4901870000000  0.4574100000000  0.4675370000000 1.0
C      1  0.5107840000000  0.5420720000000  0.4677720000000 1.0
C      1  0.4577030000000  0.4675000000000  0.4903280000000 1.0
C      1  0.5421120000000  0.4681190000000  0.5096100000000 1.0
C      1  0.4584510000000  0.5322420000000  0.5098630000000 1.0
C      1  0.5552580000000  0.5226370000000  0.5464390000000 1.0
C      1  0.5453980000000  0.5569250000000  0.5234600000000 1.0
C      1  0.5224320000000  0.5467620000000  0.5569310000000 1.0
C      1  0.4448080000000  0.4769770000000  0.5465600000000 1.0
C      1  0.4439520000000  0.5235540000000  0.4543880000000 1.0
C      1  0.5556790000000  0.4775480000000  0.4538010000000 1.0
C      1  0.4540510000000  0.4441110000000  0.5230970000000 1.0
C      1  0.4550090000000  0.5566250000000  0.4761610000000 1.0
C      1  0.5458300000000  0.4432390000000  0.4765030000000 1.0
C      1  0.4775380000000  0.4532950000000  0.5558630000000 1.0
C      1  0.4769880000000  0.5454410000000  0.4431650000000 1.0
C      1  0.5227530000000  0.4534250000000  0.4430700000000 1.0
C      1  0.5224260000000  0.5569760000000  0.5466990000000 1.0
C      1  0.5552550000000  0.5464570000000  0.5225980000000 1.0
C      1  0.5454040000000  0.5235180000000  0.5569080000000 1.0
C      1  0.4770090000000  0.4432110000000  0.5455450000000 1.0
C      1  0.5226350000000  0.4432110000000  0.4533000000000 1.0
C      1  0.4775170000000  0.5557690000000  0.4532390000000 1.0
C      1  0.4439510000000  0.4544110000000  0.5236610000000 1.0
C      1  0.5556090000000  0.4537590000000  0.4775570000000 1.0
C      1  0.4447930000000  0.5464700000000  0.4769300000000 1.0
C      1  0.4550300000000  0.4762190000000  0.5567090000000 1.0
C      1  0.5459220000000  0.4765620000000  0.4432590000000 1.0
C      1  0.4540500000000  0.5229910000000  0.4440850000000 1.0
C      1  0.4393250000000  0.4825090000000  0.4927560000000 1.0
C      1  0.4927920000000  0.4387400000000  0.4823900000000 1.0
C      1  0.4827710000000  0.4925190000000  0.4389470000000 1.0
C      1  0.5588760000000  0.5151970000000  0.4950490000000 1.0
C      1  0.5589520000000  0.4850050000000  0.5052010000000 1.0
C      1  0.4398860000000  0.5174270000000  0.5073040000000 1.0
C      1  0.5078470000000  0.5609030000000  0.4822980000000 1.0
C      1  0.5079720000000  0.4387570000000  0.5174290000000 1.0
C      1  0.4925360000000  0.5614010000000  0.5176330000000 1.0
C      1  0.5182140000000  0.5072510000000  0.4382500000000 1.0
C      1  0.5178670000000  0.4926520000000  0.5615860000000 1.0
C      1  0.4826700000000  0.5072420000000  0.5615450000000 1.0
C      1  0.4827650000000  0.4389500000000  0.4926460000000 1.0
C      1  0.4393410000000  0.4927010000000  0.4825420000000 1.0
C      1  0.4928020000000  0.4822560000000  0.4386300000000 1.0
C      1  0.5178510000000  0.5615570000000  0.4925900000000 1.0
C      1  0.4826550000000  0.5615160000000  0.5071750000000 1.0
C      1  0.5182000000000  0.4382720000000  0.5072890000000 1.0
C      1  0.5589490000000  0.5051790000000  0.4850250000000 1.0
C      1  0.4398840000000  0.5072960000000  0.5174630000000 1.0
C      1  0.5588680000000  0.4950500000000  0.5152000000000 1.0
C      1  0.5079650000000  0.5173640000000  0.4387260000000 1.0
C      1  0.4925510000000  0.5177000000000  0.5614090000000 1.0
C      1  0.5078670000000  0.4823540000000  0.5609500000000 1.0
END
