TITL C-114178-678-52 -0.00906579798535248 1000000 -1702.04806306471 0 0 240 (Td) n - 1
REM
REM in /home/chem/mssmkc/work/GAP20/Larger-Clusters/Only-C240/New/BUILD-ONLY
REM
REM
REM
REM
REM
REM ./C.cell (daee87de7206da95283bc1c1416dbc6f)
REM
REM compiler GCC version 8.3.0
REM options -cpp -mtune=generic -march=x86-64 -g -O0
REM seed 626427399 1253662002 -146556214 -115389135 1836858487 1899163864 659240169 -919956547 -2009426609 1358389335 -1848295520 1596144112 -48351263 296464576 59641619 -676132788 -854766597 -1700578604 1263418438 256650260 -2101759563 -1363709889 1348633891 -1011785131 -1343227708 -960544802 878784638 -1632017608 -1633383492 -883095517 -1304308228 -124243184 2028379877
REM
CELL 1.54180  100.00000  100.00000  100.00000   90.00000   90.00000   90.00000
LATT -1
SFAC C  
C      1  0.5297870000000  0.5052690000000  0.5533370000000 1.0
C      1  0.5533400000000  0.5297870000000  0.5052390000000 1.0
C      1  0.5052530000000  0.5533500000000  0.5297670000000 1.0
C      1  0.4702390000000  0.4947450000000  0.5533530000000 1.0
C      1  0.4702110000000  0.5052430000000  0.4466610000000 1.0
C      1  0.5297630000000  0.4947430000000  0.4466480000000 1.0
C      1  0.4466620000000  0.4702150000000  0.5052730000000 1.0
C      1  0.4466470000000  0.5297640000000  0.4947530000000 1.0
C      1  0.5533500000000  0.4702350000000  0.4947350000000 1.0
C      1  0.4947620000000  0.4466580000000  0.5297830000000 1.0
C      1  0.4947260000000  0.5533400000000  0.4702190000000 1.0
C      1  0.5052600000000  0.4466520000000  0.4702310000000 1.0
C      1  0.5052630000000  0.5297830000000  0.5533400000000 1.0
C      1  0.5297660000000  0.5533520000000  0.5052420000000 1.0
C      1  0.5533510000000  0.5052710000000  0.5297610000000 1.0
C      1  0.4947630000000  0.4702310000000  0.5533500000000 1.0
C      1  0.5052490000000  0.4702190000000  0.4466570000000 1.0
C      1  0.4947250000000  0.5297670000000  0.4466520000000 1.0
C      1  0.4702370000000  0.4466490000000  0.5052710000000 1.0
C      1  0.5297850000000  0.4466600000000  0.4947430000000 1.0
C      1  0.4702130000000  0.5533380000000  0.4947440000000 1.0
C      1  0.4466630000000  0.4947370000000  0.5297890000000 1.0
C      1  0.5533390000000  0.4947510000000  0.4702120000000 1.0
C      1  0.4466460000000  0.5052420000000  0.4702370000000 1.0
C      1  0.5233640000000  0.5639270000000  0.4975480000000 1.0
C      1  0.4975740000000  0.5233860000000  0.5639200000000 1.0
C      1  0.5639290000000  0.4975790000000  0.5233630000000 1.0
C      1  0.4766340000000  0.4360720000000  0.4975770000000 1.0
C      1  0.4766100000000  0.5639180000000  0.5024350000000 1.0
C      1  0.5233920000000  0.4360820000000  0.5024400000000 1.0
C      1  0.5024580000000  0.4766310000000  0.5639250000000 1.0
C      1  0.5024170000000  0.5233700000000  0.4360740000000 1.0
C      1  0.4975520000000  0.4766130000000  0.4360810000000 1.0
C      1  0.4360830000000  0.5024270000000  0.5233930000000 1.0
C      1  0.4360720000000  0.4975470000000  0.4766380000000 1.0
C      1  0.5639160000000  0.5024470000000  0.4766060000000 1.0
C      1  0.5639170000000  0.5233910000000  0.4975440000000 1.0
C      1  0.5233940000000  0.4975760000000  0.5639170000000 1.0
C      1  0.4975550000000  0.5639250000000  0.5233700000000 1.0
C      1  0.4360820000000  0.4766090000000  0.4975810000000 1.0
C      1  0.5639280000000  0.4766350000000  0.5024250000000 1.0
C      1  0.4360730000000  0.5233650000000  0.5024500000000 1.0
C      1  0.4766370000000  0.5024410000000  0.5639280000000 1.0
C      1  0.5233620000000  0.5024340000000  0.4360710000000 1.0
C      1  0.4766070000000  0.4975490000000  0.4360830000000 1.0
C      1  0.5024560000000  0.4360810000000  0.5233860000000 1.0
C      1  0.4975700000000  0.4360740000000  0.4766310000000 1.0
C      1  0.5024190000000  0.5639200000000  0.4766130000000 1.0
C      1  0.5681420000000  0.4896940000000  0.4997700000000 1.0
C      1  0.4997690000000  0.5681390000000  0.4896710000000 1.0
C      1  0.4896960000000  0.4997930000000  0.5681430000000 1.0
C      1  0.4318570000000  0.5103060000000  0.4998010000000 1.0
C      1  0.4318620000000  0.4896660000000  0.5002330000000 1.0
C      1  0.5681380000000  0.5103340000000  0.5001960000000 1.0
C      1  0.5002260000000  0.4318580000000  0.4896890000000 1.0
C      1  0.5002030000000  0.5681420000000  0.5103110000000 1.0
C      1  0.4998020000000  0.4318610000000  0.5103290000000 1.0
C      1  0.5103370000000  0.5002260000000  0.5681380000000 1.0
C      1  0.5103040000000  0.4997790000000  0.4318570000000 1.0
C      1  0.4896630000000  0.5002030000000  0.4318620000000 1.0
C      1  0.4896660000000  0.5681380000000  0.4997790000000 1.0
C      1  0.5681380000000  0.4997980000000  0.4896630000000 1.0
C      1  0.4998040000000  0.4896890000000  0.5681420000000 1.0
C      1  0.5103340000000  0.4318620000000  0.4997920000000 1.0
C      1  0.4896940000000  0.4318570000000  0.5002260000000 1.0
C      1  0.5103060000000  0.5681430000000  0.5002030000000 1.0
C      1  0.4318570000000  0.5001990000000  0.4896960000000 1.0
C      1  0.5681430000000  0.5002300000000  0.5103040000000 1.0
C      1  0.4318620000000  0.4997730000000  0.5103370000000 1.0
C      1  0.5002290000000  0.5103290000000  0.5681390000000 1.0
C      1  0.4997670000000  0.5103110000000  0.4318580000000 1.0
C      1  0.5002000000000  0.4896710000000  0.4318610000000 1.0
C      1  0.4708720000000  0.4507340000000  0.5395010000000 1.0
C      1  0.5394810000000  0.4708540000000  0.4507280000000 1.0
C      1  0.4507190000000  0.5394730000000  0.4708600000000 1.0
C      1  0.5291470000000  0.5492770000000  0.5394730000000 1.0
C      1  0.5291480000000  0.4507350000000  0.4605130000000 1.0
C      1  0.4708330000000  0.5492550000000  0.4605140000000 1.0
C      1  0.4604950000000  0.5291330000000  0.4507400000000 1.0
C      1  0.4605310000000  0.4708510000000  0.5492790000000 1.0
C      1  0.5394930000000  0.5291620000000  0.5492520000000 1.0
C      1  0.5492670000000  0.4605190000000  0.4708460000000 1.0
C      1  0.5492650000000  0.5395010000000  0.5291300000000 1.0
C      1  0.4507490000000  0.4605070000000  0.5291650000000 1.0
C      1  0.4507500000000  0.4708480000000  0.5395030000000 1.0
C      1  0.4708330000000  0.5394740000000  0.4507360000000 1.0
C      1  0.5394900000000  0.4507380000000  0.4708500000000 1.0
C      1  0.5492690000000  0.5291630000000  0.5394710000000 1.0
C      1  0.4507190000000  0.5291320000000  0.4605210000000 1.0
C      1  0.5492620000000  0.4708570000000  0.4605050000000 1.0
C      1  0.5291430000000  0.4605130000000  0.4507320000000 1.0
C      1  0.4708730000000  0.4605140000000  0.5492780000000 1.0
C      1  0.5291510000000  0.5394990000000  0.5492530000000 1.0
C      1  0.4604960000000  0.5492540000000  0.4708560000000 1.0
C      1  0.5394840000000  0.5492780000000  0.5291310000000 1.0
C      1  0.4605300000000  0.4507300000000  0.5291630000000 1.0
C      1  0.4363930000000  0.5366430000000  0.5258060000000 1.0
C      1  0.5258170000000  0.4364050000000  0.5366550000000 1.0
C      1  0.5366320000000  0.5257940000000  0.4363820000000 1.0
C      1  0.5636190000000  0.4633640000000  0.5257840000000 1.0
C      1  0.5635920000000  0.5366620000000  0.4741850000000 1.0
C      1  0.4363960000000  0.4633310000000  0.4742250000000 1.0
C      1  0.4742010000000  0.5636050000000  0.5366500000000 1.0
C      1  0.4742090000000  0.4363840000000  0.4633620000000 1.0
C      1  0.5257730000000  0.5636060000000  0.4633330000000 1.0
C      1  0.4633370000000  0.4741890000000  0.4364070000000 1.0
C      1  0.4633580000000  0.5257960000000  0.5636110000000 1.0
C      1  0.5366730000000  0.4742210000000  0.5636000000000 1.0
C      1  0.5366720000000  0.4364050000000  0.5257940000000 1.0
C      1  0.4363980000000  0.5257870000000  0.5366650000000 1.0
C      1  0.5257720000000  0.5366490000000  0.4363830000000 1.0
C      1  0.4633410000000  0.5636010000000  0.5257960000000 1.0
C      1  0.5366330000000  0.5636100000000  0.4741880000000 1.0
C      1  0.4633540000000  0.4363840000000  0.4742220000000 1.0
C      1  0.5636200000000  0.4742230000000  0.5366400000000 1.0
C      1  0.4363910000000  0.4741870000000  0.4633670000000 1.0
C      1  0.5635910000000  0.5258030000000  0.4633290000000 1.0
C      1  0.4741970000000  0.4633340000000  0.4364060000000 1.0
C      1  0.5258180000000  0.4633610000000  0.5636040000000 1.0
C      1  0.4742130000000  0.5366560000000  0.5636070000000 1.0
C      1  0.4622750000000  0.4813820000000  0.4901380000000 1.0
C      1  0.4901290000000  0.4622690000000  0.4813990000000 1.0
C      1  0.4813840000000  0.4901170000000  0.4622790000000 1.0
C      1  0.5377200000000  0.5186150000000  0.4901140000000 1.0
C      1  0.5377330000000  0.4814000000000  0.5098670000000 1.0
C      1  0.4622720000000  0.5186020000000  0.5098810000000 1.0
C      1  0.5098620000000  0.5377260000000  0.4813840000000 1.0
C      1  0.5098860000000  0.4622780000000  0.5186110000000 1.0
C      1  0.4901230000000  0.5377270000000  0.5186060000000 1.0
C      1  0.5185970000000  0.5098730000000  0.4622680000000 1.0
C      1  0.5186200000000  0.4901350000000  0.5377230000000 1.0
C      1  0.4813990000000  0.5098750000000  0.5377300000000 1.0
C      1  0.4813970000000  0.4622680000000  0.4901350000000 1.0
C      1  0.4622710000000  0.4901160000000  0.4814020000000 1.0
C      1  0.4901200000000  0.4813840000000  0.4622780000000 1.0
C      1  0.5185990000000  0.5377290000000  0.4901160000000 1.0
C      1  0.4813860000000  0.5377240000000  0.5098740000000 1.0
C      1  0.5186190000000  0.4622790000000  0.5098750000000 1.0
C      1  0.5377200000000  0.5098790000000  0.4813810000000 1.0
C      1  0.4622760000000  0.5098690000000  0.5186170000000 1.0
C      1  0.5377330000000  0.4901360000000  0.5186010000000 1.0
C      1  0.5098610000000  0.5186060000000  0.4622690000000 1.0
C      1  0.4901310000000  0.5186120000000  0.5377260000000 1.0
C      1  0.5098870000000  0.4813980000000  0.5377260000000 1.0
C      1  0.5544090000000  0.4701330000000  0.4806520000000 1.0
C      1  0.4806430000000  0.5544000000000  0.4701220000000 1.0
C      1  0.4701410000000  0.4806620000000  0.5544180000000 1.0
C      1  0.4455810000000  0.5298620000000  0.4806710000000 1.0
C      1  0.4456030000000  0.4701160000000  0.5193560000000 1.0
C      1  0.5544060000000  0.5298890000000  0.5193210000000 1.0
C      1  0.5193420000000  0.4455920000000  0.4701270000000 1.0
C      1  0.5193350000000  0.5544160000000  0.5298640000000 1.0
C      1  0.4806800000000  0.4455920000000  0.5298880000000 1.0
C      1  0.5298850000000  0.5193520000000  0.5543980000000 1.0
C      1  0.5298660000000  0.4806600000000  0.4455870000000 1.0
C      1  0.4701070000000  0.5193250000000  0.4455970000000 1.0
C      1  0.4701080000000  0.5543990000000  0.4806610000000 1.0
C      1  0.5544040000000  0.4806680000000  0.4701130000000 1.0
C      1  0.4806810000000  0.4701270000000  0.5544160000000 1.0
C      1  0.5298820000000  0.4455960000000  0.4806610000000 1.0
C      1  0.4701400000000  0.4455890000000  0.5193530000000 1.0
C      1  0.5298700000000  0.5544160000000  0.5193240000000 1.0
C      1  0.4455810000000  0.5193240000000  0.4701350000000 1.0
C      1  0.5544110000000  0.5193540000000  0.5298600000000 1.0
C      1  0.4456030000000  0.4806540000000  0.5298920000000 1.0
C      1  0.5193460000000  0.5298870000000  0.5543990000000 1.0
C      1  0.4806420000000  0.5298650000000  0.4455930000000 1.0
C      1  0.5193310000000  0.4701210000000  0.4455910000000 1.0
C      1  0.4839180000000  0.5663050000000  0.5262550000000 1.0
C      1  0.5262800000000  0.4839390000000  0.5663000000000 1.0
C      1  0.5662950000000  0.5262720000000  0.4839060000000 1.0
C      1  0.5160950000000  0.4337020000000  0.5262650000000 1.0
C      1  0.5160550000000  0.5663040000000  0.4737270000000 1.0
C      1  0.4839320000000  0.4336890000000  0.4737520000000 1.0
C      1  0.4737530000000  0.5160780000000  0.5663090000000 1.0
C      1  0.4737270000000  0.4839110000000  0.4337040000000 1.0
C      1  0.5262410000000  0.5160710000000  0.4336870000000 1.0
C      1  0.4336970000000  0.4737240000000  0.4839450000000 1.0
C      1  0.4336940000000  0.5262490000000  0.5160870000000 1.0
C      1  0.5663140000000  0.4737550000000  0.5160620000000 1.0
C      1  0.5663140000000  0.4839420000000  0.5262460000000 1.0
C      1  0.4839360000000  0.5262660000000  0.5663050000000 1.0
C      1  0.5262430000000  0.5663080000000  0.4839100000000 1.0
C      1  0.4336990000000  0.5160650000000  0.5262740000000 1.0
C      1  0.5662950000000  0.5160850000000  0.4737210000000 1.0
C      1  0.4336920000000  0.4839080000000  0.4737580000000 1.0
C      1  0.5160960000000  0.4737520000000  0.5663040000000 1.0
C      1  0.4839140000000  0.4737280000000  0.4337030000000 1.0
C      1  0.5160530000000  0.5262550000000  0.4336880000000 1.0
C      1  0.4737490000000  0.4336880000000  0.4839410000000 1.0
C      1  0.5262780000000  0.4337030000000  0.5160770000000 1.0
C      1  0.4737300000000  0.5663010000000  0.5160720000000 1.0
C      1  0.5244520000000  0.5573350000000  0.4515100000000 1.0
C      1  0.4515330000000  0.5244740000000  0.5573460000000 1.0
C      1  0.5573530000000  0.4515390000000  0.5244680000000 1.0
C      1  0.4755240000000  0.4426520000000  0.4515380000000 1.0
C      1  0.4755240000000  0.5573380000000  0.5484740000000 1.0
C      1  0.5244990000000  0.4426740000000  0.5484770000000 1.0
C      1  0.5484950000000  0.4755420000000  0.5573280000000 1.0
C      1  0.5484570000000  0.5244780000000  0.4426480000000 1.0
C      1  0.4515150000000  0.4755070000000  0.4426780000000 1.0
C      1  0.4426590000000  0.5484670000000  0.5244830000000 1.0
C      1  0.4426670000000  0.4515090000000  0.4755450000000 1.0
C      1  0.5573210000000  0.5484840000000  0.4755040000000 1.0
C      1  0.5573200000000  0.5244810000000  0.4515070000000 1.0
C      1  0.5245000000000  0.4515370000000  0.5573370000000 1.0
C      1  0.4515180000000  0.5573300000000  0.5244800000000 1.0
C      1  0.4426560000000  0.4755060000000  0.4515410000000 1.0
C      1  0.5573540000000  0.4755420000000  0.5484650000000 1.0
C      1  0.4426700000000  0.5244710000000  0.5484870000000 1.0
C      1  0.4755280000000  0.5484790000000  0.5573370000000 1.0
C      1  0.5244520000000  0.5484730000000  0.4426510000000 1.0
C      1  0.4755200000000  0.4515120000000  0.4426760000000 1.0
C      1  0.5484940000000  0.4426760000000  0.5244720000000 1.0
C      1  0.4515300000000  0.4426500000000  0.4755440000000 1.0
C      1  0.5484580000000  0.5573440000000  0.4755050000000 1.0
C      1  0.4982600000000  0.5400160000000  0.5297730000000 1.0
C      1  0.5297880000000  0.4982720000000  0.5400050000000 1.0
C      1  0.5400060000000  0.5297860000000  0.4982470000000 1.0
C      1  0.5017550000000  0.4599920000000  0.5297830000000 1.0
C      1  0.5017240000000  0.5400090000000  0.4702160000000 1.0
C      1  0.4982610000000  0.4599830000000  0.4702280000000 1.0
C      1  0.4702310000000  0.5017390000000  0.5400190000000 1.0
C      1  0.4702120000000  0.4982490000000  0.4599950000000 1.0
C      1  0.5297680000000  0.5017400000000  0.4599800000000 1.0
C      1  0.4599930000000  0.4702130000000  0.4982740000000 1.0
C      1  0.4599820000000  0.5297700000000  0.5017450000000 1.0
C      1  0.5400190000000  0.4702300000000  0.5017340000000 1.0
C      1  0.5400200000000  0.4982730000000  0.5297690000000 1.0
C      1  0.4982640000000  0.5297830000000  0.5400090000000 1.0
C      1  0.5297700000000  0.5400180000000  0.4982480000000 1.0
C      1  0.4599950000000  0.5017350000000  0.5297880000000 1.0
C      1  0.5400050000000  0.5017440000000  0.4702120000000 1.0
C      1  0.4599810000000  0.4982480000000  0.4702320000000 1.0
C      1  0.5017550000000  0.4702280000000  0.5400160000000 1.0
C      1  0.4982570000000  0.4702160000000  0.4599920000000 1.0
C      1  0.5017240000000  0.5297730000000  0.4599830000000 1.0
C      1  0.4702300000000  0.4599810000000  0.4982730000000 1.0
C      1  0.5297870000000  0.4599940000000  0.5017380000000 1.0
C      1  0.4702140000000  0.5400070000000  0.5017420000000 1.0
END
