TITL C-114178-678-111 -31.6144652430807 1000000 -1730.00280871998 0 0 240 (C1) n - 1
REM
REM in /home/chem/mssmkc/work/GAP20/Larger-Clusters/Only-C240/New/BUILD-ONLY
REM
REM
REM
REM
REM
REM ./C.cell (daee87de7206da95283bc1c1416dbc6f)
REM
REM compiler GCC version 8.3.0
REM options -cpp -mtune=generic -march=x86-64 -g -O0
REM seed -674876203 -1499705825 1555425027 -1368455267 740005030 1534479677 89158662 1897433038 -1506916174 -1804953079 972390646 603874079 -1217813293 -576770791 1095680209 -1281274122 370465162 -159036439 -1618601619 991953314 -754615123 1514410153 -1317833439 1783782240 1772399001 2062715809 -1083537655 637735339 1170088370 -1085722742 -1427583013 1848304866 -399294999
REM
CELL 1.54180  100.00000  100.00000  100.00000   90.00000   90.00000   90.00000
LATT -1
SFAC C  
C      1  0.5588590000000  0.5510430000000  0.4933490000000 1.0
C      1  0.4941900000000  0.5550360000000  0.5503470000000 1.0
C      1  0.5386330000000  0.4924010000000  0.5394800000000 1.0
C      1  0.5562160000000  0.4479930000000  0.5059010000000 1.0
C      1  0.4440670000000  0.4471680000000  0.4928120000000 1.0
C      1  0.4632810000000  0.5340860000000  0.5057050000000 1.0
C      1  0.4909020000000  0.4646190000000  0.4633050000000 1.0
C      1  0.5070950000000  0.4463130000000  0.5533460000000 1.0
C      1  0.5081510000000  0.5561570000000  0.4472840000000 1.0
C      1  0.5360880000000  0.5070830000000  0.4618020000000 1.0
C      1  0.4616620000000  0.5065060000000  0.5385270000000 1.0
C      1  0.4456460000000  0.4940030000000  0.4421880000000 1.0
C      1  0.4635050000000  0.5334190000000  0.4917970000000 1.0
C      1  0.5081920000000  0.5547890000000  0.5497580000000 1.0
C      1  0.4618100000000  0.4925990000000  0.5391430000000 1.0
C      1  0.4431190000000  0.4472310000000  0.5067440000000 1.0
C      1  0.5549610000000  0.4488670000000  0.4919980000000 1.0
C      1  0.5583340000000  0.5509290000000  0.5072990000000 1.0
C      1  0.5048900000000  0.4644990000000  0.4623860000000 1.0
C      1  0.4931240000000  0.4463080000000  0.5535230000000 1.0
C      1  0.4942530000000  0.5573870000000  0.4472080000000 1.0
C      1  0.4459640000000  0.5079330000000  0.4432250000000 1.0
C      1  0.5392030000000  0.5062790000000  0.5395390000000 1.0
C      1  0.5364640000000  0.4932010000000  0.4619660000000 1.0
C      1  0.4728660000000  0.5182770000000  0.5571830000000 1.0
C      1  0.5632620000000  0.4688730000000  0.5179390000000 1.0
C      1  0.5211310000000  0.5585930000000  0.4684710000000 1.0
C      1  0.4668300000000  0.4827520000000  0.4369280000000 1.0
C      1  0.5281720000000  0.4825590000000  0.5596160000000 1.0
C      1  0.5254230000000  0.5174030000000  0.4421000000000 1.0
C      1  0.5633980000000  0.5295920000000  0.4818300000000 1.0
C      1  0.4416280000000  0.5264340000000  0.5150260000000 1.0
C      1  0.4397020000000  0.4677510000000  0.4796360000000 1.0
C      1  0.5194800000000  0.4427870000000  0.5323740000000 1.0
C      1  0.4817650000000  0.4448230000000  0.4749840000000 1.0
C      1  0.4821190000000  0.5580740000000  0.5287680000000 1.0
C      1  0.5287070000000  0.5177130000000  0.5589320000000 1.0
C      1  0.4373500000000  0.4685320000000  0.5177290000000 1.0
C      1  0.4835940000000  0.5614740000000  0.4689840000000 1.0
C      1  0.5249260000000  0.4817710000000  0.4433600000000 1.0
C      1  0.4724360000000  0.4829820000000  0.5592700000000 1.0
C      1  0.4671410000000  0.5206360000000  0.4397780000000 1.0
C      1  0.4424170000000  0.5251790000000  0.4816510000000 1.0
C      1  0.5616960000000  0.5292740000000  0.5193460000000 1.0
C      1  0.5612720000000  0.4700820000000  0.4809690000000 1.0
C      1  0.4803470000000  0.4424840000000  0.5329040000000 1.0
C      1  0.5155830000000  0.4452580000000  0.4741360000000 1.0
C      1  0.5197670000000  0.5601550000000  0.5288070000000 1.0
C      1  0.5148590000000  0.4813140000000  0.5650640000000 1.0
C      1  0.5637880000000  0.5148890000000  0.4815320000000 1.0
C      1  0.4837630000000  0.5594880000000  0.5137920000000 1.0
C      1  0.5121750000000  0.5201150000000  0.4368630000000 1.0
C      1  0.4861900000000  0.5203110000000  0.5626410000000 1.0
C      1  0.4814140000000  0.4830510000000  0.4363180000000 1.0
C      1  0.5644950000000  0.4837080000000  0.5182640000000 1.0
C      1  0.4366900000000  0.4824700000000  0.4783840000000 1.0
C      1  0.4367400000000  0.5126510000000  0.5164130000000 1.0
C      1  0.4806130000000  0.4397140000000  0.4883510000000 1.0
C      1  0.5198900000000  0.4408960000000  0.5174330000000 1.0
C      1  0.5223330000000  0.5606200000000  0.4835080000000 1.0
C      1  0.4857230000000  0.4815210000000  0.5648500000000 1.0
C      1  0.4361640000000  0.5124360000000  0.4792400000000 1.0
C      1  0.5218470000000  0.5615190000000  0.5141970000000 1.0
C      1  0.4820310000000  0.5216090000000  0.4371410000000 1.0
C      1  0.5151480000000  0.5200480000000  0.5632710000000 1.0
C      1  0.5111690000000  0.4823270000000  0.4374030000000 1.0
C      1  0.4365920000000  0.4831520000000  0.5173250000000 1.0
C      1  0.5632390000000  0.4847070000000  0.4808850000000 1.0
C      1  0.5639870000000  0.5144120000000  0.5189930000000 1.0
C      1  0.5181160000000  0.4411660000000  0.4877490000000 1.0
C      1  0.4797240000000  0.4401470000000  0.5181170000000 1.0
C      1  0.4843090000000  0.5606750000000  0.4836230000000 1.0
C      1  0.5465980000000  0.5551570000000  0.5130510000000 1.0
C      1  0.5156390000000  0.5439470000000  0.5542440000000 1.0
C      1  0.5522900000000  0.5112410000000  0.5406370000000 1.0
C      1  0.5429030000000  0.4464670000000  0.4855480000000 1.0
C      1  0.4541610000000  0.4432900000000  0.5145180000000 1.0
C      1  0.4639120000000  0.5455710000000  0.4849500000000 1.0
C      1  0.5090150000000  0.4609200000000  0.4492230000000 1.0
C      1  0.4863700000000  0.4569220000000  0.5589920000000 1.0
C      1  0.4862640000000  0.5467600000000  0.4425050000000 1.0
C      1  0.5489780000000  0.4875450000000  0.4605150000000 1.0
C      1  0.4499580000000  0.4856610000000  0.5389370000000 1.0
C      1  0.4416480000000  0.5133790000000  0.4550060000000 1.0
C      1  0.4623530000000  0.5473450000000  0.5105250000000 1.0
C      1  0.4870760000000  0.5445840000000  0.5555520000000 1.0
C      1  0.4497520000000  0.5131640000000  0.5377390000000 1.0
C      1  0.4560430000000  0.4432610000000  0.4874600000000 1.0
C      1  0.5451830000000  0.4442400000000  0.5135930000000 1.0
C      1  0.5474560000000  0.5554890000000  0.4863940000000 1.0
C      1  0.4836140000000  0.4629910000000  0.4515390000000 1.0
C      1  0.5139010000000  0.4568870000000  0.5587970000000 1.0
C      1  0.5132250000000  0.5443760000000  0.4424830000000 1.0
C      1  0.4412900000000  0.4861080000000  0.4529990000000 1.0
C      1  0.5504970000000  0.4852990000000  0.5392990000000 1.0
C      1  0.5482630000000  0.5137250000000  0.4615600000000 1.0
C      1  0.5198430000000  0.4524220000000  0.4500640000000 1.0
C      1  0.4454750000000  0.5268000000000  0.4531730000000 1.0
C      1  0.4499060000000  0.4483520000000  0.5265240000000 1.0
C      1  0.5288090000000  0.5464820000000  0.5488600000000 1.0
C      1  0.4742770000000  0.5505690000000  0.4479650000000 1.0
C      1  0.4730800000000  0.4541770000000  0.5553030000000 1.0
C      1  0.4518890000000  0.4739550000000  0.5471330000000 1.0
C      1  0.5480390000000  0.4755090000000  0.4530390000000 1.0
C      1  0.5517650000000  0.5223340000000  0.5489510000000 1.0
C      1  0.4551810000000  0.5453680000000  0.4737610000000 1.0
C      1  0.5497490000000  0.5509050000000  0.5261340000000 1.0
C      1  0.5453300000000  0.4518420000000  0.4722560000000 1.0
C      1  0.4723520000000  0.4548200000000  0.4538050000000 1.0
C      1  0.5467710000000  0.5254130000000  0.4535100000000 1.0
C      1  0.5498170000000  0.4486660000000  0.5257830000000 1.0
C      1  0.4738120000000  0.5471340000000  0.5510700000000 1.0
C      1  0.5266800000000  0.5461280000000  0.4460430000000 1.0
C      1  0.5271020000000  0.4539890000000  0.5549480000000 1.0
C      1  0.5484350000000  0.4734820000000  0.5471750000000 1.0
C      1  0.4464320000000  0.4739300000000  0.4492540000000 1.0
C      1  0.4520320000000  0.5260740000000  0.5440560000000 1.0
C      1  0.5510530000000  0.5504580000000  0.4741480000000 1.0
C      1  0.4529060000000  0.5483070000000  0.5205750000000 1.0
C      1  0.4538740000000  0.4463380000000  0.4739160000000 1.0
C      1  0.5294810000000  0.5069040000000  0.5503360000000 1.0
C      1  0.5635360000000  0.5370460000000  0.5078770000000 1.0
C      1  0.5079680000000  0.5604550000000  0.5361010000000 1.0
C      1  0.5264130000000  0.4926400000000  0.4514150000000 1.0
C      1  0.4714990000000  0.4929420000000  0.5498970000000 1.0
C      1  0.4596580000000  0.5088420000000  0.4377600000000 1.0
C      1  0.5622090000000  0.4618580000000  0.4920100000000 1.0
C      1  0.4370580000000  0.4606000000000  0.5061780000000 1.0
C      1  0.4520420000000  0.5246000000000  0.4915300000000 1.0
C      1  0.5054930000000  0.4547010000000  0.4732730000000 1.0
C      1  0.4925360000000  0.4414260000000  0.5397310000000 1.0
C      1  0.4949390000000  0.5624160000000  0.4609970000000 1.0
C      1  0.4715760000000  0.5072090000000  0.5491770000000 1.0
C      1  0.4518220000000  0.5250820000000  0.5056840000000 1.0
C      1  0.4933430000000  0.5601530000000  0.5365700000000 1.0
C      1  0.4591380000000  0.4943700000000  0.4364980000000 1.0
C      1  0.5291160000000  0.4927320000000  0.5504500000000 1.0
C      1  0.5262250000000  0.5069910000000  0.4510930000000 1.0
C      1  0.4381060000000  0.4606540000000  0.4916940000000 1.0
C      1  0.5631770000000  0.4610610000000  0.5063290000000 1.0
C      1  0.5642690000000  0.5373140000000  0.4934700000000 1.0
C      1  0.4913010000000  0.4546960000000  0.4737650000000 1.0
C      1  0.5074290000000  0.4414960000000  0.5394990000000 1.0
C      1  0.5093180000000  0.5609930000000  0.4612410000000 1.0
C      1  0.5521480000000  0.5354320000000  0.5431330000000 1.0
C      1  0.5428500000000  0.5588620000000  0.5344740000000 1.0
C      1  0.5402960000000  0.5390380000000  0.5514880000000 1.0
C      1  0.5573520000000  0.4665020000000  0.4573420000000 1.0
C      1  0.4480670000000  0.4620630000000  0.5413270000000 1.0
C      1  0.4377420000000  0.5355740000000  0.4606430000000 1.0
C      1  0.5369110000000  0.4497320000000  0.4613840000000 1.0
C      1  0.4566540000000  0.4502310000000  0.5389550000000 1.0
C      1  0.4599830000000  0.5510790000000  0.4621700000000 1.0
C      1  0.5333830000000  0.4577090000000  0.4492350000000 1.0
C      1  0.4639670000000  0.4610130000000  0.5631860000000 1.0
C      1  0.4619200000000  0.5435680000000  0.4496810000000 1.0
C      1  0.4486480000000  0.5379200000000  0.5373240000000 1.0
C      1  0.4576900000000  0.5493420000000  0.5340600000000 1.0
C      1  0.4643890000000  0.5404890000000  0.5585990000000 1.0
C      1  0.4485700000000  0.4618390000000  0.4566370000000 1.0
C      1  0.5521470000000  0.4616520000000  0.5411670000000 1.0
C      1  0.5518210000000  0.5370430000000  0.4589340000000 1.0
C      1  0.4604870000000  0.4375910000000  0.4653630000000 1.0
C      1  0.5432830000000  0.4501450000000  0.5383540000000 1.0
C      1  0.5439120000000  0.5491420000000  0.4618550000000 1.0
C      1  0.4605230000000  0.4594980000000  0.4485180000000 1.0
C      1  0.5363580000000  0.4603810000000  0.5630550000000 1.0
C      1  0.5351100000000  0.5388600000000  0.4378060000000 1.0
C      1  0.5386890000000  0.4729060000000  0.5579240000000 1.0
C      1  0.5587600000000  0.5382420000000  0.4716350000000 1.0
C      1  0.4709080000000  0.5526960000000  0.5377840000000 1.0
C      1  0.5366400000000  0.5263510000000  0.4432360000000 1.0
C      1  0.4620230000000  0.5276490000000  0.5545170000000 1.0
C      1  0.4585960000000  0.4720450000000  0.4413770000000 1.0
C      1  0.5583820000000  0.4603280000000  0.5281310000000 1.0
C      1  0.4461780000000  0.4584980000000  0.4698890000000 1.0
C      1  0.4437660000000  0.5373370000000  0.5236170000000 1.0
C      1  0.4721300000000  0.4449510000000  0.4643500000000 1.0
C      1  0.5300340000000  0.4477460000000  0.5419120000000 1.0
C      1  0.5307910000000  0.5524450000000  0.4587720000000 1.0
C      1  0.4617090000000  0.4734520000000  0.5578330000000 1.0
C      1  0.4440910000000  0.5362180000000  0.4728480000000 1.0
C      1  0.5302300000000  0.5562570000000  0.5381930000000 1.0
C      1  0.4580890000000  0.5305750000000  0.4463340000000 1.0
C      1  0.5400570000000  0.5258100000000  0.5570690000000 1.0
C      1  0.5354600000000  0.4715130000000  0.4469500000000 1.0
C      1  0.4417430000000  0.4603250000000  0.5283860000000 1.0
C      1  0.5557410000000  0.4619670000000  0.4701730000000 1.0
C      1  0.5557100000000  0.5382620000000  0.5298410000000 1.0
C      1  0.5233630000000  0.4452300000000  0.4623330000000 1.0
C      1  0.4699270000000  0.4477180000000  0.5424380000000 1.0
C      1  0.4727340000000  0.5578150000000  0.4606020000000 1.0
C      1  0.4928570000000  0.4690400000000  0.5638680000000 1.0
C      1  0.5581380000000  0.4928940000000  0.4702650000000 1.0
C      1  0.4735500000000  0.5548940000000  0.4908590000000 1.0
C      1  0.4909060000000  0.5335260000000  0.4384360000000 1.0
C      1  0.5084690000000  0.5324500000000  0.5604030000000 1.0
C      1  0.5032020000000  0.4710660000000  0.4403480000000 1.0
C      1  0.5602420000000  0.5058590000000  0.5299310000000 1.0
C      1  0.4372760000000  0.5057670000000  0.4666910000000 1.0
C      1  0.4412310000000  0.4911680000000  0.5285100000000 1.0
C      1  0.4675590000000  0.4402810000000  0.5096040000000 1.0
C      1  0.5310270000000  0.4422120000000  0.4937000000000 1.0
C      1  0.5342820000000  0.5594530000000  0.5066690000000 1.0
C      1  0.5075460000000  0.4689610000000  0.5638710000000 1.0
C      1  0.4376040000000  0.4910780000000  0.4662070000000 1.0
C      1  0.5344350000000  0.5591900000000  0.4919160000000 1.0
C      1  0.5055880000000  0.5327640000000  0.4380520000000 1.0
C      1  0.4936160000000  0.5326500000000  0.5607070000000 1.0
C      1  0.4888250000000  0.4717390000000  0.4410700000000 1.0
C      1  0.4410770000000  0.5058780000000  0.5280690000000 1.0
C      1  0.5578990000000  0.5075960000000  0.4707760000000 1.0
C      1  0.5597540000000  0.4911560000000  0.5294890000000 1.0
C      1  0.5318330000000  0.4417340000000  0.5084600000000 1.0
C      1  0.4680280000000  0.4398450000000  0.4950260000000 1.0
C      1  0.4731330000000  0.5552260000000  0.5053320000000 1.0
C      1  0.5075330000000  0.4391640000000  0.5106400000000 1.0
C      1  0.5037510000000  0.5090800000000  0.4346550000000 1.0
C      1  0.4338910000000  0.5045340000000  0.5050880000000 1.0
C      1  0.5107360000000  0.5629690000000  0.4914200000000 1.0
C      1  0.4957020000000  0.5625280000000  0.5062020000000 1.0
C      1  0.4921540000000  0.4387310000000  0.4965480000000 1.0
C      1  0.5075030000000  0.4933830000000  0.5670850000000 1.0
C      1  0.4890730000000  0.4946620000000  0.4340350000000 1.0
C      1  0.4933570000000  0.5084570000000  0.5659680000000 1.0
C      1  0.4339010000000  0.4898200000000  0.4902160000000 1.0
C      1  0.5672680000000  0.4919610000000  0.5070980000000 1.0
C      1  0.5669840000000  0.5068790000000  0.4927070000000 1.0
C      1  0.4919740000000  0.4386850000000  0.5109030000000 1.0
C      1  0.4892860000000  0.5097200000000  0.4343650000000 1.0
C      1  0.5672190000000  0.5067090000000  0.5074030000000 1.0
C      1  0.4958280000000  0.5628860000000  0.4915260000000 1.0
C      1  0.5105680000000  0.5630140000000  0.5060160000000 1.0
C      1  0.5069800000000  0.4393400000000  0.4962850000000 1.0
C      1  0.4932270000000  0.4934860000000  0.5668050000000 1.0
C      1  0.5036470000000  0.4943550000000  0.4346440000000 1.0
C      1  0.5076310000000  0.5083860000000  0.5663140000000 1.0
C      1  0.5668640000000  0.4922630000000  0.4924010000000 1.0
C      1  0.4339210000000  0.4900760000000  0.5053780000000 1.0
C      1  0.4336910000000  0.5042310000000  0.4904080000000 1.0
END
