TITL C-114178-678-100 -0.0111032576037551 1000000 -1648.29546073103 0 0 240 (Td) n - 1
REM
REM in /home/chem/mssmkc/work/GAP20/Larger-Clusters/Only-C240/New/BUILD-ONLY
REM
REM
REM
REM
REM
REM ./C.cell (daee87de7206da95283bc1c1416dbc6f)
REM
REM compiler GCC version 8.3.0
REM options -cpp -mtune=generic -march=x86-64 -g -O0
REM seed -2010039877 921977480 -566907808 2084154422 617353058 -1679957588 -1673122244 742337891 1528259534 -134593345 -124367786 -110439311 -1299066766 -1481764512 -155741744 1706640372 -595661800 -886469046 63233619 -965966835 -1202775503 1283118590 -1189375445 635317544 -1326159564 -1619310475 -1676033612 -2088252079 -2144695820 -1506692980 616301501 -421858981 -11068078
REM
CELL 1.54180  100.00000  100.00000  100.00000   90.00000   90.00000   90.00000
LATT -1
SFAC C  
C      1  0.5691220000000  0.4858500000000  0.5247970000000 1.0
C      1  0.4858500000000  0.5247970000000  0.5691220000000 1.0
C      1  0.5247970000000  0.5691220000000  0.4858500000000 1.0
C      1  0.4308780000000  0.4858500000000  0.4752030000000 1.0
C      1  0.4308780000000  0.5141500000000  0.5247970000000 1.0
C      1  0.5691220000000  0.5141500000000  0.4752030000000 1.0
C      1  0.5141500000000  0.5247970000000  0.4308780000000 1.0
C      1  0.5141500000000  0.4752030000000  0.5691220000000 1.0
C      1  0.4858500000000  0.4752030000000  0.4308780000000 1.0
C      1  0.4752030000000  0.5691220000000  0.5141490000000 1.0
C      1  0.4752030000000  0.4308780000000  0.4858500000000 1.0
C      1  0.5247970000000  0.4308780000000  0.5141500000000 1.0
C      1  0.5247970000000  0.4858500000000  0.5691220000000 1.0
C      1  0.5691220000000  0.5247970000000  0.4858500000000 1.0
C      1  0.4858500000000  0.5691220000000  0.5247970000000 1.0
C      1  0.4752030000000  0.4858500000000  0.4308780000000 1.0
C      1  0.5247970000000  0.5141490000000  0.4308780000000 1.0
C      1  0.4752030000000  0.5141500000000  0.5691220000000 1.0
C      1  0.4308780000000  0.5247970000000  0.5141490000000 1.0
C      1  0.5691220000000  0.4752030000000  0.5141500000000 1.0
C      1  0.4308780000000  0.4752030000000  0.4858500000000 1.0
C      1  0.5141500000000  0.5691220000000  0.4752030000000 1.0
C      1  0.4858500000000  0.4308780000000  0.4752030000000 1.0
C      1  0.5141500000000  0.4308780000000  0.5247970000000 1.0
C      1  0.5104770000000  0.4690130000000  0.5213470000000 1.0
C      1  0.4690130000000  0.5213470000000  0.5104770000000 1.0
C      1  0.5213470000000  0.5104770000000  0.4690130000000 1.0
C      1  0.4895230000000  0.4690130000000  0.4786530000000 1.0
C      1  0.4895230000000  0.5309870000000  0.5213470000000 1.0
C      1  0.5104770000000  0.5309870000000  0.4786530000000 1.0
C      1  0.5309870000000  0.5213470000000  0.4895230000000 1.0
C      1  0.5309870000000  0.4786530000000  0.5104770000000 1.0
C      1  0.4690130000000  0.4786530000000  0.4895230000000 1.0
C      1  0.4786530000000  0.5104770000000  0.5309870000000 1.0
C      1  0.4786530000000  0.4895230000000  0.4690130000000 1.0
C      1  0.5213470000000  0.4895230000000  0.5309870000000 1.0
C      1  0.5213470000000  0.4690130000000  0.5104770000000 1.0
C      1  0.5104770000000  0.5213470000000  0.4690130000000 1.0
C      1  0.4690130000000  0.5104770000000  0.5213470000000 1.0
C      1  0.4786530000000  0.4690130000000  0.4895230000000 1.0
C      1  0.5213470000000  0.5309870000000  0.4895230000000 1.0
C      1  0.4786530000000  0.5309870000000  0.5104770000000 1.0
C      1  0.4895230000000  0.5213470000000  0.5309870000000 1.0
C      1  0.5104770000000  0.4786530000000  0.5309870000000 1.0
C      1  0.4895230000000  0.4786530000000  0.4690130000000 1.0
C      1  0.5309870000000  0.5104770000000  0.4786530000000 1.0
C      1  0.4690130000000  0.4895230000000  0.4786530000000 1.0
C      1  0.5309870000000  0.4895230000000  0.5213470000000 1.0
C      1  0.5655330000000  0.4850220000000  0.5045850000000 1.0
C      1  0.4850220000000  0.5045860000000  0.5655330000000 1.0
C      1  0.5045850000000  0.5655330000000  0.4850220000000 1.0
C      1  0.4344670000000  0.4850220000000  0.4954150000000 1.0
C      1  0.4344670000000  0.5149780000000  0.5045850000000 1.0
C      1  0.5655330000000  0.5149780000000  0.4954150000000 1.0
C      1  0.5149780000000  0.5045850000000  0.4344670000000 1.0
C      1  0.5149780000000  0.4954150000000  0.5655330000000 1.0
C      1  0.4850220000000  0.4954150000000  0.4344670000000 1.0
C      1  0.4954150000000  0.5655330000000  0.5149780000000 1.0
C      1  0.4954150000000  0.4344670000000  0.4850220000000 1.0
C      1  0.5045850000000  0.4344670000000  0.5149780000000 1.0
C      1  0.5045850000000  0.4850220000000  0.5655330000000 1.0
C      1  0.5655330000000  0.5045850000000  0.4850220000000 1.0
C      1  0.4850220000000  0.5655330000000  0.5045850000000 1.0
C      1  0.4954150000000  0.4850220000000  0.4344670000000 1.0
C      1  0.5045850000000  0.5149780000000  0.4344670000000 1.0
C      1  0.4954150000000  0.5149780000000  0.5655330000000 1.0
C      1  0.4344670000000  0.5045850000000  0.5149780000000 1.0
C      1  0.5655330000000  0.4954150000000  0.5149780000000 1.0
C      1  0.4344670000000  0.4954150000000  0.4850220000000 1.0
C      1  0.5149780000000  0.5655330000000  0.4954150000000 1.0
C      1  0.4850220000000  0.4344670000000  0.4954150000000 1.0
C      1  0.5149780000000  0.4344670000000  0.5045860000000 1.0
C      1  0.5257050000000  0.4480290000000  0.4842900000000 1.0
C      1  0.4480290000000  0.4842900000000  0.5257050000000 1.0
C      1  0.4842900000000  0.5257050000000  0.4480290000000 1.0
C      1  0.4742940000000  0.4480300000000  0.5157100000000 1.0
C      1  0.4742950000000  0.5519710000000  0.4842900000000 1.0
C      1  0.5257050000000  0.5519710000000  0.5157100000000 1.0
C      1  0.5519710000000  0.4842900000000  0.4742950000000 1.0
C      1  0.5519710000000  0.5157100000000  0.5257050000000 1.0
C      1  0.4480300000000  0.5157100000000  0.4742940000000 1.0
C      1  0.5157100000000  0.5257060000000  0.5519710000000 1.0
C      1  0.5157100000000  0.4742940000000  0.4480300000000 1.0
C      1  0.4842900000000  0.4742950000000  0.5519710000000 1.0
C      1  0.4842900000000  0.4480300000000  0.5257060000000 1.0
C      1  0.5257060000000  0.4842900000000  0.4480300000000 1.0
C      1  0.4480300000000  0.5257050000000  0.4842900000000 1.0
C      1  0.5157100000000  0.4480290000000  0.4742950000000 1.0
C      1  0.4842900000000  0.5519700000000  0.4742940000000 1.0
C      1  0.5157100000000  0.5519710000000  0.5257050000000 1.0
C      1  0.4742940000000  0.4842900000000  0.5519710000000 1.0
C      1  0.5257050000000  0.5157100000000  0.5519710000000 1.0
C      1  0.4742950000000  0.5157100000000  0.4480290000000 1.0
C      1  0.5519710000000  0.5257050000000  0.5157100000000 1.0
C      1  0.4480290000000  0.4742950000000  0.5157100000000 1.0
C      1  0.5519710000000  0.4742940000000  0.4842900000000 1.0
C      1  0.5326800000000  0.4775680000000  0.5594780000000 1.0
C      1  0.4775680000000  0.5594780000000  0.5326800000000 1.0
C      1  0.5594780000000  0.5326800000000  0.4775680000000 1.0
C      1  0.4673200000000  0.4775670000000  0.4405220000000 1.0
C      1  0.4673200000000  0.5224330000000  0.5594780000000 1.0
C      1  0.5326800000000  0.5224320000000  0.4405220000000 1.0
C      1  0.5224330000000  0.5594780000000  0.4673200000000 1.0
C      1  0.5224320000000  0.4405220000000  0.5326800000000 1.0
C      1  0.4775680000000  0.4405220000000  0.4673200000000 1.0
C      1  0.4405220000000  0.5326800000000  0.5224320000000 1.0
C      1  0.4405220000000  0.4673200000000  0.4775680000000 1.0
C      1  0.5594780000000  0.4673200000000  0.5224330000000 1.0
C      1  0.5594780000000  0.4775680000000  0.5326800000000 1.0
C      1  0.5326800000000  0.5594780000000  0.4775670000000 1.0
C      1  0.4775670000000  0.5326800000000  0.5594780000000 1.0
C      1  0.4405220000000  0.4775680000000  0.4673200000000 1.0
C      1  0.5594780000000  0.5224320000000  0.4673200000000 1.0
C      1  0.4405220000000  0.5224330000000  0.5326800000000 1.0
C      1  0.4673200000000  0.5594780000000  0.5224320000000 1.0
C      1  0.5326800000000  0.4405220000000  0.5224330000000 1.0
C      1  0.4673200000000  0.4405220000000  0.4775680000000 1.0
C      1  0.5224330000000  0.5326800000000  0.4405220000000 1.0
C      1  0.4775680000000  0.4673200000000  0.4405220000000 1.0
C      1  0.5224320000000  0.4673200000000  0.5594780000000 1.0
C      1  0.5156580000000  0.5042500000000  0.5538070000000 1.0
C      1  0.5042500000000  0.5538070000000  0.5156580000000 1.0
C      1  0.5538070000000  0.5156580000000  0.5042500000000 1.0
C      1  0.4843420000000  0.5042500000000  0.4461930000000 1.0
C      1  0.4843420000000  0.4957500000000  0.5538070000000 1.0
C      1  0.5156580000000  0.4957500000000  0.4461930000000 1.0
C      1  0.4957500000000  0.5538070000000  0.4843420000000 1.0
C      1  0.4957500000000  0.4461930000000  0.5156580000000 1.0
C      1  0.5042500000000  0.4461930000000  0.4843420000000 1.0
C      1  0.4461930000000  0.5156580000000  0.4957500000000 1.0
C      1  0.4461930000000  0.4843420000000  0.5042500000000 1.0
C      1  0.5538070000000  0.4843420000000  0.4957500000000 1.0
C      1  0.5538070000000  0.5042500000000  0.5156580000000 1.0
C      1  0.5156580000000  0.5538070000000  0.5042500000000 1.0
C      1  0.5042500000000  0.5156580000000  0.5538070000000 1.0
C      1  0.4461930000000  0.5042500000000  0.4843420000000 1.0
C      1  0.5538070000000  0.4957500000000  0.4843420000000 1.0
C      1  0.4461930000000  0.4957500000000  0.5156580000000 1.0
C      1  0.4843420000000  0.5538070000000  0.4957500000000 1.0
C      1  0.5156580000000  0.4461930000000  0.4957500000000 1.0
C      1  0.4843420000000  0.4461930000000  0.5042500000000 1.0
C      1  0.4957500000000  0.5156580000000  0.4461930000000 1.0
C      1  0.5042500000000  0.4843420000000  0.4461930000000 1.0
C      1  0.4957500000000  0.4843420000000  0.5538070000000 1.0
C      1  0.4842050000000  0.4472780000000  0.4575790000000 1.0
C      1  0.4472780000000  0.4575790000000  0.4842050000000 1.0
C      1  0.4575790000000  0.4842050000000  0.4472780000000 1.0
C      1  0.5157950000000  0.4472780000000  0.5424210000000 1.0
C      1  0.5157950000000  0.5527210000000  0.4575790000000 1.0
C      1  0.4842050000000  0.5527220000000  0.5424210000000 1.0
C      1  0.5527220000000  0.4575790000000  0.5157950000000 1.0
C      1  0.5527220000000  0.5424210000000  0.4842050000000 1.0
C      1  0.4472780000000  0.5424210000000  0.5157940000000 1.0
C      1  0.5424210000000  0.4842050000000  0.5527220000000 1.0
C      1  0.5424210000000  0.5157950000000  0.4472780000000 1.0
C      1  0.4575790000000  0.5157950000000  0.5527210000000 1.0
C      1  0.4575790000000  0.4472780000000  0.4842050000000 1.0
C      1  0.4842050000000  0.4575790000000  0.4472780000000 1.0
C      1  0.4472780000000  0.4842050000000  0.4575790000000 1.0
C      1  0.5424210000000  0.4472780000000  0.5157950000000 1.0
C      1  0.4575790000000  0.5527220000000  0.5157940000000 1.0
C      1  0.5424210000000  0.5527220000000  0.4842050000000 1.0
C      1  0.5157950000000  0.4575790000000  0.5527220000000 1.0
C      1  0.4842050000000  0.5424210000000  0.5527210000000 1.0
C      1  0.5157950000000  0.5424210000000  0.4472780000000 1.0
C      1  0.5527220000000  0.4842050000000  0.5424210000000 1.0
C      1  0.4472780000000  0.5157950000000  0.5424210000000 1.0
C      1  0.5527220000000  0.5157950000000  0.4575790000000 1.0
C      1  0.5124640000000  0.4611900000000  0.4507690000000 1.0
C      1  0.4611900000000  0.4507690000000  0.5124640000000 1.0
C      1  0.4507690000000  0.5124640000000  0.4611900000000 1.0
C      1  0.4875360000000  0.4611900000000  0.5492310000000 1.0
C      1  0.4875360000000  0.5388100000000  0.4507690000000 1.0
C      1  0.5124640000000  0.5388100000000  0.5492310000000 1.0
C      1  0.5388100000000  0.4507690000000  0.4875360000000 1.0
C      1  0.5388100000000  0.5492310000000  0.5124640000000 1.0
C      1  0.4611900000000  0.5492310000000  0.4875360000000 1.0
C      1  0.5492310000000  0.5124640000000  0.5388100000000 1.0
C      1  0.5492310000000  0.4875360000000  0.4611900000000 1.0
C      1  0.4507690000000  0.4875360000000  0.5388100000000 1.0
C      1  0.4507690000000  0.4611900000000  0.5124640000000 1.0
C      1  0.5124640000000  0.4507690000000  0.4611900000000 1.0
C      1  0.4611900000000  0.5124640000000  0.4507690000000 1.0
C      1  0.5492310000000  0.4611900000000  0.4875360000000 1.0
C      1  0.4507690000000  0.5388100000000  0.4875360000000 1.0
C      1  0.5492310000000  0.5388100000000  0.5124640000000 1.0
C      1  0.4875360000000  0.4507690000000  0.5388100000000 1.0
C      1  0.5124640000000  0.5492310000000  0.5388100000000 1.0
C      1  0.4875360000000  0.5492310000000  0.4611900000000 1.0
C      1  0.5388100000000  0.5124640000000  0.5492310000000 1.0
C      1  0.4611900000000  0.4875360000000  0.5492310000000 1.0
C      1  0.5388100000000  0.4875360000000  0.4507690000000 1.0
C      1  0.4938810000000  0.5437050000000  0.5161810000000 1.0
C      1  0.5437050000000  0.5161810000000  0.4938810000000 1.0
C      1  0.5161810000000  0.4938810000000  0.5437050000000 1.0
C      1  0.5061200000000  0.5437050000000  0.4838180000000 1.0
C      1  0.5061190000000  0.4562950000000  0.5161820000000 1.0
C      1  0.4938800000000  0.4562950000000  0.4838190000000 1.0
C      1  0.4562950000000  0.5161820000000  0.5061190000000 1.0
C      1  0.4562950000000  0.4838190000000  0.4938800000000 1.0
C      1  0.5437050000000  0.4838190000000  0.5061200000000 1.0
C      1  0.4838190000000  0.4938800000000  0.4562950000000 1.0
C      1  0.4838180000000  0.5061200000000  0.5437050000000 1.0
C      1  0.5161820000000  0.5061190000000  0.4562950000000 1.0
C      1  0.5161810000000  0.5437050000000  0.4938800000000 1.0
C      1  0.4938800000000  0.5161820000000  0.5437050000000 1.0
C      1  0.5437050000000  0.4938810000000  0.5161820000000 1.0
C      1  0.4838190000000  0.5437050000000  0.5061190000000 1.0
C      1  0.5161810000000  0.4562950000000  0.5061200000000 1.0
C      1  0.4838190000000  0.4562950000000  0.4938810000000 1.0
C      1  0.5061200000000  0.5161810000000  0.4562950000000 1.0
C      1  0.4938810000000  0.4838180000000  0.4562950000000 1.0
C      1  0.5061190000000  0.4838190000000  0.5437050000000 1.0
C      1  0.4562950000000  0.4938810000000  0.4838190000000 1.0
C      1  0.5437050000000  0.5061190000000  0.4838190000000 1.0
C      1  0.4562950000000  0.5061200000000  0.5161810000000 1.0
C      1  0.5010330000000  0.5535540000000  0.4571610000000 1.0
C      1  0.5535540000000  0.4571610000000  0.5010330000000 1.0
C      1  0.4571610000000  0.5010330000000  0.5535540000000 1.0
C      1  0.4989670000000  0.5535540000000  0.5428390000000 1.0
C      1  0.4989670000000  0.4464460000000  0.4571610000000 1.0
C      1  0.5010330000000  0.4464460000000  0.5428390000000 1.0
C      1  0.4464460000000  0.4571610000000  0.4989670000000 1.0
C      1  0.4464460000000  0.5428390000000  0.5010330000000 1.0
C      1  0.5535540000000  0.5428390000000  0.4989670000000 1.0
C      1  0.5428390000000  0.5010330000000  0.4464460000000 1.0
C      1  0.5428390000000  0.4989670000000  0.5535540000000 1.0
C      1  0.4571610000000  0.4989670000000  0.4464460000000 1.0
C      1  0.4571610000000  0.5535540000000  0.5010330000000 1.0
C      1  0.5010330000000  0.4571610000000  0.5535540000000 1.0
C      1  0.5535540000000  0.5010330000000  0.4571610000000 1.0
C      1  0.5428390000000  0.5535540000000  0.4989670000000 1.0
C      1  0.4571610000000  0.4464460000000  0.4989670000000 1.0
C      1  0.5428390000000  0.4464460000000  0.5010330000000 1.0
C      1  0.4989670000000  0.4571610000000  0.4464460000000 1.0
C      1  0.5010330000000  0.5428390000000  0.4464460000000 1.0
C      1  0.4989670000000  0.5428390000000  0.5535540000000 1.0
C      1  0.4464460000000  0.5010330000000  0.5428390000000 1.0
C      1  0.5535540000000  0.4989670000000  0.5428390000000 1.0
C      1  0.4464460000000  0.4989670000000  0.4571610000000 1.0
END
