TITL C-114181-47-16 -23.5957038903704 1000000 -1614.21138963007 0 0 240 (Th) n - 1
REM
REM in /home/chem/mssmkc/work/GAP20/Larger-Clusters/Only-C240/New/BUILD-ONLY
REM
REM
REM
REM
REM
REM ./C.cell (daee87de7206da95283bc1c1416dbc6f)
REM
REM compiler GCC version 8.3.0
REM options -cpp -mtune=generic -march=x86-64 -g -O0
REM seed 519050699 -1160829128 -985024759 -426055578 492468689 -929109092 -645875642 -1634877177 808310450 -1796361781 -96101530 -1521710339 2050712476 -925970766 -1761206324 267587339 -506400350 -596976686 315255294 -46975017 1908074197 -507159008 -672191923 -113425182 -384365116 -136421672 65793437 -1841547246 1216417753 -1838767391 -758267717 1608990315 -75818575
REM
CELL 1.54180  100.00000  100.00000  100.00000   90.00000   90.00000   90.00000
LATT -1
SFAC C  
C      1  0.5352180000000  0.4823800000000  0.5496560000000 1.0
C      1  0.4823800000000  0.5496560000000  0.5352180000000 1.0
C      1  0.5496560000000  0.5352180000000  0.4823800000000 1.0
C      1  0.4647820000000  0.4823800000000  0.4503440000000 1.0
C      1  0.4647820000000  0.5176200000000  0.5496560000000 1.0
C      1  0.5352180000000  0.5176200000000  0.4503440000000 1.0
C      1  0.5176200000000  0.5496560000000  0.4647820000000 1.0
C      1  0.5176200000000  0.4503440000000  0.5352180000000 1.0
C      1  0.4823800000000  0.4503440000000  0.4647820000000 1.0
C      1  0.4503440000000  0.5352180000000  0.5176200000000 1.0
C      1  0.4503440000000  0.4647820000000  0.4823800000000 1.0
C      1  0.5496560000000  0.4647820000000  0.5176200000000 1.0
C      1  0.5352180000000  0.5176200000000  0.5496560000000 1.0
C      1  0.4823800000000  0.4503440000000  0.5352180000000 1.0
C      1  0.5496560000000  0.4647820000000  0.4823800000000 1.0
C      1  0.4647820000000  0.5176200000000  0.4503440000000 1.0
C      1  0.4647820000000  0.4823800000000  0.5496560000000 1.0
C      1  0.5352180000000  0.4823800000000  0.4503440000000 1.0
C      1  0.5176200000000  0.4503440000000  0.4647820000000 1.0
C      1  0.5176200000000  0.5496560000000  0.5352180000000 1.0
C      1  0.4823800000000  0.5496560000000  0.4647820000000 1.0
C      1  0.4503440000000  0.4647820000000  0.5176200000000 1.0
C      1  0.4503440000000  0.5352180000000  0.4823800000000 1.0
C      1  0.5496560000000  0.5352180000000  0.5176200000000 1.0
C      1  0.5610840000000  0.5175970000000  0.4720620000000 1.0
C      1  0.5175970000000  0.4720620000000  0.5610840000000 1.0
C      1  0.4720620000000  0.5610840000000  0.5175970000000 1.0
C      1  0.4389160000000  0.5175970000000  0.5279380000000 1.0
C      1  0.4389160000000  0.4824020000000  0.4720620000000 1.0
C      1  0.5610840000000  0.4824030000000  0.5279380000000 1.0
C      1  0.4824030000000  0.4720620000000  0.4389160000000 1.0
C      1  0.4824030000000  0.5279380000000  0.5610840000000 1.0
C      1  0.5175970000000  0.5279380000000  0.4389160000000 1.0
C      1  0.5279380000000  0.5610840000000  0.4824030000000 1.0
C      1  0.5279380000000  0.4389160000000  0.5175970000000 1.0
C      1  0.4720620000000  0.4389160000000  0.4824030000000 1.0
C      1  0.5610840000000  0.4824030000000  0.4720620000000 1.0
C      1  0.5175970000000  0.5279380000000  0.5610840000000 1.0
C      1  0.4720620000000  0.4389160000000  0.5175970000000 1.0
C      1  0.4389160000000  0.4824030000000  0.5279380000000 1.0
C      1  0.4389160000000  0.5175970000000  0.4720620000000 1.0
C      1  0.5610840000000  0.5175980000000  0.5279380000000 1.0
C      1  0.4824030000000  0.5279380000000  0.4389160000000 1.0
C      1  0.4824030000000  0.4720620000000  0.5610840000000 1.0
C      1  0.5175970000000  0.4720620000000  0.4389160000000 1.0
C      1  0.5279380000000  0.4389160000000  0.4824030000000 1.0
C      1  0.5279380000000  0.5610840000000  0.5175970000000 1.0
C      1  0.4720620000000  0.5610840000000  0.4824030000000 1.0
C      1  0.5143350000000  0.4341260000000  0.5187570000000 1.0
C      1  0.4341260000000  0.5187570000000  0.5143340000000 1.0
C      1  0.5187570000000  0.5143340000000  0.4341260000000 1.0
C      1  0.4856660000000  0.4341260000000  0.4812430000000 1.0
C      1  0.4856650000000  0.5658740000000  0.5187570000000 1.0
C      1  0.5143340000000  0.5658740000000  0.4812430000000 1.0
C      1  0.5658740000000  0.5187570000000  0.4856660000000 1.0
C      1  0.5658740000000  0.4812430000000  0.5143340000000 1.0
C      1  0.4341260000000  0.4812420000000  0.4856660000000 1.0
C      1  0.4812430000000  0.5143340000000  0.5658740000000 1.0
C      1  0.4812430000000  0.4856650000000  0.4341260000000 1.0
C      1  0.5187570000000  0.4856660000000  0.5658740000000 1.0
C      1  0.5143340000000  0.5658740000000  0.5187570000000 1.0
C      1  0.4341260000000  0.4812430000000  0.5143340000000 1.0
C      1  0.5187570000000  0.4856660000000  0.4341260000000 1.0
C      1  0.4856650000000  0.5658740000000  0.4812430000000 1.0
C      1  0.4856660000000  0.4341260000000  0.5187570000000 1.0
C      1  0.5143350000000  0.4341260000000  0.4812430000000 1.0
C      1  0.5658740000000  0.4812430000000  0.4856660000000 1.0
C      1  0.5658740000000  0.5187580000000  0.5143340000000 1.0
C      1  0.4341260000000  0.5187570000000  0.4856660000000 1.0
C      1  0.4812430000000  0.4856660000000  0.5658740000000 1.0
C      1  0.4812430000000  0.5143340000000  0.4341260000000 1.0
C      1  0.5187570000000  0.5143350000000  0.5658740000000 1.0
C      1  0.4465810000000  0.5068170000000  0.5340310000000 1.0
C      1  0.5068170000000  0.5340310000000  0.4465810000000 1.0
C      1  0.5340310000000  0.4465820000000  0.5068180000000 1.0
C      1  0.5534180000000  0.5068170000000  0.4659690000000 1.0
C      1  0.5534190000000  0.4931830000000  0.5340310000000 1.0
C      1  0.4465820000000  0.4931820000000  0.4659690000000 1.0
C      1  0.4931820000000  0.5340310000000  0.5534180000000 1.0
C      1  0.4931830000000  0.4659690000000  0.4465820000000 1.0
C      1  0.5068170000000  0.4659690000000  0.5534190000000 1.0
C      1  0.4659700000000  0.4465810000000  0.4931830000000 1.0
C      1  0.4659690000000  0.5534180000000  0.5068170000000 1.0
C      1  0.5340310000000  0.5534190000000  0.4931830000000 1.0
C      1  0.4465820000000  0.4931830000000  0.5340310000000 1.0
C      1  0.5068180000000  0.4659690000000  0.4465820000000 1.0
C      1  0.5340300000000  0.5534190000000  0.5068170000000 1.0
C      1  0.5534190000000  0.4931830000000  0.4659690000000 1.0
C      1  0.5534180000000  0.5068180000000  0.5340310000000 1.0
C      1  0.4465810000000  0.5068170000000  0.4659690000000 1.0
C      1  0.4931830000000  0.4659690000000  0.5534190000000 1.0
C      1  0.4931830000000  0.5340310000000  0.4465810000000 1.0
C      1  0.5068170000000  0.5340310000000  0.5534180000000 1.0
C      1  0.4659690000000  0.5534180000000  0.4931820000000 1.0
C      1  0.4659700000000  0.4465810000000  0.5068170000000 1.0
C      1  0.5340310000000  0.4465820000000  0.4931830000000 1.0
C      1  0.4926210000000  0.5610250000000  0.5073820000000 1.0
C      1  0.5610250000000  0.5073820000000  0.4926210000000 1.0
C      1  0.5073820000000  0.4926210000000  0.5610250000000 1.0
C      1  0.5073790000000  0.5610250000000  0.4926180000000 1.0
C      1  0.5073790000000  0.4389750000000  0.5073820000000 1.0
C      1  0.4926210000000  0.4389750000000  0.4926180000000 1.0
C      1  0.4389750000000  0.5073820000000  0.5073790000000 1.0
C      1  0.4389750000000  0.4926180000000  0.4926210000000 1.0
C      1  0.5610250000000  0.4926180000000  0.5073790000000 1.0
C      1  0.4926180000000  0.4926210000000  0.4389750000000 1.0
C      1  0.4926180000000  0.5073790000000  0.5610250000000 1.0
C      1  0.5073820000000  0.5073790000000  0.4389750000000 1.0
C      1  0.4926210000000  0.4389750000000  0.5073820000000 1.0
C      1  0.5610250000000  0.4926180000000  0.4926210000000 1.0
C      1  0.5073820000000  0.5073790000000  0.5610250000000 1.0
C      1  0.5073790000000  0.4389750000000  0.4926180000000 1.0
C      1  0.5073790000000  0.5610250000000  0.5073820000000 1.0
C      1  0.4926210000000  0.5610250000000  0.4926180000000 1.0
C      1  0.4389750000000  0.4926180000000  0.5073790000000 1.0
C      1  0.4389750000000  0.5073820000000  0.4926210000000 1.0
C      1  0.5610250000000  0.5073820000000  0.5073790000000 1.0
C      1  0.4926180000000  0.5073790000000  0.4389750000000 1.0
C      1  0.4926180000000  0.4926210000000  0.5610250000000 1.0
C      1  0.5073820000000  0.4926210000000  0.4389750000000 1.0
C      1  0.5268410000000  0.5292090000000  0.5182080000000 1.0
C      1  0.5292090000000  0.5182080000000  0.5268410000000 1.0
C      1  0.5182080000000  0.5268410000000  0.5292090000000 1.0
C      1  0.4731590000000  0.5292090000000  0.4817920000000 1.0
C      1  0.4731590000000  0.4707910000000  0.5182080000000 1.0
C      1  0.5268410000000  0.4707910000000  0.4817920000000 1.0
C      1  0.4707910000000  0.5182080000000  0.4731590000000 1.0
C      1  0.4707910000000  0.4817920000000  0.5268410000000 1.0
C      1  0.5292090000000  0.4817920000000  0.4731590000000 1.0
C      1  0.4817920000000  0.5268410000000  0.4707910000000 1.0
C      1  0.4817920000000  0.4731590000000  0.5292090000000 1.0
C      1  0.5182080000000  0.4731590000000  0.4707910000000 1.0
C      1  0.5268410000000  0.4707910000000  0.5182080000000 1.0
C      1  0.5292090000000  0.4817920000000  0.5268410000000 1.0
C      1  0.5182080000000  0.4731590000000  0.5292090000000 1.0
C      1  0.4731590000000  0.4707910000000  0.4817920000000 1.0
C      1  0.4731590000000  0.5292090000000  0.5182080000000 1.0
C      1  0.5268410000000  0.5292090000000  0.4817920000000 1.0
C      1  0.4707910000000  0.4817920000000  0.4731590000000 1.0
C      1  0.4707910000000  0.5182080000000  0.5268410000000 1.0
C      1  0.5292090000000  0.5182080000000  0.4731590000000 1.0
C      1  0.4817920000000  0.4731590000000  0.4707910000000 1.0
C      1  0.4817920000000  0.5268410000000  0.5292090000000 1.0
C      1  0.5182080000000  0.5268410000000  0.4707910000000 1.0
C      1  0.4407690000000  0.4692290000000  0.4925820000000 1.0
C      1  0.4692300000000  0.4925820000000  0.4407690000000 1.0
C      1  0.4925820000000  0.4407680000000  0.4692300000000 1.0
C      1  0.5592320000000  0.4692300000000  0.5074180000000 1.0
C      1  0.5592310000000  0.5307710000000  0.4925820000000 1.0
C      1  0.4407680000000  0.5307700000000  0.5074180000000 1.0
C      1  0.5307710000000  0.4925820000000  0.5592310000000 1.0
C      1  0.5307710000000  0.5074180000000  0.4407690000000 1.0
C      1  0.4692290000000  0.5074180000000  0.5592310000000 1.0
C      1  0.5074180000000  0.4407690000000  0.5307710000000 1.0
C      1  0.5074180000000  0.5592310000000  0.4692290000000 1.0
C      1  0.4925820000000  0.5592310000000  0.5307700000000 1.0
C      1  0.4407680000000  0.5307700000000  0.4925820000000 1.0
C      1  0.4692290000000  0.5074180000000  0.4407690000000 1.0
C      1  0.4925820000000  0.5592310000000  0.4692290000000 1.0
C      1  0.5592310000000  0.5307710000000  0.5074180000000 1.0
C      1  0.5592320000000  0.4692300000000  0.4925820000000 1.0
C      1  0.4407690000000  0.4692290000000  0.5074180000000 1.0
C      1  0.5307700000000  0.5074180000000  0.5592310000000 1.0
C      1  0.5307710000000  0.4925820000000  0.4407690000000 1.0
C      1  0.4692290000000  0.4925820000000  0.5592310000000 1.0
C      1  0.5074180000000  0.5592320000000  0.5307700000000 1.0
C      1  0.5074180000000  0.4407690000000  0.4692300000000 1.0
C      1  0.4925820000000  0.4407690000000  0.5307710000000 1.0
C      1  0.5449100000000  0.4927010000000  0.4926000000000 1.0
C      1  0.4927010000000  0.4926000000000  0.5449100000000 1.0
C      1  0.4925990000000  0.5449100000000  0.4927010000000 1.0
C      1  0.4550900000000  0.4927010000000  0.5074000000000 1.0
C      1  0.4550900000000  0.5072990000000  0.4925990000000 1.0
C      1  0.5449100000000  0.5073000000000  0.5074000000000 1.0
C      1  0.5072990000000  0.4926000000000  0.4550900000000 1.0
C      1  0.5072990000000  0.5074010000000  0.5449100000000 1.0
C      1  0.4927010000000  0.5074000000000  0.4550900000000 1.0
C      1  0.5074000000000  0.5449100000000  0.5072990000000 1.0
C      1  0.5074010000000  0.4550900000000  0.4927010000000 1.0
C      1  0.4926000000000  0.4550900000000  0.5072990000000 1.0
C      1  0.5449100000000  0.5072990000000  0.4926000000000 1.0
C      1  0.4927010000000  0.5074000000000  0.5449100000000 1.0
C      1  0.4926000000000  0.4550900000000  0.4927010000000 1.0
C      1  0.4550900000000  0.5072990000000  0.5074000000000 1.0
C      1  0.4550900000000  0.4927010000000  0.4926000000000 1.0
C      1  0.5449100000000  0.4927010000000  0.5074000000000 1.0
C      1  0.5072990000000  0.5074000000000  0.4550900000000 1.0
C      1  0.5072990000000  0.4926000000000  0.5449100000000 1.0
C      1  0.4927010000000  0.4925990000000  0.4550900000000 1.0
C      1  0.5074010000000  0.4550900000000  0.5072990000000 1.0
C      1  0.5074000000000  0.5449100000000  0.4927010000000 1.0
C      1  0.4925990000000  0.5449100000000  0.5072990000000 1.0
C      1  0.4699880000000  0.4486070000000  0.5276860000000 1.0
C      1  0.4486070000000  0.5276860000000  0.4699880000000 1.0
C      1  0.5276860000000  0.4699880000000  0.4486070000000 1.0
C      1  0.5300130000000  0.4486070000000  0.4723140000000 1.0
C      1  0.5300120000000  0.5513930000000  0.5276860000000 1.0
C      1  0.4699870000000  0.5513930000000  0.4723140000000 1.0
C      1  0.5513930000000  0.5276860000000  0.5300120000000 1.0
C      1  0.5513930000000  0.4723140000000  0.4699880000000 1.0
C      1  0.4486070000000  0.4723140000000  0.5300120000000 1.0
C      1  0.4723140000000  0.4699880000000  0.5513930000000 1.0
C      1  0.4723140000000  0.5300120000000  0.4486070000000 1.0
C      1  0.5276860000000  0.5300130000000  0.5513930000000 1.0
C      1  0.4699870000000  0.5513930000000  0.5276860000000 1.0
C      1  0.4486070000000  0.4723140000000  0.4699880000000 1.0
C      1  0.5276860000000  0.5300120000000  0.4486070000000 1.0
C      1  0.5300120000000  0.5513930000000  0.4723140000000 1.0
C      1  0.5300130000000  0.4486070000000  0.5276860000000 1.0
C      1  0.4699880000000  0.4486070000000  0.4723140000000 1.0
C      1  0.5513930000000  0.4723140000000  0.5300120000000 1.0
C      1  0.5513930000000  0.5276860000000  0.4699880000000 1.0
C      1  0.4486070000000  0.5276860000000  0.5300120000000 1.0
C      1  0.4723140000000  0.5300120000000  0.5513930000000 1.0
C      1  0.4723140000000  0.4699870000000  0.4486070000000 1.0
C      1  0.5276860000000  0.4699880000000  0.5513930000000 1.0
C      1  0.5162500000000  0.5363100000000  0.5412970000000 1.0
C      1  0.5363090000000  0.5412970000000  0.5162500000000 1.0
C      1  0.5412970000000  0.5162500000000  0.5363090000000 1.0
C      1  0.4837500000000  0.5363090000000  0.4587030000000 1.0
C      1  0.4837500000000  0.4636910000000  0.5412970000000 1.0
C      1  0.5162500000000  0.4636910000000  0.4587030000000 1.0
C      1  0.4636900000000  0.5412970000000  0.4837500000000 1.0
C      1  0.4636910000000  0.4587030000000  0.5162500000000 1.0
C      1  0.5363100000000  0.4587030000000  0.4837500000000 1.0
C      1  0.4587030000000  0.5162500000000  0.4636910000000 1.0
C      1  0.4587030000000  0.4837500000000  0.5363090000000 1.0
C      1  0.5412970000000  0.4837500000000  0.4636910000000 1.0
C      1  0.5162500000000  0.4636910000000  0.5412970000000 1.0
C      1  0.5363090000000  0.4587030000000  0.5162500000000 1.0
C      1  0.5412970000000  0.4837500000000  0.5363090000000 1.0
C      1  0.4837500000000  0.4636900000000  0.4587030000000 1.0
C      1  0.4837500000000  0.5363090000000  0.5412970000000 1.0
C      1  0.5162500000000  0.5363090000000  0.4587030000000 1.0
C      1  0.4636910000000  0.4587030000000  0.4837500000000 1.0
C      1  0.4636900000000  0.5412970000000  0.5162500000000 1.0
C      1  0.5363090000000  0.5412970000000  0.4837500000000 1.0
C      1  0.4587030000000  0.4837500000000  0.4636910000000 1.0
C      1  0.4587030000000  0.5162500000000  0.5363090000000 1.0
C      1  0.5412970000000  0.5162500000000  0.4636910000000 1.0
END
