TITL C-114181-47-54 0.0131483300099403 1000000 -1648.98002610448 0 0 240 (C1) n - 1
REM
REM in /home/chem/mssmkc/work/GAP20/Larger-Clusters/Only-C240/New/BUILD-ONLY
REM
REM
REM
REM
REM
REM ./C.cell (daee87de7206da95283bc1c1416dbc6f)
REM
REM compiler GCC version 8.3.0
REM options -cpp -mtune=generic -march=x86-64 -g -O0
REM seed 1622755841 -532384014 -1323783882 -805041246 -606247469 -868567532 -1880160769 -1383086283 -37458308 -1734462910 -941848965 -1528587587 -174397772 -237194335 -353537943 -90751198 1931423903 562600330 -710875886 -1935609154 1789219419 -243372043 -707108797 -1300290422 1693855892 -525732111 -442347331 -1222856936 265290870 1368448864 972591382 -30749276 -620947803
REM
CELL 1.54180  100.00000  100.00000  100.00000   90.00000   90.00000   90.00000
LATT -1
SFAC C  
C      1  0.5193750000000  0.5177110000000  0.5430110000000 1.0
C      1  0.5440260000000  0.5186580000000  0.5172220000000 1.0
C      1  0.5227310000000  0.5420730000000  0.5237920000000 1.0
C      1  0.5234820000000  0.4785990000000  0.4564160000000 1.0
C      1  0.4755070000000  0.4828600000000  0.5529500000000 1.0
C      1  0.4723740000000  0.5241250000000  0.4358270000000 1.0
C      1  0.5437530000000  0.4797150000000  0.4795960000000 1.0
C      1  0.4550660000000  0.4832750000000  0.5205340000000 1.0
C      1  0.4361400000000  0.5282900000000  0.4734270000000 1.0
C      1  0.5194320000000  0.4550670000000  0.4835700000000 1.0
C      1  0.4844470000000  0.4596520000000  0.5203820000000 1.0
C      1  0.4745110000000  0.5613340000000  0.4735970000000 1.0
C      1  0.4741580000000  0.5221650000000  0.5553150000000 1.0
C      1  0.4313870000000  0.5287500000000  0.5239930000000 1.0
C      1  0.4852890000000  0.5361610000000  0.5246700000000 1.0
C      1  0.4720950000000  0.4733580000000  0.4347440000000 1.0
C      1  0.5198840000000  0.4804120000000  0.5428170000000 1.0
C      1  0.5213980000000  0.5151650000000  0.4589210000000 1.0
C      1  0.4587400000000  0.4840210000000  0.4852900000000 1.0
C      1  0.5446420000000  0.4803570000000  0.5166870000000 1.0
C      1  0.5420780000000  0.5192450000000  0.4808420000000 1.0
C      1  0.4835010000000  0.4583870000000  0.4837510000000 1.0
C      1  0.5211700000000  0.4558710000000  0.5221420000000 1.0
C      1  0.5247750000000  0.5660880000000  0.4716330000000 1.0
C      1  0.5451680000000  0.4802810000000  0.5468380000000 1.0
C      1  0.5479560000000  0.5435270000000  0.4816380000000 1.0
C      1  0.4798280000000  0.5453240000000  0.5452010000000 1.0
C      1  0.5426530000000  0.5231080000000  0.4518760000000 1.0
C      1  0.4558650000000  0.5154960000000  0.5424850000000 1.0
C      1  0.4595980000000  0.4814220000000  0.4521650000000 1.0
C      1  0.5513470000000  0.4559500000000  0.5179040000000 1.0
C      1  0.4546830000000  0.4593800000000  0.4810390000000 1.0
C      1  0.4517540000000  0.5390560000000  0.5178850000000 1.0
C      1  0.4833310000000  0.4531270000000  0.4590850000000 1.0
C      1  0.5255390000000  0.4496370000000  0.5445090000000 1.0
C      1  0.5172410000000  0.5481180000000  0.4590420000000 1.0
C      1  0.4526300000000  0.4800520000000  0.5484460000000 1.0
C      1  0.4545200000000  0.5383210000000  0.4830350000000 1.0
C      1  0.5262400000000  0.5490150000000  0.5459850000000 1.0
C      1  0.4592290000000  0.5162120000000  0.4530600000000 1.0
C      1  0.5448030000000  0.5177730000000  0.5469950000000 1.0
C      1  0.5457770000000  0.4743650000000  0.4492290000000 1.0
C      1  0.4518820000000  0.4585030000000  0.5181790000000 1.0
C      1  0.5494730000000  0.4549660000000  0.4803410000000 1.0
C      1  0.5515560000000  0.5427290000000  0.5189870000000 1.0
C      1  0.5195300000000  0.4493100000000  0.4584080000000 1.0
C      1  0.4775870000000  0.4545720000000  0.5424860000000 1.0
C      1  0.4829540000000  0.5452130000000  0.4591860000000 1.0
C      1  0.4461700000000  0.5178420000000  0.5329010000000 1.0
C      1  0.5402430000000  0.4471420000000  0.5206410000000 1.0
C      1  0.5182590000000  0.5354230000000  0.4533150000000 1.0
C      1  0.4542810000000  0.4810490000000  0.4649010000000 1.0
C      1  0.5537120000000  0.4780980000000  0.5355840000000 1.0
C      1  0.5515680000000  0.5236680000000  0.4626060000000 1.0
C      1  0.5366950000000  0.5520040000000  0.4795820000000 1.0
C      1  0.4650280000000  0.5416240000000  0.5213420000000 1.0
C      1  0.4649730000000  0.4500930000000  0.4789590000000 1.0
C      1  0.5253450000000  0.4618650000000  0.5517310000000 1.0
C      1  0.4811080000000  0.4635730000000  0.4497930000000 1.0
C      1  0.4863630000000  0.5389390000000  0.5553950000000 1.0
C      1  0.5534320000000  0.5201710000000  0.5359320000000 1.0
C      1  0.4644180000000  0.4527630000000  0.5205380000000 1.0
C      1  0.4815170000000  0.5336080000000  0.4513090000000 1.0
C      1  0.5532820000000  0.4750030000000  0.4613380000000 1.0
C      1  0.4442040000000  0.4775130000000  0.5374040000000 1.0
C      1  0.4512180000000  0.5178900000000  0.4645080000000 1.0
C      1  0.4666730000000  0.5449350000000  0.4818350000000 1.0
C      1  0.5409220000000  0.5517720000000  0.5218850000000 1.0
C      1  0.5381020000000  0.4462940000000  0.4793300000000 1.0
C      1  0.4762570000000  0.4632420000000  0.5535410000000 1.0
C      1  0.5218620000000  0.4594940000000  0.4484890000000 1.0
C      1  0.5253020000000  0.5361700000000  0.5521980000000 1.0
C      1  0.4572280000000  0.5061090000000  0.5537050000000 1.0
C      1  0.5595080000000  0.4576790000000  0.5062020000000 1.0
C      1  0.5065330000000  0.5580480000000  0.4596300000000 1.0
C      1  0.4595770000000  0.4917200000000  0.4417430000000 1.0
C      1  0.5436830000000  0.4914750000000  0.5557270000000 1.0
C      1  0.5389030000000  0.5111730000000  0.4450640000000 1.0
C      1  0.5578670000000  0.5416380000000  0.4920510000000 1.0
C      1  0.4421360000000  0.5400800000000  0.5065480000000 1.0
C      1  0.4448230000000  0.4594390000000  0.4914010000000 1.0
C      1  0.5131210000000  0.4443580000000  0.5394070000000 1.0
C      1  0.4931950000000  0.4426420000000  0.4605730000000 1.0
C      1  0.4894740000000  0.5528980000000  0.5386400000000 1.0
C      1  0.5436370000000  0.5065360000000  0.5558540000000 1.0
C      1  0.4439220000000  0.4589550000000  0.5063450000000 1.0
C      1  0.4925350000000  0.5567090000000  0.4599430000000 1.0
C      1  0.5402790000000  0.4864770000000  0.4436910000000 1.0
C      1  0.4554480000000  0.4923390000000  0.5557920000000 1.0
C      1  0.4597140000000  0.5058740000000  0.4422460000000 1.0
C      1  0.4433350000000  0.5393640000000  0.4925970000000 1.0
C      1  0.5590960000000  0.5411240000000  0.5069890000000 1.0
C      1  0.5586130000000  0.4574170000000  0.4911690000000 1.0
C      1  0.4886740000000  0.4465100000000  0.5381810000000 1.0
C      1  0.5079950000000  0.4412640000000  0.4604440000000 1.0
C      1  0.5142020000000  0.5544640000000  0.5401090000000 1.0
C      1  0.4953360000000  0.5165220000000  0.4334110000000 1.0
C      1  0.4323070000000  0.4917250000000  0.5170920000000 1.0
C      1  0.5184340000000  0.4335890000000  0.4945340000000 1.0
C      1  0.4955340000000  0.4808080000000  0.5661450000000 1.0
C      1  0.5093260000000  0.4806870000000  0.4362040000000 1.0
C      1  0.5099620000000  0.5175660000000  0.5653740000000 1.0
C      1  0.4316450000000  0.5054440000000  0.4804330000000 1.0
C      1  0.5657960000000  0.5065660000000  0.5155690000000 1.0
C      1  0.5646260000000  0.4924930000000  0.4797690000000 1.0
C      1  0.5191570000000  0.5620320000000  0.5090870000000 1.0
C      1  0.4827330000000  0.5619590000000  0.4967710000000 1.0
C      1  0.4833050000000  0.4368520000000  0.5087560000000 1.0
C      1  0.5085370000000  0.5154590000000  0.4376080000000 1.0
C      1  0.5662470000000  0.4923820000000  0.5156670000000 1.0
C      1  0.4828300000000  0.4361560000000  0.4946440000000 1.0
C      1  0.5096310000000  0.4802140000000  0.5647000000000 1.0
C      1  0.4956650000000  0.4804140000000  0.4325700000000 1.0
C      1  0.4960490000000  0.5170750000000  0.5671930000000 1.0
C      1  0.5640250000000  0.5067790000000  0.4802380000000 1.0
C      1  0.4286620000000  0.5052520000000  0.5163330000000 1.0
C      1  0.4356970000000  0.4921500000000  0.4815200000000 1.0
C      1  0.4841530000000  0.5573600000000  0.5099750000000 1.0
C      1  0.5189040000000  0.5663210000000  0.4955830000000 1.0
C      1  0.5181600000000  0.4349330000000  0.5086970000000 1.0
C      1  0.5077750000000  0.4312300000000  0.5179480000000 1.0
C      1  0.5179370000000  0.5056350000000  0.4323790000000 1.0
C      1  0.4222830000000  0.5114150000000  0.5051280000000 1.0
C      1  0.5071110000000  0.5727010000000  0.4909060000000 1.0
C      1  0.4941130000000  0.5642310000000  0.5182280000000 1.0
C      1  0.4927460000000  0.4306770000000  0.4858940000000 1.0
C      1  0.5185560000000  0.4912440000000  0.5681560000000 1.0
C      1  0.4900340000000  0.4912720000000  0.4252710000000 1.0
C      1  0.4891310000000  0.5062160000000  0.5729520000000 1.0
C      1  0.4309500000000  0.4830350000000  0.4915030000000 1.0
C      1  0.5704460000000  0.4833920000000  0.5050950000000 1.0
C      1  0.5690460000000  0.5158810000000  0.4903390000000 1.0
C      1  0.4932460000000  0.4316630000000  0.5178480000000 1.0
C      1  0.4899480000000  0.5060820000000  0.4253580000000 1.0
C      1  0.5700840000000  0.5157030000000  0.5052760000000 1.0
C      1  0.4924550000000  0.5711640000000  0.4915070000000 1.0
C      1  0.5084430000000  0.5655770000000  0.5181530000000 1.0
C      1  0.5076330000000  0.4296460000000  0.4856930000000 1.0
C      1  0.4890580000000  0.4914590000000  0.5733400000000 1.0
C      1  0.5183350000000  0.4912720000000  0.4317370000000 1.0
C      1  0.5186620000000  0.5063650000000  0.5683960000000 1.0
C      1  0.5694880000000  0.4833900000000  0.4900800000000 1.0
C      1  0.4300660000000  0.4826790000000  0.5062640000000 1.0
C      1  0.4234060000000  0.5115020000000  0.4904240000000 1.0
C      1  0.4377720000000  0.5144120000000  0.4706940000000 1.0
C      1  0.4762500000000  0.4481790000000  0.5143170000000 1.0
C      1  0.5140550000000  0.4722640000000  0.4469860000000 1.0
C      1  0.4423190000000  0.4881820000000  0.5269870000000 1.0
C      1  0.5544700000000  0.4861060000000  0.4710410000000 1.0
C      1  0.5551550000000  0.5116150000000  0.5242640000000 1.0
C      1  0.4730600000000  0.5572350000000  0.4872730000000 1.0
C      1  0.5281310000000  0.5521170000000  0.5142010000000 1.0
C      1  0.5274900000000  0.4436400000000  0.4890610000000 1.0
C      1  0.5144430000000  0.5264390000000  0.5544560000000 1.0
C      1  0.4861450000000  0.5265600000000  0.4386650000000 1.0
C      1  0.4863610000000  0.4739630000000  0.5568540000000 1.0
C      1  0.5531040000000  0.5128280000000  0.4724280000000 1.0
C      1  0.5274500000000  0.4455990000000  0.5135380000000 1.0
C      1  0.4858590000000  0.4705260000000  0.4373870000000 1.0
C      1  0.5557220000000  0.4870740000000  0.5243410000000 1.0
C      1  0.4485410000000  0.4889290000000  0.4757590000000 1.0
C      1  0.4332520000000  0.5147250000000  0.5262400000000 1.0
C      1  0.5287050000000  0.5633270000000  0.4851410000000 1.0
C      1  0.4777910000000  0.5457230000000  0.5160520000000 1.0
C      1  0.4751390000000  0.4472280000000  0.4890940000000 1.0
C      1  0.4870200000000  0.5265140000000  0.5601530000000 1.0
C      1  0.5120550000000  0.5220450000000  0.4500050000000 1.0
C      1  0.5144800000000  0.4715820000000  0.5538590000000 1.0
C      1  0.5368850000000  0.5173640000000  0.5059300000000 1.0
C      1  0.5104680000000  0.5427710000000  0.5305310000000 1.0
C      1  0.5162250000000  0.5053760000000  0.5378710000000 1.0
C      1  0.5388540000000  0.4820520000000  0.4919690000000 1.0
C      1  0.4624490000000  0.4869510000000  0.5099480000000 1.0
C      1  0.4314780000000  0.5344100000000  0.4849630000000 1.0
C      1  0.5083460000000  0.4620100000000  0.4868560000000 1.0
C      1  0.4956000000000  0.4566860000000  0.5279920000000 1.0
C      1  0.4855100000000  0.5671930000000  0.4677520000000 1.0
C      1  0.5302520000000  0.4906200000000  0.4546620000000 1.0
C      1  0.4663920000000  0.4860860000000  0.5635910000000 1.0
C      1  0.4665930000000  0.5124830000000  0.4309530000000 1.0
C      1  0.4290610000000  0.5349050000000  0.5119170000000 1.0
C      1  0.4970330000000  0.5409320000000  0.5301080000000 1.0
C      1  0.4677100000000  0.5118970000000  0.5620650000000 1.0
C      1  0.4641580000000  0.4865060000000  0.4972590000000 1.0
C      1  0.5386990000000  0.4821040000000  0.5047370000000 1.0
C      1  0.5363660000000  0.5182170000000  0.4930890000000 1.0
C      1  0.4956140000000  0.4636990000000  0.4863120000000 1.0
C      1  0.5091230000000  0.4552540000000  0.5290620000000 1.0
C      1  0.5124350000000  0.5698770000000  0.4665110000000 1.0
C      1  0.4662450000000  0.4851360000000  0.4301610000000 1.0
C      1  0.5165150000000  0.4926180000000  0.5376690000000 1.0
C      1  0.5297200000000  0.5042700000000  0.4559830000000 1.0
C      1  0.5686580000000  0.4690760000000  0.5053930000000 1.0
C      1  0.5057710000000  0.5764190000000  0.4767680000000 1.0
C      1  0.4744130000000  0.5058990000000  0.5728040000000 1.0
C      1  0.5669580000000  0.5302380000000  0.4908140000000 1.0
C      1  0.4208700000000  0.5260900000000  0.5047700000000 1.0
C      1  0.4340950000000  0.4690320000000  0.4911330000000 1.0
C      1  0.5077820000000  0.4329620000000  0.5330050000000 1.0
C      1  0.4924880000000  0.4333100000000  0.4716620000000 1.0
C      1  0.4938790000000  0.5645890000000  0.5332160000000 1.0
C      1  0.4756450000000  0.4917190000000  0.4224240000000 1.0
C      1  0.5328930000000  0.4913240000000  0.5656020000000 1.0
C      1  0.5330080000000  0.5064890000000  0.4331220000000 1.0
C      1  0.4332500000000  0.4686980000000  0.5060650000000 1.0
C      1  0.4917990000000  0.5750150000000  0.4773940000000 1.0
C      1  0.5328660000000  0.5063820000000  0.5657530000000 1.0
C      1  0.4220540000000  0.5260710000000  0.4908000000000 1.0
C      1  0.5682440000000  0.5298730000000  0.5058040000000 1.0
C      1  0.5677390000000  0.4689530000000  0.4904060000000 1.0
C      1  0.4929210000000  0.4340240000000  0.5328400000000 1.0
C      1  0.5074490000000  0.4318760000000  0.4714520000000 1.0
C      1  0.5088720000000  0.5656130000000  0.5333280000000 1.0
C      1  0.5335920000000  0.4914600000000  0.4322770000000 1.0
C      1  0.4741390000000  0.4915030000000  0.5739780000000 1.0
C      1  0.4755970000000  0.5058150000000  0.4227070000000 1.0
C      1  0.4722290000000  0.5357230000000  0.5347300000000 1.0
C      1  0.5323910000000  0.4733820000000  0.5460010000000 1.0
C      1  0.5464000000000  0.5313610000000  0.4739300000000 1.0
C      1  0.4761540000000  0.4557960000000  0.4713730000000 1.0
C      1  0.5317830000000  0.4516030000000  0.5317590000000 1.0
C      1  0.5289720000000  0.5534720000000  0.4667810000000 1.0
C      1  0.5295810000000  0.5270680000000  0.4566850000000 1.0
C      1  0.4672600000000  0.5249680000000  0.5430270000000 1.0
C      1  0.4678210000000  0.4700940000000  0.4479050000000 1.0
C      1  0.5494980000000  0.4690440000000  0.5246610000000 1.0
C      1  0.4584960000000  0.4726950000000  0.4762270000000 1.0
C      1  0.4446990000000  0.5317760000000  0.5279980000000 1.0
C      1  0.5328640000000  0.5472940000000  0.5333730000000 1.0
C      1  0.4646310000000  0.4731030000000  0.5537240000000 1.0
C      1  0.4498630000000  0.5310790000000  0.4712920000000 1.0
C      1  0.5265990000000  0.4510070000000  0.4711980000000 1.0
C      1  0.4730630000000  0.4604290000000  0.5298780000000 1.0
C      1  0.4721890000000  0.5484090000000  0.4682480000000 1.0
C      1  0.4680310000000  0.5271820000000  0.4489640000000 1.0
C      1  0.5319380000000  0.5246850000000  0.5460110000000 1.0
C      1  0.5330350000000  0.4682110000000  0.4514780000000 1.0
C      1  0.4507040000000  0.4704810000000  0.5263990000000 1.0
C      1  0.5480180000000  0.4673780000000  0.4726880000000 1.0
C      1  0.5490910000000  0.5296710000000  0.5254730000000 1.0
END
