TITL C-114181-47-36 -0.00220290876937765 1000000 -1641.72426033849 0 0 240 (C1) n - 1
REM
REM in /home/chem/mssmkc/work/GAP20/Larger-Clusters/Only-C240/New/BUILD-ONLY
REM
REM
REM
REM
REM
REM ./C.cell (daee87de7206da95283bc1c1416dbc6f)
REM
REM compiler GCC version 8.3.0
REM options -cpp -mtune=generic -march=x86-64 -g -O0
REM seed 1562277665 -1717684342 -1955948922 347170977 872356688 1907536721 1644452031 -405782019 710462224 -1731637932 978435175 1674155022 -364757245 -527196692 2058324522 -489844665 -1840380828 984693243 -687076143 -1079759862 993243041 1732797005 400427968 1406232017 217969051 402377709 1331038124 -359577160 -782298940 512982243 2118735956 2124641555 -1949727961
REM
CELL 1.54180  100.00000  100.00000  100.00000   90.00000   90.00000   90.00000
LATT -1
SFAC C  
C      1  0.4486880000000  0.4928450000000  0.5040850000000 1.0
C      1  0.4900110000000  0.5000550000000  0.4545400000000 1.0
C      1  0.5020980000000  0.4474970000000  0.4907070000000 1.0
C      1  0.5494620000000  0.4893330000000  0.4985830000000 1.0
C      1  0.5443600000000  0.5089170000000  0.5013010000000 1.0
C      1  0.4460240000000  0.5141180000000  0.5037330000000 1.0
C      1  0.5075710000000  0.5027890000000  0.5516490000000 1.0
C      1  0.5102290000000  0.4964540000000  0.4540460000000 1.0
C      1  0.4873570000000  0.5012960000000  0.5521610000000 1.0
C      1  0.5023830000000  0.4485920000000  0.5116630000000 1.0
C      1  0.5011890000000  0.5534410000000  0.4880830000000 1.0
C      1  0.5028450000000  0.5544980000000  0.5083160000000 1.0
C      1  0.4989330000000  0.4879180000000  0.4568650000000 1.0
C      1  0.4492500000000  0.5036580000000  0.4936470000000 1.0
C      1  0.4917570000000  0.4476130000000  0.5020720000000 1.0
C      1  0.4974620000000  0.4915950000000  0.5502810000000 1.0
C      1  0.4971040000000  0.5130620000000  0.5542540000000 1.0
C      1  0.5018230000000  0.5091950000000  0.4522220000000 1.0
C      1  0.5456600000000  0.4985890000000  0.5104390000000 1.0
C      1  0.4455010000000  0.5027220000000  0.5147580000000 1.0
C      1  0.5505490000000  0.5014360000000  0.4894860000000 1.0
C      1  0.5127230000000  0.4473950000000  0.5003970000000 1.0
C      1  0.4915110000000  0.5527100000000  0.4983450000000 1.0
C      1  0.5130780000000  0.5563790000000  0.4976470000000 1.0
C      1  0.4505680000000  0.5398530000000  0.4723410000000 1.0
C      1  0.5402680000000  0.4695460000000  0.4506950000000 1.0
C      1  0.4706270000000  0.4502700000000  0.5376490000000 1.0
C      1  0.5480040000000  0.5396250000000  0.5294090000000 1.0
C      1  0.5516770000000  0.4578540000000  0.4687020000000 1.0
C      1  0.4496870000000  0.4605700000000  0.5299580000000 1.0
C      1  0.4614640000000  0.4701600000000  0.5489840000000 1.0
C      1  0.4600320000000  0.5295180000000  0.4523070000000 1.0
C      1  0.5376810000000  0.5289730000000  0.5489190000000 1.0
C      1  0.5304950000000  0.4489510000000  0.4601300000000 1.0
C      1  0.5280690000000  0.5496840000000  0.5397260000000 1.0
C      1  0.4711150000000  0.5487600000000  0.4620360000000 1.0
C      1  0.4707710000000  0.5386270000000  0.4522670000000 1.0
C      1  0.4507730000000  0.4705470000000  0.5397580000000 1.0
C      1  0.5415500000000  0.4479190000000  0.4689360000000 1.0
C      1  0.5278610000000  0.5391730000000  0.5492160000000 1.0
C      1  0.4714350000000  0.4601460000000  0.5477920000000 1.0
C      1  0.5299550000000  0.4598390000000  0.4511150000000 1.0
C      1  0.5509240000000  0.4689440000000  0.4599660000000 1.0
C      1  0.4499610000000  0.5301160000000  0.4621520000000 1.0
C      1  0.5475780000000  0.5291010000000  0.5387980000000 1.0
C      1  0.4595620000000  0.4503530000000  0.5287740000000 1.0
C      1  0.5381650000000  0.5498650000000  0.5298090000000 1.0
C      1  0.4611130000000  0.5492660000000  0.4721300000000 1.0
C      1  0.5355310000000  0.5037970000000  0.4412890000000 1.0
C      1  0.5051950000000  0.4439540000000  0.5252040000000 1.0
C      1  0.4495880000000  0.5278680000000  0.5082550000000 1.0
C      1  0.4654310000000  0.5061800000000  0.5594510000000 1.0
C      1  0.4678190000000  0.4950260000000  0.4440500000000 1.0
C      1  0.5296280000000  0.4919170000000  0.5539450000000 1.0
C      1  0.4939860000000  0.4418580000000  0.4690810000000 1.0
C      1  0.4913330000000  0.5576380000000  0.5302570000000 1.0
C      1  0.5070530000000  0.5578690000000  0.4657380000000 1.0
C      1  0.5606310000000  0.5349720000000  0.4955700000000 1.0
C      1  0.5610060000000  0.4673680000000  0.5032890000000 1.0
C      1  0.4404150000000  0.4713610000000  0.4945650000000 1.0
C      1  0.4486120000000  0.5066030000000  0.5289050000000 1.0
C      1  0.5366870000000  0.4398450000000  0.5054150000000 1.0
C      1  0.5053650000000  0.5243870000000  0.4509070000000 1.0
C      1  0.5524180000000  0.5035900000000  0.4743000000000 1.0
C      1  0.4416570000000  0.4947560000000  0.4714800000000 1.0
C      1  0.5511640000000  0.4970010000000  0.5241400000000 1.0
C      1  0.4586200000000  0.4440690000000  0.4920810000000 1.0
C      1  0.5290810000000  0.5532240000000  0.4942160000000 1.0
C      1  0.4688600000000  0.5563740000000  0.5083520000000 1.0
C      1  0.4925690000000  0.5288500000000  0.5511960000000 1.0
C      1  0.5081540000000  0.4687020000000  0.5522470000000 1.0
C      1  0.4968120000000  0.4741730000000  0.4514000000000 1.0
C      1  0.4941140000000  0.4270990000000  0.4929200000000 1.0
C      1  0.4266170000000  0.4940890000000  0.5038440000000 1.0
C      1  0.4922230000000  0.5013990000000  0.4326160000000 1.0
C      1  0.5139890000000  0.4272330000000  0.5096870000000 1.0
C      1  0.5050290000000  0.5757580000000  0.4869310000000 1.0
C      1  0.4898440000000  0.5729050000000  0.5078600000000 1.0
C      1  0.5705820000000  0.4920490000000  0.4973520000000 1.0
C      1  0.5701080000000  0.5121930000000  0.5037470000000 1.0
C      1  0.4309350000000  0.5170430000000  0.4998480000000 1.0
C      1  0.5081420000000  0.4890080000000  0.5696830000000 1.0
C      1  0.5123600000000  0.4946360000000  0.4370710000000 1.0
C      1  0.4883170000000  0.5049050000000  0.5745550000000 1.0
C      1  0.4828610000000  0.4360670000000  0.4978560000000 1.0
C      1  0.4983430000000  0.4883120000000  0.4319310000000 1.0
C      1  0.4271930000000  0.5042960000000  0.4939260000000 1.0
C      1  0.5030220000000  0.4242430000000  0.5025690000000 1.0
C      1  0.4969080000000  0.5765390000000  0.4973630000000 1.0
C      1  0.5169710000000  0.5697240000000  0.4916720000000 1.0
C      1  0.4983480000000  0.4962860000000  0.5746110000000 1.0
C      1  0.4925660000000  0.5169900000000  0.5682070000000 1.0
C      1  0.5047010000000  0.5082210000000  0.4369610000000 1.0
C      1  0.5715210000000  0.4986820000000  0.5104350000000 1.0
C      1  0.4301560000000  0.4994880000000  0.5169110000000 1.0
C      1  0.5664980000000  0.5051450000000  0.4906110000000 1.0
C      1  0.5641990000000  0.4662020000000  0.5172020000000 1.0
C      1  0.4611700000000  0.5200210000000  0.5603190000000 1.0
C      1  0.5210120000000  0.5577900000000  0.4619600000000 1.0
C      1  0.4431770000000  0.4700510000000  0.4802120000000 1.0
C      1  0.4398340000000  0.5295700000000  0.5193170000000 1.0
C      1  0.5600540000000  0.5361540000000  0.4810120000000 1.0
C      1  0.5368140000000  0.5180660000000  0.4422780000000 1.0
C      1  0.5324480000000  0.4781030000000  0.5507940000000 1.0
C      1  0.4660560000000  0.4811910000000  0.4410510000000 1.0
C      1  0.4770250000000  0.5557670000000  0.5325540000000 1.0
C      1  0.4801050000000  0.4437510000000  0.4656030000000 1.0
C      1  0.5287000000000  0.4363770000000  0.5284810000000 1.0
C      1  0.5225430000000  0.4673090000000  0.5509790000000 1.0
C      1  0.5624970000000  0.5249650000000  0.4721960000000 1.0
C      1  0.4663790000000  0.5555110000000  0.5224680000000 1.0
C      1  0.4775710000000  0.4725160000000  0.4384880000000 1.0
C      1  0.5255200000000  0.5263200000000  0.4386280000000 1.0
C      1  0.4707650000000  0.5307840000000  0.5620060000000 1.0
C      1  0.4390030000000  0.5177520000000  0.5307110000000 1.0
C      1  0.5640670000000  0.4779290000000  0.5260270000000 1.0
C      1  0.4425570000000  0.4804530000000  0.4699510000000 1.0
C      1  0.5315110000000  0.5612830000000  0.4712890000000 1.0
C      1  0.4705230000000  0.4419230000000  0.4755410000000 1.0
C      1  0.5398460000000  0.4383200000000  0.5193090000000 1.0
C      1  0.5610280000000  0.4809110000000  0.4972110000000 1.0
C      1  0.4785340000000  0.5020570000000  0.5634420000000 1.0
C      1  0.5023930000000  0.5637010000000  0.4781500000000 1.0
C      1  0.4372480000000  0.4839340000000  0.5009940000000 1.0
C      1  0.4272220000000  0.5228340000000  0.5128800000000 1.0
C      1  0.5683710000000  0.5254080000000  0.5028910000000 1.0
C      1  0.5256580000000  0.4975370000000  0.4333560000000 1.0
C      1  0.5172760000000  0.4962590000000  0.5602550000000 1.0
C      1  0.4813230000000  0.5011790000000  0.4428170000000 1.0
C      1  0.4965090000000  0.5634760000000  0.5177600000000 1.0
C      1  0.4981780000000  0.4368890000000  0.4820160000000 1.0
C      1  0.5155650000000  0.4337840000000  0.5236790000000 1.0
C      1  0.5028100000000  0.4808640000000  0.5581080000000 1.0
C      1  0.5641370000000  0.5116950000000  0.4772580000000 1.0
C      1  0.4812810000000  0.5615040000000  0.5033290000000 1.0
C      1  0.4911770000000  0.4771810000000  0.4379560000000 1.0
C      1  0.5121450000000  0.5212580000000  0.4383380000000 1.0
C      1  0.4846550000000  0.5280070000000  0.5632970000000 1.0
C      1  0.4265880000000  0.5123690000000  0.5228320000000 1.0
C      1  0.5646790000000  0.4916690000000  0.5216320000000 1.0
C      1  0.4381980000000  0.5012690000000  0.4841450000000 1.0
C      1  0.5284280000000  0.5642270000000  0.4849010000000 1.0
C      1  0.4716880000000  0.4381530000000  0.4896070000000 1.0
C      1  0.5225920000000  0.4370140000000  0.5017890000000 1.0
C      1  0.4725250000000  0.5152200000000  0.4654040000000 1.0
C      1  0.5192360000000  0.4614470000000  0.4754630000000 1.0
C      1  0.4622450000000  0.4737770000000  0.5154870000000 1.0
C      1  0.5241760000000  0.5168530000000  0.5348750000000 1.0
C      1  0.5284380000000  0.4820750000000  0.4659900000000 1.0
C      1  0.4738560000000  0.4836150000000  0.5349720000000 1.0
C      1  0.4825670000000  0.4636740000000  0.5236930000000 1.0
C      1  0.4838320000000  0.5350520000000  0.4754200000000 1.0
C      1  0.5148260000000  0.5371820000000  0.5257430000000 1.0
C      1  0.5399560000000  0.4698280000000  0.4841590000000 1.0
C      1  0.5346650000000  0.5273280000000  0.5149270000000 1.0
C      1  0.4637010000000  0.5257580000000  0.4851640000000 1.0
C      1  0.4625500000000  0.5158830000000  0.4753350000000 1.0
C      1  0.4718240000000  0.4634240000000  0.5145060000000 1.0
C      1  0.5187880000000  0.4723250000000  0.4665180000000 1.0
C      1  0.5338520000000  0.5174010000000  0.5246890000000 1.0
C      1  0.4634220000000  0.4834930000000  0.5254710000000 1.0
C      1  0.5389670000000  0.4802810000000  0.4750690000000 1.0
C      1  0.5298980000000  0.4599030000000  0.4844710000000 1.0
C      1  0.4740810000000  0.5355530000000  0.4853560000000 1.0
C      1  0.5250930000000  0.5375710000000  0.5160940000000 1.0
C      1  0.4836260000000  0.4736490000000  0.5339130000000 1.0
C      1  0.5145580000000  0.5268460000000  0.5352990000000 1.0
C      1  0.4828150000000  0.5247120000000  0.4658390000000 1.0
C      1  0.4969240000000  0.5363960000000  0.4522640000000 1.0
C      1  0.5446970000000  0.4460970000000  0.4952920000000 1.0
C      1  0.4505570000000  0.4968270000000  0.5391910000000 1.0
C      1  0.5014140000000  0.5395400000000  0.5484580000000 1.0
C      1  0.5039580000000  0.4613410000000  0.4534480000000 1.0
C      1  0.4979000000000  0.4599400000000  0.5465690000000 1.0
C      1  0.4546070000000  0.4504970000000  0.5034900000000 1.0
C      1  0.4609060000000  0.5498680000000  0.4983420000000 1.0
C      1  0.5391950000000  0.5508400000000  0.5036640000000 1.0
C      1  0.5509010000000  0.4950820000000  0.4626160000000 1.0
C      1  0.5471370000000  0.5032100000000  0.5368870000000 1.0
C      1  0.4479020000000  0.5038780000000  0.4617380000000 1.0
C      1  0.4512510000000  0.5385700000000  0.4988180000000 1.0
C      1  0.4969170000000  0.4494030000000  0.5357260000000 1.0
C      1  0.5417980000000  0.4947810000000  0.4506650000000 1.0
C      1  0.5509300000000  0.5415390000000  0.5041620000000 1.0
C      1  0.4454010000000  0.4617020000000  0.5042400000000 1.0
C      1  0.5553520000000  0.4567870000000  0.4947480000000 1.0
C      1  0.5043350000000  0.4489360000000  0.4621680000000 1.0
C      1  0.4969990000000  0.5488140000000  0.4606060000000 1.0
C      1  0.5015540000000  0.5512090000000  0.5386870000000 1.0
C      1  0.4598000000000  0.4960930000000  0.5506930000000 1.0
C      1  0.5373410000000  0.5026650000000  0.5480830000000 1.0
C      1  0.4584250000000  0.5035970000000  0.4509860000000 1.0
C      1  0.4641080000000  0.4500430000000  0.5146070000000 1.0
C      1  0.4487070000000  0.5166970000000  0.4681210000000 1.0
C      1  0.5169430000000  0.4667630000000  0.4521220000000 1.0
C      1  0.5369690000000  0.4465160000000  0.4830260000000 1.0
C      1  0.5322330000000  0.5511360000000  0.5162970000000 1.0
C      1  0.4673480000000  0.5495090000000  0.4855590000000 1.0
C      1  0.5478350000000  0.5162440000000  0.5316260000000 1.0
C      1  0.5522090000000  0.4817860000000  0.4678690000000 1.0
C      1  0.4498850000000  0.4839680000000  0.5329510000000 1.0
C      1  0.4850490000000  0.4662710000000  0.5472870000000 1.0
C      1  0.4837060000000  0.5309350000000  0.4517550000000 1.0
C      1  0.5143080000000  0.5332390000000  0.5494160000000 1.0
C      1  0.5174570000000  0.4483620000000  0.4677040000000 1.0
C      1  0.4654410000000  0.5159180000000  0.4516410000000 1.0
C      1  0.4477930000000  0.4673790000000  0.5169350000000 1.0
C      1  0.4835590000000  0.4497910000000  0.5301430000000 1.0
C      1  0.5146270000000  0.5508030000000  0.5331610000000 1.0
C      1  0.4847370000000  0.5486500000000  0.4679690000000 1.0
C      1  0.5312170000000  0.5155660000000  0.5486350000000 1.0
C      1  0.4674560000000  0.4838570000000  0.5491930000000 1.0
C      1  0.5343470000000  0.4829010000000  0.4515360000000 1.0
C      1  0.5537550000000  0.4629770000000  0.4821700000000 1.0
C      1  0.4500610000000  0.5330100000000  0.4856550000000 1.0
C      1  0.5489830000000  0.5339480000000  0.5158220000000 1.0
C      1  0.5449620000000  0.4756610000000  0.5441100000000 1.0
C      1  0.4728630000000  0.5499680000000  0.5449060000000 1.0
C      1  0.5524840000000  0.5467840000000  0.4754510000000 1.0
C      1  0.4548460000000  0.4754820000000  0.4477650000000 1.0
C      1  0.4490340000000  0.5226620000000  0.5536540000000 1.0
C      1  0.5471740000000  0.5230730000000  0.4508190000000 1.0
C      1  0.5244300000000  0.5490090000000  0.4513150000000 1.0
C      1  0.5292580000000  0.4448690000000  0.5395780000000 1.0
C      1  0.4765760000000  0.4516650000000  0.4542310000000 1.0
C      1  0.4438420000000  0.5425820000000  0.5244520000000 1.0
C      1  0.4500870000000  0.4591460000000  0.4747990000000 1.0
C      1  0.5596790000000  0.4540290000000  0.5229050000000 1.0
C      1  0.5548260000000  0.4759310000000  0.5368400000000 1.0
C      1  0.5436290000000  0.5539680000000  0.4711460000000 1.0
C      1  0.4696220000000  0.5423170000000  0.5538500000000 1.0
C      1  0.4475770000000  0.4756690000000  0.4575940000000 1.0
C      1  0.5551580000000  0.5249990000000  0.4598480000000 1.0
C      1  0.4409110000000  0.5222260000000  0.5444500000000 1.0
C      1  0.4535230000000  0.5501480000000  0.5255380000000 1.0
C      1  0.5515220000000  0.4450070000000  0.5236160000000 1.0
C      1  0.4574810000000  0.4487150000000  0.4782150000000 1.0
C      1  0.5258930000000  0.5393700000000  0.4440870000000 1.0
C      1  0.4762640000000  0.4603950000000  0.4457330000000 1.0
C      1  0.5269980000000  0.4548530000000  0.5461340000000 1.0
END
