TITL C-114181-47-97 -16.6760300147781 1000000 -1700.61405493312 0 0 240 (C1) n - 1
REM
REM in /home/chem/mssmkc/work/GAP20/Larger-Clusters/Only-C240/New/BUILD-ONLY
REM
REM
REM
REM
REM
REM ./C.cell (daee87de7206da95283bc1c1416dbc6f)
REM
REM compiler GCC version 8.3.0
REM options -cpp -mtune=generic -march=x86-64 -g -O0
REM seed 452987086 -1739843705 1417084532 439847816 1007226376 1241869300 1957430733 -1507762995 1552519630 -193874981 157600682 -1764100413 -2109059536 -1622424413 -1626012934 -1887975313 -1195385093 -547843907 -732794667 286601625 -1422736649 -1723110276 1475448198 -1410891046 -819882839 600744945 805587561 1818226259 775183796 -2014356831 160544576 1295066327 59028841
REM
CELL 1.54180  100.00000  100.00000  100.00000   90.00000   90.00000   90.00000
LATT -1
SFAC C  
C      1  0.4892260000000  0.4776100000000  0.4688560000000 1.0
C      1  0.4821680000000  0.4579930000000  0.5000970000000 1.0
C      1  0.4587430000000  0.4937200000000  0.4784570000000 1.0
C      1  0.4915280000000  0.5221850000000  0.5330420000000 1.0
C      1  0.5075720000000  0.4768160000000  0.5313310000000 1.0
C      1  0.5019420000000  0.5167860000000  0.4590570000000 1.0
C      1  0.4812880000000  0.5418230000000  0.5037680000000 1.0
C      1  0.5212040000000  0.4588280000000  0.5020800000000 1.0
C      1  0.5207110000000  0.5393130000000  0.4979130000000 1.0
C      1  0.4726260000000  0.5110560000000  0.5213580000000 1.0
C      1  0.5272850000000  0.4882240000000  0.5219960000000 1.0
C      1  0.5328070000000  0.5104590000000  0.4803540000000 1.0
C      1  0.5012710000000  0.4809020000000  0.4621040000000 1.0
C      1  0.5219300000000  0.4677330000000  0.4907770000000 1.0
C      1  0.5412640000000  0.4992960000000  0.4832550000000 1.0
C      1  0.5036280000000  0.5204960000000  0.5404770000000 1.0
C      1  0.4955670000000  0.4784370000000  0.5389540000000 1.0
C      1  0.4887070000000  0.5145090000000  0.4632680000000 1.0
C      1  0.5232700000000  0.5315300000000  0.5101330000000 1.0
C      1  0.4857250000000  0.4638280000000  0.5126680000000 1.0
C      1  0.4795800000000  0.5332760000000  0.4926360000000 1.0
C      1  0.5302300000000  0.5021080000000  0.5213470000000 1.0
C      1  0.4699350000000  0.4968220000000  0.5208420000000 1.0
C      1  0.4600600000000  0.5074020000000  0.4783110000000 1.0
C      1  0.4557530000000  0.4527940000000  0.4822670000000 1.0
C      1  0.4483590000000  0.4804980000000  0.4552470000000 1.0
C      1  0.4747830000000  0.4571070000000  0.4524930000000 1.0
C      1  0.4557130000000  0.5480450000000  0.5185760000000 1.0
C      1  0.5448100000000  0.4530620000000  0.5163170000000 1.0
C      1  0.5460140000000  0.5492720000000  0.4829170000000 1.0
C      1  0.4527310000000  0.5201590000000  0.5412040000000 1.0
C      1  0.5465240000000  0.4801110000000  0.5403670000000 1.0
C      1  0.5493560000000  0.5215490000000  0.4597810000000 1.0
C      1  0.4796390000000  0.5410910000000  0.5506330000000 1.0
C      1  0.5202780000000  0.4581770000000  0.5492580000000 1.0
C      1  0.5198220000000  0.5404660000000  0.4538050000000 1.0
C      1  0.5407920000000  0.4510860000000  0.4767580000000 1.0
C      1  0.5461710000000  0.4816410000000  0.4586490000000 1.0
C      1  0.5150410000000  0.4570490000000  0.4527040000000 1.0
C      1  0.5415420000000  0.5496090000000  0.5230580000000 1.0
C      1  0.4600670000000  0.4526020000000  0.5214870000000 1.0
C      1  0.4603320000000  0.5498440000000  0.4803320000000 1.0
C      1  0.5465440000000  0.5195480000000  0.5417490000000 1.0
C      1  0.4533390000000  0.4809880000000  0.5415620000000 1.0
C      1  0.4510520000000  0.5201530000000  0.4551470000000 1.0
C      1  0.5179570000000  0.5452700000000  0.5495050000000 1.0
C      1  0.4818260000000  0.4546520000000  0.5495740000000 1.0
C      1  0.4801330000000  0.5403340000000  0.4521480000000 1.0
C      1  0.4490120000000  0.5291790000000  0.4673510000000 1.0
C      1  0.5240890000000  0.4688370000000  0.4497440000000 1.0
C      1  0.4716830000000  0.4447710000000  0.5275420000000 1.0
C      1  0.4486850000000  0.4747880000000  0.5288720000000 1.0
C      1  0.5539490000000  0.5272350000000  0.5314130000000 1.0
C      1  0.5527920000000  0.4737370000000  0.4697150000000 1.0
C      1  0.5263370000000  0.5329870000000  0.5516440000000 1.0
C      1  0.4734240000000  0.4670040000000  0.5515380000000 1.0
C      1  0.4734000000000  0.5291950000000  0.4440840000000 1.0
C      1  0.4733230000000  0.5532990000000  0.4739430000000 1.0
C      1  0.5277110000000  0.4452350000000  0.4723190000000 1.0
C      1  0.5284300000000  0.5555900000000  0.5277580000000 1.0
C      1  0.5565340000000  0.5280990000000  0.4714400000000 1.0
C      1  0.4694440000000  0.4687040000000  0.4447350000000 1.0
C      1  0.5304810000000  0.4528430000000  0.5238470000000 1.0
C      1  0.5533550000000  0.4748440000000  0.5280990000000 1.0
C      1  0.4464380000000  0.5259950000000  0.5288370000000 1.0
C      1  0.4458790000000  0.4724420000000  0.4675090000000 1.0
C      1  0.4740100000000  0.5282120000000  0.5553530000000 1.0
C      1  0.5257540000000  0.4711730000000  0.5539350000000 1.0
C      1  0.5266210000000  0.5284400000000  0.4482060000000 1.0
C      1  0.5345080000000  0.5512590000000  0.4734600000000 1.0
C      1  0.4672500000000  0.4464250000000  0.4756780000000 1.0
C      1  0.4696800000000  0.5477360000000  0.5265250000000 1.0
C      1  0.4854090000000  0.5580600000000  0.4796670000000 1.0
C      1  0.5592160000000  0.4772130000000  0.4807830000000 1.0
C      1  0.4795200000000  0.4789740000000  0.5571240000000 1.0
C      1  0.4822950000000  0.4387310000000  0.5197210000000 1.0
C      1  0.5176690000000  0.5595060000000  0.5186050000000 1.0
C      1  0.5169140000000  0.4403160000000  0.4804910000000 1.0
C      1  0.5628780000000  0.5220620000000  0.5211250000000 1.0
C      1  0.4427480000000  0.4804320000000  0.5173210000000 1.0
C      1  0.4424470000000  0.5234250000000  0.4785690000000 1.0
C      1  0.4819470000000  0.5189790000000  0.4368240000000 1.0
C      1  0.5174110000000  0.4801370000000  0.4439870000000 1.0
C      1  0.5205860000000  0.5207910000000  0.5574300000000 1.0
C      1  0.5224290000000  0.5564280000000  0.4795130000000 1.0
C      1  0.4408400000000  0.4790770000000  0.4798630000000 1.0
C      1  0.5185050000000  0.4823770000000  0.5595850000000 1.0
C      1  0.5207200000000  0.4418790000000  0.5185590000000 1.0
C      1  0.4798340000000  0.5577300000000  0.5254040000000 1.0
C      1  0.4789800000000  0.4409040000000  0.4819290000000 1.0
C      1  0.4418610000000  0.5178710000000  0.5176510000000 1.0
C      1  0.5581750000000  0.4840170000000  0.5178740000000 1.0
C      1  0.5619640000000  0.5211140000000  0.4826970000000 1.0
C      1  0.5200500000000  0.5173920000000  0.4421720000000 1.0
C      1  0.4786560000000  0.4789220000000  0.4393470000000 1.0
C      1  0.4812930000000  0.5171220000000  0.5610920000000 1.0
C      1  0.5176500000000  0.4863220000000  0.5320170000000 1.0
C      1  0.4784370000000  0.5352870000000  0.5168400000000 1.0
C      1  0.5337650000000  0.5232660000000  0.4857430000000 1.0
C      1  0.5117620000000  0.5169000000000  0.4696190000000 1.0
C      1  0.4769370000000  0.4838610000000  0.4674460000000 1.0
C      1  0.4809730000000  0.5133170000000  0.5328140000000 1.0
C      1  0.4807270000000  0.4673870000000  0.4894690000000 1.0
C      1  0.5215260000000  0.5305050000000  0.4865880000000 1.0
C      1  0.5222790000000  0.4650180000000  0.5154490000000 1.0
C      1  0.5302480000000  0.4774550000000  0.5142890000000 1.0
C      1  0.4699870000000  0.5229530000000  0.5146480000000 1.0
C      1  0.4684880000000  0.4837650000000  0.4784410000000 1.0
C      1  0.4847800000000  0.4813630000000  0.5304700000000 1.0
C      1  0.5151130000000  0.5307040000000  0.5215780000000 1.0
C      1  0.4698530000000  0.5164710000000  0.4807610000000 1.0
C      1  0.4824030000000  0.5192510000000  0.4747560000000 1.0
C      1  0.5124790000000  0.4810530000000  0.4716550000000 1.0
C      1  0.5147870000000  0.5200250000000  0.5311360000000 1.0
C      1  0.5131550000000  0.4691030000000  0.4798520000000 1.0
C      1  0.4877310000000  0.5304560000000  0.4815170000000 1.0
C      1  0.4811480000000  0.4761640000000  0.5178130000000 1.0
C      1  0.4709030000000  0.4847580000000  0.5126140000000 1.0
C      1  0.5356690000000  0.5095860000000  0.5117350000000 1.0
C      1  0.5324690000000  0.4882110000000  0.4825190000000 1.0
C      1  0.5366140000000  0.4700620000000  0.4568980000000 1.0
C      1  0.4757200000000  0.4477230000000  0.5398080000000 1.0
C      1  0.4578700000000  0.5404280000000  0.4690050000000 1.0
C      1  0.5377790000000  0.5315570000000  0.5434580000000 1.0
C      1  0.4618560000000  0.4688440000000  0.5436200000000 1.0
C      1  0.4615980000000  0.5242080000000  0.4477590000000 1.0
C      1  0.4708160000000  0.5446840000000  0.4626960000000 1.0
C      1  0.5220670000000  0.4490250000000  0.4608700000000 1.0
C      1  0.5239280000000  0.5527560000000  0.5399690000000 1.0
C      1  0.4566270000000  0.4630380000000  0.5309900000000 1.0
C      1  0.5448630000000  0.5385250000000  0.5323580000000 1.0
C      1  0.5435680000000  0.4623920000000  0.4676680000000 1.0
C      1  0.4574300000000  0.4742420000000  0.4473960000000 1.0
C      1  0.5307660000000  0.4579510000000  0.5384510000000 1.0
C      1  0.5535630000000  0.5403040000000  0.4761890000000 1.0
C      1  0.4628980000000  0.5293500000000  0.5458800000000 1.0
C      1  0.5365860000000  0.4702800000000  0.5442350000000 1.0
C      1  0.5385520000000  0.5307380000000  0.4560820000000 1.0
C      1  0.5324140000000  0.5430900000000  0.4617680000000 1.0
C      1  0.4653580000000  0.4539950000000  0.4634470000000 1.0
C      1  0.4689430000000  0.5416510000000  0.5404430000000 1.0
C      1  0.5514830000000  0.4621830000000  0.5235750000000 1.0
C      1  0.4485340000000  0.5387710000000  0.5250230000000 1.0
C      1  0.4533120000000  0.4605280000000  0.4696210000000 1.0
C      1  0.4561770000000  0.4528870000000  0.5082510000000 1.0
C      1  0.4453500000000  0.5069650000000  0.4533650000000 1.0
C      1  0.5008850000000  0.4562590000000  0.4511660000000 1.0
C      1  0.4551470000000  0.5538920000000  0.4927470000000 1.0
C      1  0.5460340000000  0.4486270000000  0.4898910000000 1.0
C      1  0.5455800000000  0.5511600000000  0.5097150000000 1.0
C      1  0.4520960000000  0.4941280000000  0.5452710000000 1.0
C      1  0.5465710000000  0.5060790000000  0.5441740000000 1.0
C      1  0.5484580000000  0.4951900000000  0.4559290000000 1.0
C      1  0.5045830000000  0.5478630000000  0.5534090000000 1.0
C      1  0.4952410000000  0.4520780000000  0.5532550000000 1.0
C      1  0.4937690000000  0.5429160000000  0.4525600000000 1.0
C      1  0.5471890000000  0.4491520000000  0.5026560000000 1.0
C      1  0.5499540000000  0.5078840000000  0.4567970000000 1.0
C      1  0.4885410000000  0.4542880000000  0.4524530000000 1.0
C      1  0.5455690000000  0.5513720000000  0.4971270000000 1.0
C      1  0.4534910000000  0.4529350000000  0.4958100000000 1.0
C      1  0.4534550000000  0.5524210000000  0.5053500000000 1.0
C      1  0.5466470000000  0.4934740000000  0.5438970000000 1.0
C      1  0.4519100000000  0.5067450000000  0.5446090000000 1.0
C      1  0.4446200000000  0.4944430000000  0.4534220000000 1.0
C      1  0.4919670000000  0.5467340000000  0.5539820000000 1.0
C      1  0.5079150000000  0.4527360000000  0.5528560000000 1.0
C      1  0.5065290000000  0.5432900000000  0.4525580000000 1.0
C      1  0.5206030000000  0.5537930000000  0.4947920000000 1.0
C      1  0.5643290000000  0.4961580000000  0.5206230000000 1.0
C      1  0.4946780000000  0.5181330000000  0.5629840000000 1.0
C      1  0.5195920000000  0.4447400000000  0.5040040000000 1.0
C      1  0.4859870000000  0.5553900000000  0.5041950000000 1.0
C      1  0.4803940000000  0.4440480000000  0.4967200000000 1.0
C      1  0.5639710000000  0.5079930000000  0.4833650000000 1.0
C      1  0.4446620000000  0.4932900000000  0.4808760000000 1.0
C      1  0.4367200000000  0.5052280000000  0.5191790000000 1.0
C      1  0.4920470000000  0.4779320000000  0.4394690000000 1.0
C      1  0.5052570000000  0.5179670000000  0.4445780000000 1.0
C      1  0.5051310000000  0.4813230000000  0.5614480000000 1.0
C      1  0.4862010000000  0.5622580000000  0.4925250000000 1.0
C      1  0.4369380000000  0.4928070000000  0.5190240000000 1.0
C      1  0.5053650000000  0.5193420000000  0.5548180000000 1.0
C      1  0.4798110000000  0.4354960000000  0.5071080000000 1.0
C      1  0.5194550000000  0.5618580000000  0.5054780000000 1.0
C      1  0.5172530000000  0.4365070000000  0.4933380000000 1.0
C      1  0.4449210000000  0.5083300000000  0.4817580000000 1.0
C      1  0.5551940000000  0.4982070000000  0.4863350000000 1.0
C      1  0.5657340000000  0.5083670000000  0.5222040000000 1.0
C      1  0.5026260000000  0.4810190000000  0.4472410000000 1.0
C      1  0.4951740000000  0.5209970000000  0.4360880000000 1.0
C      1  0.4943440000000  0.4801210000000  0.5533820000000 1.0
C      1  0.4747520000000  0.4909030000000  0.5605120000000 1.0
C      1  0.4984530000000  0.5517430000000  0.4768420000000 1.0
C      1  0.5587990000000  0.4850200000000  0.4916900000000 1.0
C      1  0.4807570000000  0.5051930000000  0.4408950000000 1.0
C      1  0.5224890000000  0.4922010000000  0.4402270000000 1.0
C      1  0.5254410000000  0.5086210000000  0.5596030000000 1.0
C      1  0.4965180000000  0.4433700000000  0.5211950000000 1.0
C      1  0.5041670000000  0.5540730000000  0.5208480000000 1.0
C      1  0.5033120000000  0.4455330000000  0.4781880000000 1.0
C      1  0.5634050000000  0.5268890000000  0.5083060000000 1.0
C      1  0.4483430000000  0.4782140000000  0.5036810000000 1.0
C      1  0.4409720000000  0.5183310000000  0.4911700000000 1.0
C      1  0.5215460000000  0.4961430000000  0.5549500000000 1.0
C      1  0.5104840000000  0.5575250000000  0.4738510000000 1.0
C      1  0.4419040000000  0.4741280000000  0.4922470000000 1.0
C      1  0.5247270000000  0.5045540000000  0.4399170000000 1.0
C      1  0.4734220000000  0.4920730000000  0.4419400000000 1.0
C      1  0.4779330000000  0.5035910000000  0.5562070000000 1.0
C      1  0.5089450000000  0.4372990000000  0.5229850000000 1.0
C      1  0.4906730000000  0.5592210000000  0.5178180000000 1.0
C      1  0.4910890000000  0.4393780000000  0.4763710000000 1.0
C      1  0.4469340000000  0.5207600000000  0.5043370000000 1.0
C      1  0.5531690000000  0.4816050000000  0.5046140000000 1.0
C      1  0.5574130000000  0.5258510000000  0.4961840000000 1.0
C      1  0.5195620000000  0.4972340000000  0.5408870000000 1.0
C      1  0.4912780000000  0.5328160000000  0.5240340000000 1.0
C      1  0.5429450000000  0.5256790000000  0.4966520000000 1.0
C      1  0.5210710000000  0.5063870000000  0.4732380000000 1.0
C      1  0.4742820000000  0.4933640000000  0.4571220000000 1.0
C      1  0.4787040000000  0.5029040000000  0.5420550000000 1.0
C      1  0.4899100000000  0.4674650000000  0.4787660000000 1.0
C      1  0.5113110000000  0.5288330000000  0.4774260000000 1.0
C      1  0.5084840000000  0.4668520000000  0.5216260000000 1.0
C      1  0.5397230000000  0.4778270000000  0.5036390000000 1.0
C      1  0.4607020000000  0.5234290000000  0.5037920000000 1.0
C      1  0.4700840000000  0.4764040000000  0.4899470000000 1.0
C      1  0.4765090000000  0.4922180000000  0.5330380000000 1.0
C      1  0.5036460000000  0.5399280000000  0.5225790000000 1.0
C      1  0.4685070000000  0.5246460000000  0.4921650000000 1.0
C      1  0.4827700000000  0.5046030000000  0.4553180000000 1.0
C      1  0.5211400000000  0.4917750000000  0.4743260000000 1.0
C      1  0.5223760000000  0.5083120000000  0.5318650000000 1.0
C      1  0.5022730000000  0.4599250000000  0.4786020000000 1.0
C      1  0.4994330000000  0.5371110000000  0.4780610000000 1.0
C      1  0.4970090000000  0.4580110000000  0.5191710000000 1.0
C      1  0.4628060000000  0.4797040000000  0.5021570000000 1.0
C      1  0.5348980000000  0.5228700000000  0.5083900000000 1.0
C      1  0.5324660000000  0.4774080000000  0.4913160000000 1.0
END
