TITL C-114179-1211-68 -0.0139229173086847 1000000 -1737.32005314932 0 0 240 (Td) n - 1
REM
REM in /home/chem/mssmkc/work/GAP20/Larger-Clusters/Only-C240/New/BUILD-ONLY
REM
REM
REM
REM
REM
REM ./C.cell (daee87de7206da95283bc1c1416dbc6f)
REM
REM compiler GCC version 8.3.0
REM options -cpp -mtune=generic -march=x86-64 -g -O0
REM seed 1035021333 1621195902 -1405281579 1306576149 -1210897142 -1533542353 -79224842 -2138782329 1607717377 263446389 -958158158 87474404 1362579305 1391304090 -2071270187 729201411 -1867149894 -452000180 -948385676 301269930 1881799785 -1253387158 -472151558 -1903905156 1646158365 -992393155 -1906716266 408417398 1101370289 1978841456 1567379743 2139948223 -1954528892
REM
CELL 1.54180  100.00000  100.00000  100.00000   90.00000   90.00000   90.00000
LATT -1
SFAC C  
C      1  0.4375490000000  0.4876080000000  0.4773590000000 1.0
C      1  0.4773490000000  0.4375560000000  0.4875900000000 1.0
C      1  0.4875910000000  0.4773670000000  0.4375490000000 1.0
C      1  0.5624470000000  0.5124000000000  0.4773510000000 1.0
C      1  0.5624490000000  0.4875900000000  0.5226370000000 1.0
C      1  0.4375550000000  0.5124020000000  0.5226540000000 1.0
C      1  0.5226490000000  0.5624490000000  0.4876070000000 1.0
C      1  0.5226410000000  0.4375480000000  0.5123880000000 1.0
C      1  0.4773610000000  0.5624480000000  0.5124150000000 1.0
C      1  0.5123970000000  0.5226550000000  0.4375550000000 1.0
C      1  0.5124060000000  0.4773430000000  0.5624430000000 1.0
C      1  0.4876070000000  0.5226350000000  0.5624530000000 1.0
C      1  0.4875910000000  0.4375570000000  0.4773450000000 1.0
C      1  0.4375490000000  0.4773620000000  0.4876010000000 1.0
C      1  0.4773480000000  0.4876110000000  0.4375520000000 1.0
C      1  0.5124040000000  0.5624510000000  0.4773650000000 1.0
C      1  0.4876060000000  0.5624450000000  0.5226570000000 1.0
C      1  0.5123990000000  0.4375470000000  0.5226330000000 1.0
C      1  0.5624490000000  0.5226420000000  0.4875960000000 1.0
C      1  0.4375550000000  0.5226480000000  0.5124120000000 1.0
C      1  0.5624480000000  0.4773480000000  0.5123910000000 1.0
C      1  0.5226400000000  0.5124110000000  0.4375520000000 1.0
C      1  0.4773620000000  0.5123920000000  0.5624530000000 1.0
C      1  0.5226500000000  0.4875860000000  0.5624440000000 1.0
C      1  0.5180810000000  0.4714820000000  0.5083250000000 1.0
C      1  0.5083300000000  0.5180870000000  0.4714870000000 1.0
C      1  0.4714870000000  0.5083310000000  0.5180870000000 1.0
C      1  0.4819200000000  0.5285150000000  0.5083390000000 1.0
C      1  0.4819140000000  0.4714880000000  0.4916650000000 1.0
C      1  0.5180840000000  0.5285150000000  0.4916710000000 1.0
C      1  0.4916640000000  0.4819230000000  0.4714820000000 1.0
C      1  0.4916730000000  0.5180780000000  0.5285190000000 1.0
C      1  0.5083330000000  0.4819120000000  0.5285110000000 1.0
C      1  0.5285160000000  0.4916630000000  0.5180780000000 1.0
C      1  0.5285140000000  0.5083330000000  0.4819160000000 1.0
C      1  0.4714820000000  0.4916740000000  0.4819190000000 1.0
C      1  0.4714870000000  0.5180830000000  0.5083380000000 1.0
C      1  0.5180800000000  0.5083350000000  0.4714840000000 1.0
C      1  0.5083310000000  0.4714810000000  0.5180770000000 1.0
C      1  0.5285150000000  0.4819140000000  0.5083260000000 1.0
C      1  0.4714820000000  0.4819210000000  0.4916680000000 1.0
C      1  0.5285160000000  0.5180820000000  0.4916690000000 1.0
C      1  0.4819140000000  0.4916750000000  0.4714850000000 1.0
C      1  0.5180850000000  0.4916620000000  0.5285120000000 1.0
C      1  0.4819210000000  0.5083280000000  0.5285190000000 1.0
C      1  0.4916720000000  0.5285130000000  0.5180890000000 1.0
C      1  0.5083320000000  0.5285180000000  0.4819220000000 1.0
C      1  0.4916640000000  0.4714890000000  0.4819130000000 1.0
C      1  0.4543330000000  0.5251620000000  0.5355280000000 1.0
C      1  0.5355180000000  0.4543200000000  0.5251530000000 1.0
C      1  0.5251630000000  0.5355250000000  0.4543310000000 1.0
C      1  0.5456740000000  0.4748250000000  0.5355100000000 1.0
C      1  0.5456710000000  0.5251680000000  0.4644810000000 1.0
C      1  0.4543220000000  0.4748450000000  0.4644810000000 1.0
C      1  0.4644870000000  0.5456710000000  0.5251770000000 1.0
C      1  0.4644750000000  0.4543350000000  0.4748300000000 1.0
C      1  0.5355200000000  0.5456740000000  0.4748390000000 1.0
C      1  0.4748280000000  0.4644910000000  0.4543240000000 1.0
C      1  0.4748420000000  0.5355130000000  0.5456810000000 1.0
C      1  0.5251670000000  0.4644710000000  0.5456640000000 1.0
C      1  0.5251650000000  0.4543190000000  0.5355090000000 1.0
C      1  0.4543330000000  0.5355180000000  0.5251760000000 1.0
C      1  0.5355170000000  0.5251700000000  0.4543280000000 1.0
C      1  0.4748420000000  0.5456680000000  0.5355300000000 1.0
C      1  0.5251650000000  0.5456770000000  0.4644860000000 1.0
C      1  0.4748280000000  0.4543360000000  0.4644750000000 1.0
C      1  0.5456720000000  0.4644730000000  0.5251540000000 1.0
C      1  0.4543220000000  0.4644890000000  0.4748330000000 1.0
C      1  0.5456730000000  0.5355200000000  0.4748370000000 1.0
C      1  0.4644740000000  0.4748460000000  0.4543270000000 1.0
C      1  0.5355220000000  0.4748240000000  0.5456640000000 1.0
C      1  0.4644870000000  0.5251600000000  0.5456800000000 1.0
C      1  0.4999390000000  0.5360950000000  0.5467200000000 1.0
C      1  0.5467170000000  0.4999220000000  0.5360990000000 1.0
C      1  0.5361070000000  0.5467100000000  0.4999370000000 1.0
C      1  0.5000700000000  0.4638880000000  0.5467070000000 1.0
C      1  0.5000660000000  0.5361120000000  0.4532930000000 1.0
C      1  0.4999240000000  0.4639050000000  0.4532800000000 1.0
C      1  0.4532900000000  0.5000650000000  0.5361080000000 1.0
C      1  0.4532830000000  0.4999420000000  0.4639010000000 1.0
C      1  0.5467100000000  0.5000710000000  0.4638920000000 1.0
C      1  0.4638930000000  0.4532900000000  0.4999270000000 1.0
C      1  0.4639000000000  0.5467160000000  0.5000800000000 1.0
C      1  0.5361000000000  0.4532840000000  0.5000560000000 1.0
C      1  0.5361080000000  0.4999210000000  0.5467100000000 1.0
C      1  0.4999390000000  0.5467070000000  0.5361120000000 1.0
C      1  0.5467160000000  0.5361000000000  0.4999340000000 1.0
C      1  0.4639010000000  0.5000630000000  0.5467170000000 1.0
C      1  0.5360990000000  0.5000730000000  0.4532830000000 1.0
C      1  0.4638920000000  0.4999430000000  0.4532900000000 1.0
C      1  0.5000680000000  0.4532800000000  0.5360950000000 1.0
C      1  0.4999250000000  0.4532930000000  0.4638880000000 1.0
C      1  0.5000680000000  0.5467200000000  0.4639050000000 1.0
C      1  0.4532840000000  0.4639000000000  0.4999300000000 1.0
C      1  0.5467100000000  0.4638930000000  0.5000570000000 1.0
C      1  0.4532900000000  0.5361070000000  0.5000790000000 1.0
C      1  0.5529290000000  0.5127740000000  0.5328600000000 1.0
C      1  0.5328680000000  0.5529200000000  0.5127900000000 1.0
C      1  0.5127920000000  0.5328530000000  0.5529300000000 1.0
C      1  0.4470770000000  0.4872140000000  0.5328660000000 1.0
C      1  0.4470730000000  0.5127940000000  0.4671450000000 1.0
C      1  0.5529210000000  0.4872180000000  0.4671300000000 1.0
C      1  0.4671340000000  0.4470750000000  0.5127780000000 1.0
C      1  0.4671400000000  0.5529300000000  0.4872290000000 1.0
C      1  0.5328570000000  0.4470750000000  0.4872030000000 1.0
C      1  0.4872190000000  0.4671290000000  0.5529210000000 1.0
C      1  0.4872130000000  0.5328730000000  0.4470820000000 1.0
C      1  0.5127760000000  0.4671450000000  0.4470680000000 1.0
C      1  0.5127920000000  0.5529180000000  0.5328710000000 1.0
C      1  0.5529290000000  0.5328560000000  0.5127850000000 1.0
C      1  0.5328690000000  0.5127720000000  0.5529240000000 1.0
C      1  0.4872150000000  0.4470700000000  0.5328550000000 1.0
C      1  0.5127770000000  0.4470800000000  0.4671260000000 1.0
C      1  0.4872170000000  0.5529320000000  0.4671480000000 1.0
C      1  0.4470740000000  0.4671390000000  0.5127840000000 1.0
C      1  0.5529210000000  0.4671350000000  0.4872050000000 1.0
C      1  0.4470760000000  0.5328690000000  0.4872270000000 1.0
C      1  0.4671410000000  0.4872090000000  0.5529260000000 1.0
C      1  0.5328570000000  0.4872230000000  0.4470690000000 1.0
C      1  0.4671330000000  0.5127960000000  0.4470800000000 1.0
C      1  0.4752620000000  0.4548940000000  0.5350510000000 1.0
C      1  0.5350500000000  0.4752670000000  0.4548900000000 1.0
C      1  0.4548980000000  0.5350650000000  0.4752720000000 1.0
C      1  0.5247450000000  0.5450940000000  0.5350620000000 1.0
C      1  0.5247310000000  0.4549020000000  0.4649330000000 1.0
C      1  0.4752620000000  0.5451100000000  0.4649540000000 1.0
C      1  0.4649410000000  0.5247490000000  0.4549060000000 1.0
C      1  0.4649460000000  0.4752560000000  0.5451010000000 1.0
C      1  0.5350630000000  0.5247280000000  0.5451030000000 1.0
C      1  0.5450970000000  0.4649440000000  0.4752510000000 1.0
C      1  0.5451070000000  0.5350490000000  0.5247400000000 1.0
C      1  0.4548980000000  0.4649430000000  0.5247370000000 1.0
C      1  0.4549000000000  0.4752590000000  0.5350570000000 1.0
C      1  0.4752600000000  0.5350670000000  0.4549070000000 1.0
C      1  0.5350510000000  0.4549000000000  0.4752500000000 1.0
C      1  0.5451070000000  0.5247290000000  0.5350570000000 1.0
C      1  0.4548970000000  0.5247480000000  0.4649520000000 1.0
C      1  0.5450960000000  0.4752640000000  0.4649340000000 1.0
C      1  0.5247310000000  0.4649490000000  0.4548890000000 1.0
C      1  0.4752630000000  0.4649370000000  0.5450980000000 1.0
C      1  0.5247460000000  0.5350470000000  0.5451060000000 1.0
C      1  0.4649440000000  0.5451090000000  0.4752730000000 1.0
C      1  0.5350630000000  0.5450950000000  0.5247430000000 1.0
C      1  0.4649420000000  0.4548970000000  0.5247340000000 1.0
C      1  0.4810340000000  0.5668170000000  0.5000620000000 1.0
C      1  0.5000540000000  0.4810160000000  0.5668120000000 1.0
C      1  0.5668140000000  0.5000470000000  0.4810220000000 1.0
C      1  0.5189660000000  0.4331830000000  0.5000350000000 1.0
C      1  0.5189770000000  0.5668140000000  0.4999610000000 1.0
C      1  0.4810230000000  0.4331860000000  0.4999420000000 1.0
C      1  0.4999600000000  0.5189600000000  0.5668190000000 1.0
C      1  0.4999430000000  0.4810400000000  0.4331810000000 1.0
C      1  0.5000430000000  0.5189840000000  0.4331880000000 1.0
C      1  0.4331830000000  0.4999600000000  0.4810350000000 1.0
C      1  0.4331860000000  0.5000510000000  0.5189780000000 1.0
C      1  0.5668170000000  0.4999430000000  0.5189650000000 1.0
C      1  0.5668140000000  0.4810230000000  0.5000390000000 1.0
C      1  0.4810350000000  0.5000380000000  0.5668170000000 1.0
C      1  0.5000520000000  0.5668190000000  0.4810400000000 1.0
C      1  0.4331860000000  0.5189770000000  0.5000590000000 1.0
C      1  0.5668170000000  0.5189660000000  0.4999480000000 1.0
C      1  0.4331830000000  0.4810340000000  0.4999550000000 1.0
C      1  0.5189780000000  0.4999380000000  0.5668140000000 1.0
C      1  0.4810220000000  0.4999650000000  0.4331860000000 1.0
C      1  0.5189650000000  0.5000590000000  0.4331830000000 1.0
C      1  0.4999440000000  0.4331880000000  0.4810160000000 1.0
C      1  0.5000450000000  0.4331810000000  0.5189600000000 1.0
C      1  0.4999590000000  0.5668120000000  0.5189840000000 1.0
C      1  0.5530750000000  0.5332230000000  0.4869050000000 1.0
C      1  0.4869120000000  0.5530690000000  0.5332350000000 1.0
C      1  0.5332290000000  0.4868920000000  0.5530680000000 1.0
C      1  0.4469220000000  0.4667820000000  0.4869040000000 1.0
C      1  0.4469300000000  0.5332260000000  0.5131070000000 1.0
C      1  0.5530730000000  0.4667690000000  0.5130840000000 1.0
C      1  0.5130950000000  0.4469190000000  0.5332140000000 1.0
C      1  0.5130960000000  0.5530790000000  0.4667830000000 1.0
C      1  0.4868970000000  0.4469330000000  0.4667670000000 1.0
C      1  0.4667820000000  0.5130890000000  0.5530800000000 1.0
C      1  0.4667690000000  0.4869160000000  0.4469270000000 1.0
C      1  0.5332200000000  0.5131020000000  0.4469250000000 1.0
C      1  0.5332270000000  0.5530740000000  0.4869100000000 1.0
C      1  0.5530760000000  0.4868940000000  0.5332170000000 1.0
C      1  0.4869120000000  0.5332160000000  0.5530810000000 1.0
C      1  0.4667700000000  0.4469310000000  0.4868980000000 1.0
C      1  0.5332220000000  0.4469210000000  0.5130830000000 1.0
C      1  0.4667810000000  0.5530740000000  0.5131080000000 1.0
C      1  0.4469300000000  0.5130940000000  0.5332320000000 1.0
C      1  0.5530720000000  0.5130970000000  0.4667720000000 1.0
C      1  0.4469220000000  0.4869140000000  0.4667780000000 1.0
C      1  0.5130980000000  0.4667650000000  0.5530670000000 1.0
C      1  0.4868960000000  0.4667860000000  0.4469210000000 1.0
C      1  0.5130930000000  0.5332330000000  0.4469300000000 1.0
C      1  0.5249660000000  0.4978410000000  0.4642790000000 1.0
C      1  0.4642830000000  0.5249730000000  0.4978440000000 1.0
C      1  0.4978360000000  0.4642770000000  0.5249640000000 1.0
C      1  0.4750260000000  0.5021720000000  0.4642850000000 1.0
C      1  0.4750330000000  0.4978320000000  0.5357200000000 1.0
C      1  0.5249740000000  0.5021550000000  0.5357160000000 1.0
C      1  0.5357160000000  0.4750270000000  0.4978280000000 1.0
C      1  0.5357200000000  0.5249670000000  0.5021650000000 1.0
C      1  0.4642800000000  0.4750320000000  0.5021630000000 1.0
C      1  0.5021690000000  0.5357140000000  0.5249760000000 1.0
C      1  0.5021580000000  0.4642860000000  0.4750230000000 1.0
C      1  0.4978370000000  0.5357230000000  0.4750360000000 1.0
C      1  0.4978350000000  0.5249770000000  0.4642860000000 1.0
C      1  0.5249670000000  0.4642800000000  0.4978280000000 1.0
C      1  0.4642840000000  0.4978350000000  0.5249730000000 1.0
C      1  0.5021580000000  0.4750360000000  0.4642770000000 1.0
C      1  0.4978380000000  0.4750240000000  0.5357140000000 1.0
C      1  0.5021690000000  0.5249640000000  0.5357220000000 1.0
C      1  0.4750320000000  0.5357210000000  0.4978450000000 1.0
C      1  0.5249730000000  0.5357160000000  0.5021680000000 1.0
C      1  0.4750270000000  0.4642830000000  0.5021600000000 1.0
C      1  0.5357210000000  0.5021560000000  0.5249670000000 1.0
C      1  0.4642790000000  0.5021710000000  0.4750340000000 1.0
C      1  0.5357160000000  0.4978380000000  0.4750260000000 1.0
C      1  0.4772850000000  0.4875940000000  0.5629200000000 1.0
C      1  0.5629170000000  0.4772770000000  0.4875930000000 1.0
C      1  0.4876060000000  0.5629250000000  0.4772920000000 1.0
C      1  0.5227280000000  0.5123840000000  0.5629190000000 1.0
C      1  0.5227130000000  0.4876120000000  0.4370760000000 1.0
C      1  0.4772740000000  0.5124100000000  0.4370850000000 1.0
C      1  0.4370810000000  0.5227270000000  0.4876130000000 1.0
C      1  0.4370800000000  0.4772830000000  0.5123990000000 1.0
C      1  0.5629230000000  0.5227130000000  0.5123950000000 1.0
C      1  0.5123900000000  0.4370830000000  0.4772670000000 1.0
C      1  0.5124040000000  0.5629150000000  0.5227300000000 1.0
C      1  0.4876000000000  0.4370770000000  0.5227100000000 1.0
C      1  0.4876080000000  0.4772700000000  0.5629170000000 1.0
C      1  0.4772830000000  0.5629240000000  0.4876160000000 1.0
C      1  0.5629160000000  0.4876020000000  0.4772710000000 1.0
C      1  0.5124050000000  0.5227080000000  0.5629220000000 1.0
C      1  0.4875990000000  0.5227320000000  0.4370860000000 1.0
C      1  0.5123890000000  0.4772900000000  0.4370750000000 1.0
C      1  0.5227140000000  0.4370810000000  0.4875900000000 1.0
C      1  0.4772760000000  0.4370800000000  0.5123880000000 1.0
C      1  0.5227260000000  0.5629160000000  0.5124060000000 1.0
C      1  0.4370790000000  0.5124060000000  0.4772880000000 1.0
C      1  0.5629230000000  0.5123880000000  0.5227160000000 1.0
C      1  0.4370820000000  0.4876040000000  0.5227240000000 1.0
END
