TITL C-114181-47-81 -0.0236667491804286 1000000 -1729.69906685766 0 0 240 (C1) n - 1
REM
REM in /home/chem/mssmkc/work/GAP20/Larger-Clusters/Only-C240/New/BUILD-ONLY
REM
REM
REM
REM
REM
REM ./C.cell (daee87de7206da95283bc1c1416dbc6f)
REM
REM compiler GCC version 8.3.0
REM options -cpp -mtune=generic -march=x86-64 -g -O0
REM seed -966560714 -477538716 1155171779 1187296875 1430995369 -260668736 2023734056 422144365 -574960051 -1698392983 419053566 2128376337 227999942 -435146781 1470668589 -1759306913 -430607548 -2067830990 -466391236 -692926089 -659768937 -596914406 -77395645 425833559 -447045429 -1608223891 753183650 -1466055186 1775970793 661646376 -1472181742 430934561 759871500
REM
CELL 1.54180  100.00000  100.00000  100.00000   90.00000   90.00000   90.00000
LATT -1
SFAC C  
C      1  0.4751530000000  0.5343980000000  0.5453270000000 1.0
C      1  0.5349750000000  0.5456250000000  0.4765530000000 1.0
C      1  0.5436550000000  0.4765230000000  0.5338440000000 1.0
C      1  0.5239700000000  0.4661930000000  0.5443230000000 1.0
C      1  0.4740750000000  0.4642210000000  0.4553260000000 1.0
C      1  0.5258990000000  0.5362340000000  0.4556220000000 1.0
C      1  0.4644280000000  0.4544130000000  0.4757130000000 1.0
C      1  0.5337110000000  0.4561100000000  0.5239690000000 1.0
C      1  0.4656330000000  0.5439660000000  0.5245580000000 1.0
C      1  0.4551290000000  0.5240330000000  0.5343910000000 1.0
C      1  0.5443200000000  0.5247550000000  0.4670200000000 1.0
C      1  0.4546570000000  0.4751100000000  0.4661660000000 1.0
C      1  0.5338500000000  0.4762270000000  0.5443900000000 1.0
C      1  0.5444290000000  0.5346480000000  0.4770350000000 1.0
C      1  0.4754740000000  0.5441840000000  0.5346880000000 1.0
C      1  0.4649620000000  0.5245020000000  0.5452220000000 1.0
C      1  0.4644940000000  0.4744740000000  0.4557060000000 1.0
C      1  0.5358340000000  0.5259440000000  0.4557080000000 1.0
C      1  0.4545870000000  0.4652200000000  0.4761210000000 1.0
C      1  0.4554350000000  0.5336650000000  0.5242570000000 1.0
C      1  0.5435880000000  0.4666330000000  0.5238190000000 1.0
C      1  0.5239150000000  0.4560250000000  0.5340520000000 1.0
C      1  0.5252050000000  0.5456310000000  0.4662750000000 1.0
C      1  0.4741770000000  0.4539080000000  0.4654110000000 1.0
C      1  0.4810380000000  0.5408140000000  0.4484800000000 1.0
C      1  0.5420770000000  0.4476700000000  0.4805920000000 1.0
C      1  0.4489890000000  0.4805950000000  0.5413900000000 1.0
C      1  0.5185780000000  0.4568130000000  0.4465800000000 1.0
C      1  0.4809520000000  0.4580980000000  0.5525370000000 1.0
C      1  0.5190140000000  0.5422430000000  0.5535750000000 1.0
C      1  0.4597470000000  0.5508220000000  0.4811290000000 1.0
C      1  0.5421610000000  0.5533900000000  0.5204670000000 1.0
C      1  0.4593540000000  0.4485230000000  0.5194230000000 1.0
C      1  0.5531950000000  0.5202020000000  0.5438000000000 1.0
C      1  0.4501370000000  0.5191160000000  0.4592680000000 1.0
C      1  0.5517760000000  0.4806070000000  0.4574600000000 1.0
C      1  0.5410970000000  0.4804400000000  0.4473410000000 1.0
C      1  0.4496280000000  0.5404700000000  0.4810610000000 1.0
C      1  0.4809250000000  0.4477650000000  0.5422330000000 1.0
C      1  0.4581180000000  0.5192580000000  0.4469790000000 1.0
C      1  0.4594450000000  0.4809720000000  0.5516240000000 1.0
C      1  0.5427020000000  0.5199650000000  0.5540830000000 1.0
C      1  0.5525000000000  0.4579280000000  0.4802910000000 1.0
C      1  0.5529590000000  0.5432980000000  0.5207570000000 1.0
C      1  0.4489490000000  0.4588400000000  0.5197540000000 1.0
C      1  0.5191710000000  0.5528700000000  0.5433220000000 1.0
C      1  0.5183900000000  0.4486680000000  0.4589280000000 1.0
C      1  0.4816260000000  0.5510650000000  0.4590410000000 1.0
C      1  0.5098700000000  0.4685380000000  0.4742990000000 1.0
C      1  0.4652650000000  0.4774300000000  0.5119020000000 1.0
C      1  0.4810810000000  0.5099370000000  0.4694840000000 1.0
C      1  0.4850950000000  0.5329400000000  0.4753330000000 1.0
C      1  0.5155920000000  0.5363130000000  0.5262650000000 1.0
C      1  0.4854590000000  0.4653380000000  0.5248700000000 1.0
C      1  0.5369560000000  0.5263160000000  0.5167470000000 1.0
C      1  0.4670910000000  0.5211660000000  0.4890290000000 1.0
C      1  0.5351520000000  0.4743730000000  0.4852140000000 1.0
C      1  0.5246150000000  0.4843730000000  0.4642300000000 1.0
C      1  0.4747310000000  0.4864390000000  0.5337130000000 1.0
C      1  0.5263690000000  0.5155170000000  0.5372280000000 1.0
C      1  0.4685890000000  0.5090500000000  0.4781460000000 1.0
C      1  0.4745750000000  0.4664350000000  0.5139260000000 1.0
C      1  0.5110490000000  0.4810840000000  0.4677680000000 1.0
C      1  0.5347560000000  0.4846910000000  0.4741860000000 1.0
C      1  0.5366980000000  0.5156010000000  0.5272740000000 1.0
C      1  0.4652780000000  0.4882880000000  0.5227400000000 1.0
C      1  0.5268830000000  0.5362290000000  0.5164440000000 1.0
C      1  0.5252350000000  0.4643990000000  0.4858350000000 1.0
C      1  0.4762350000000  0.5326090000000  0.4875380000000 1.0
C      1  0.4841330000000  0.5232050000000  0.4653270000000 1.0
C      1  0.4855360000000  0.4755070000000  0.5349350000000 1.0
C      1  0.5157480000000  0.5263960000000  0.5364020000000 1.0
C      1  0.5171370000000  0.5262280000000  0.4353500000000 1.0
C      1  0.5176050000000  0.4432020000000  0.5076210000000 1.0
C      1  0.4420140000000  0.5073630000000  0.5176830000000 1.0
C      1  0.4900110000000  0.4798190000000  0.4417450000000 1.0
C      1  0.5078300000000  0.4825010000000  0.5570420000000 1.0
C      1  0.4912330000000  0.5185800000000  0.5583930000000 1.0
C      1  0.4824250000000  0.5561450000000  0.5083740000000 1.0
C      1  0.5185350000000  0.5581210000000  0.4921010000000 1.0
C      1  0.4811960000000  0.4422460000000  0.4913900000000 1.0
C      1  0.5561360000000  0.4931400000000  0.5177320000000 1.0
C      1  0.4426310000000  0.4920660000000  0.4823320000000 1.0
C      1  0.5557690000000  0.5075870000000  0.4830660000000 1.0
C      1  0.5262020000000  0.5174490000000  0.4351910000000 1.0
C      1  0.4425140000000  0.5171410000000  0.5074730000000 1.0
C      1  0.5076740000000  0.4433690000000  0.5177010000000 1.0
C      1  0.4801060000000  0.4899700000000  0.4419480000000 1.0
C      1  0.4813900000000  0.5087870000000  0.5580100000000 1.0
C      1  0.5179510000000  0.4924370000000  0.5574350000000 1.0
C      1  0.5559960000000  0.4830890000000  0.5074640000000 1.0
C      1  0.5562880000000  0.5176560000000  0.4934050000000 1.0
C      1  0.4419480000000  0.4821390000000  0.4925200000000 1.0
C      1  0.4922370000000  0.5566840000000  0.5184950000000 1.0
C      1  0.4908580000000  0.4421760000000  0.4813500000000 1.0
C      1  0.5087280000000  0.5573570000000  0.4821490000000 1.0
C      1  0.4703960000000  0.4898930000000  0.5477780000000 1.0
C      1  0.4894340000000  0.5467350000000  0.4710260000000 1.0
C      1  0.5492600000000  0.4696860000000  0.4886480000000 1.0
C      1  0.5309560000000  0.5114570000000  0.5511190000000 1.0
C      1  0.4650030000000  0.5080270000000  0.4429280000000 1.0
C      1  0.5290760000000  0.4889150000000  0.4499570000000 1.0
C      1  0.5090870000000  0.4528320000000  0.4694380000000 1.0
C      1  0.4885620000000  0.4511870000000  0.5298800000000 1.0
C      1  0.5110830000000  0.5500070000000  0.5312320000000 1.0
C      1  0.4519950000000  0.5285280000000  0.4892570000000 1.0
C      1  0.5503510000000  0.5313200000000  0.5123680000000 1.0
C      1  0.4505460000000  0.4703400000000  0.5108790000000 1.0
C      1  0.4886260000000  0.4704390000000  0.5490860000000 1.0
C      1  0.5486000000000  0.4889190000000  0.4693700000000 1.0
C      1  0.4709130000000  0.5474520000000  0.4897620000000 1.0
C      1  0.5106870000000  0.5304930000000  0.5498600000000 1.0
C      1  0.5077480000000  0.4643210000000  0.4423840000000 1.0
C      1  0.4886600000000  0.5281890000000  0.4512440000000 1.0
C      1  0.4528250000000  0.5098410000000  0.4702730000000 1.0
C      1  0.4505850000000  0.4892860000000  0.5297680000000 1.0
C      1  0.5503530000000  0.5117040000000  0.5319510000000 1.0
C      1  0.5299590000000  0.4505100000000  0.4887290000000 1.0
C      1  0.5307110000000  0.5498020000000  0.5117350000000 1.0
C      1  0.4702710000000  0.4523510000000  0.5104500000000 1.0
C      1  0.5386030000000  0.5487010000000  0.4996770000000 1.0
C      1  0.5483790000000  0.4991000000000  0.5391220000000 1.0
C      1  0.4984670000000  0.5382900000000  0.5486590000000 1.0
C      1  0.4615660000000  0.4523540000000  0.4988670000000 1.0
C      1  0.5380640000000  0.4520900000000  0.5010830000000 1.0
C      1  0.4622860000000  0.5469160000000  0.5016680000000 1.0
C      1  0.4516420000000  0.5013490000000  0.5379900000000 1.0
C      1  0.5464010000000  0.5015020000000  0.4621520000000 1.0
C      1  0.4515630000000  0.4980090000000  0.4613970000000 1.0
C      1  0.5010060000000  0.4623060000000  0.5477670000000 1.0
C      1  0.4963710000000  0.4584780000000  0.4488160000000 1.0
C      1  0.5017610000000  0.5364240000000  0.4524270000000 1.0
C      1  0.5484170000000  0.5387640000000  0.4998750000000 1.0
C      1  0.4985690000000  0.5481580000000  0.5389200000000 1.0
C      1  0.5386720000000  0.4990010000000  0.5490780000000 1.0
C      1  0.4514430000000  0.4619270000000  0.4989640000000 1.0
C      1  0.4526950000000  0.5369320000000  0.5013530000000 1.0
C      1  0.5477510000000  0.4620680000000  0.5011070000000 1.0
C      1  0.5009800000000  0.4525270000000  0.5379530000000 1.0
C      1  0.5015900000000  0.5457400000000  0.4629570000000 1.0
C      1  0.4974170000000  0.4507660000000  0.4605240000000 1.0
C      1  0.4617490000000  0.5015060000000  0.5476410000000 1.0
C      1  0.4590840000000  0.4968210000000  0.4496030000000 1.0
C      1  0.5370480000000  0.5018770000000  0.4516610000000 1.0
C      1  0.4701900000000  0.4888210000000  0.5010840000000 1.0
C      1  0.4918840000000  0.5017630000000  0.4650960000000 1.0
C      1  0.5023300000000  0.4586190000000  0.4926760000000 1.0
C      1  0.5266610000000  0.5058960000000  0.5050820000000 1.0
C      1  0.4704300000000  0.5097000000000  0.5002320000000 1.0
C      1  0.5309850000000  0.4880710000000  0.4880300000000 1.0
C      1  0.5078590000000  0.4980080000000  0.4519530000000 1.0
C      1  0.4931910000000  0.4984830000000  0.5409450000000 1.0
C      1  0.5127030000000  0.5122730000000  0.5333900000000 1.0
C      1  0.4992350000000  0.5398110000000  0.4930260000000 1.0
C      1  0.5131340000000  0.5324600000000  0.5124210000000 1.0
C      1  0.4888800000000  0.4682870000000  0.5110950000000 1.0
C      1  0.4927840000000  0.4590270000000  0.5020420000000 1.0
C      1  0.5019490000000  0.4915180000000  0.4644810000000 1.0
C      1  0.4708070000000  0.4990650000000  0.4903370000000 1.0
C      1  0.5086240000000  0.5406770000000  0.5027020000000 1.0
C      1  0.5115970000000  0.4679110000000  0.4881420000000 1.0
C      1  0.4903850000000  0.5303880000000  0.4892380000000 1.0
C      1  0.4983890000000  0.5079010000000  0.4524440000000 1.0
C      1  0.4890470000000  0.4893310000000  0.5319080000000 1.0
C      1  0.5026930000000  0.5080300000000  0.5414580000000 1.0
C      1  0.5269390000000  0.4966510000000  0.4963230000000 1.0
C      1  0.5333770000000  0.5125260000000  0.5135590000000 1.0
C      1  0.4700460000000  0.4992870000000  0.5110310000000 1.0
C      1  0.4578970000000  0.5534700000000  0.4671440000000 1.0
C      1  0.5533090000000  0.4662870000000  0.4563030000000 1.0
C      1  0.4668660000000  0.4563090000000  0.5546040000000 1.0
C      1  0.5433880000000  0.4458360000000  0.4665460000000 1.0
C      1  0.4579950000000  0.4466670000000  0.5335800000000 1.0
C      1  0.5429760000000  0.5544870000000  0.5347570000000 1.0
C      1  0.4476430000000  0.5332210000000  0.4579350000000 1.0
C      1  0.5540430000000  0.5345060000000  0.5447980000000 1.0
C      1  0.4472810000000  0.4665780000000  0.5435600000000 1.0
C      1  0.5332320000000  0.5434930000000  0.5549790000000 1.0
C      1  0.4670500000000  0.5432440000000  0.4466770000000 1.0
C      1  0.5329270000000  0.4562060000000  0.4466050000000 1.0
C      1  0.5538930000000  0.4564700000000  0.4660100000000 1.0
C      1  0.4675070000000  0.5536220000000  0.4572890000000 1.0
C      1  0.4580550000000  0.4668340000000  0.5536140000000 1.0
C      1  0.4471180000000  0.5431890000000  0.4672150000000 1.0
C      1  0.4472680000000  0.4567790000000  0.5337800000000 1.0
C      1  0.5538080000000  0.5443190000000  0.5349930000000 1.0
C      1  0.5326910000000  0.4468980000000  0.4580240000000 1.0
C      1  0.5333040000000  0.5541810000000  0.5446630000000 1.0
C      1  0.4668370000000  0.4457250000000  0.5440800000000 1.0
C      1  0.5434720000000  0.5342250000000  0.5552320000000 1.0
C      1  0.5425430000000  0.4662170000000  0.4461390000000 1.0
C      1  0.4569470000000  0.5337050000000  0.4464460000000 1.0
C      1  0.5125360000000  0.5513730000000  0.4694880000000 1.0
C      1  0.5507140000000  0.4699330000000  0.5119840000000 1.0
C      1  0.4684380000000  0.5126030000000  0.5523190000000 1.0
C      1  0.4865070000000  0.4469700000000  0.4682860000000 1.0
C      1  0.5120400000000  0.4489220000000  0.5306340000000 1.0
C      1  0.4875140000000  0.5513530000000  0.5314270000000 1.0
C      1  0.4484660000000  0.5298930000000  0.5122310000000 1.0
C      1  0.5512690000000  0.5309140000000  0.4889520000000 1.0
C      1  0.4474620000000  0.4690450000000  0.4879940000000 1.0
C      1  0.5308900000000  0.4879710000000  0.5519270000000 1.0
C      1  0.4673850000000  0.4857800000000  0.4477610000000 1.0
C      1  0.5338060000000  0.5146290000000  0.4469240000000 1.0
C      1  0.5501590000000  0.5122230000000  0.4701390000000 1.0
C      1  0.4692860000000  0.5509420000000  0.5127320000000 1.0
C      1  0.5121010000000  0.4695640000000  0.5514280000000 1.0
C      1  0.4480050000000  0.4873110000000  0.4693570000000 1.0
C      1  0.4477690000000  0.5121910000000  0.5306600000000 1.0
C      1  0.5508710000000  0.4883910000000  0.5308020000000 1.0
C      1  0.5305020000000  0.4488110000000  0.5121100000000 1.0
C      1  0.5315830000000  0.5527180000000  0.4884610000000 1.0
C      1  0.4681210000000  0.4476130000000  0.4877260000000 1.0
C      1  0.4872180000000  0.5313330000000  0.5526000000000 1.0
C      1  0.4854690000000  0.4670020000000  0.4472390000000 1.0
C      1  0.5143610000000  0.5337170000000  0.4471370000000 1.0
C      1  0.5573840000000  0.5077870000000  0.5182060000000 1.0
C      1  0.5059850000000  0.5160870000000  0.5552360000000 1.0
C      1  0.5159470000000  0.5547190000000  0.5067170000000 1.0
C      1  0.4418040000000  0.4926890000000  0.5174450000000 1.0
C      1  0.5562480000000  0.4929730000000  0.4827420000000 1.0
C      1  0.4438230000000  0.5066200000000  0.4826800000000 1.0
C      1  0.4931820000000  0.4829220000000  0.5571810000000 1.0
C      1  0.5052110000000  0.4784950000000  0.4398120000000 1.0
C      1  0.4892710000000  0.5146350000000  0.4438350000000 1.0
C      1  0.4841400000000  0.4462180000000  0.5057190000000 1.0
C      1  0.5171340000000  0.4428390000000  0.4928570000000 1.0
C      1  0.4831490000000  0.5556330000000  0.4938910000000 1.0
C      1  0.5068290000000  0.5574820000000  0.5182860000000 1.0
C      1  0.5177570000000  0.5070890000000  0.5583420000000 1.0
C      1  0.5574870000000  0.5178470000000  0.5081530000000 1.0
C      1  0.4930770000000  0.4431280000000  0.5173340000000 1.0
C      1  0.4945780000000  0.5529420000000  0.4849010000000 1.0
C      1  0.5052780000000  0.4463780000000  0.4837960000000 1.0
C      1  0.4843180000000  0.4945320000000  0.5539920000000 1.0
C      1  0.4789240000000  0.5051390000000  0.4401940000000 1.0
C      1  0.5147480000000  0.4891040000000  0.4431400000000 1.0
C      1  0.4418020000000  0.4825780000000  0.5072950000000 1.0
C      1  0.4430140000000  0.5166620000000  0.4927090000000 1.0
C      1  0.5565700000000  0.4829900000000  0.4927490000000 1.0
END
