TITL C-114181-47-18 -13.3331615233701 1000000 -1662.46483094586 0 0 240 (T23) n - 1
REM
REM in /home/chem/mssmkc/work/GAP20/Larger-Clusters/Only-C240/New/BUILD-ONLY
REM
REM
REM
REM
REM
REM ./C.cell (daee87de7206da95283bc1c1416dbc6f)
REM
REM compiler GCC version 8.3.0
REM options -cpp -mtune=generic -march=x86-64 -g -O0
REM seed -347717666 -952336808 -865056368 -1551443368 1879968589 1189157282 1507999285 -2022478875 -1137110314 -833690480 -300448334 454507535 1523091011 1691720098 2059495964 338640947 -1174528237 -1315806306 -1431172507 396645176 1644730297 -1966758811 355133141 522653635 1943604113 255174714 -1160064394 -627427303 -347677049 -693007049 690568827 -1420708463 1880341759
REM
CELL 1.54180  100.00000  100.00000  100.00000   90.00000   90.00000   90.00000
LATT -1
SFAC C  
C      1  0.4349940000000  0.5068350000000  0.4713700000000 1.0
C      1  0.5068370000000  0.4713700000000  0.4349950000000 1.0
C      1  0.4713720000000  0.4349940000000  0.5068380000000 1.0
C      1  0.5650070000000  0.4931630000000  0.4713730000000 1.0
C      1  0.4349930000000  0.4931650000000  0.5286270000000 1.0
C      1  0.5650060000000  0.5068370000000  0.5286290000000 1.0
C      1  0.4931650000000  0.5286260000000  0.4349930000000 1.0
C      1  0.5068350000000  0.5286300000000  0.5650060000000 1.0
C      1  0.4931630000000  0.4713740000000  0.5650070000000 1.0
C      1  0.5286280000000  0.5650070000000  0.5068340000000 1.0
C      1  0.4713720000000  0.5650060000000  0.4931610000000 1.0
C      1  0.5286280000000  0.4349930000000  0.4931670000000 1.0
C      1  0.4353800000000  0.5079410000000  0.5280680000000 1.0
C      1  0.5079390000000  0.4719330000000  0.5646210000000 1.0
C      1  0.4719310000000  0.4353800000000  0.4920610000000 1.0
C      1  0.5646190000000  0.4920610000000  0.5280710000000 1.0
C      1  0.4353810000000  0.4920580000000  0.4719300000000 1.0
C      1  0.5646200000000  0.5079400000000  0.4719310000000 1.0
C      1  0.4920580000000  0.5280720000000  0.5646180000000 1.0
C      1  0.5079410000000  0.5280670000000  0.4353800000000 1.0
C      1  0.4920610000000  0.4719280000000  0.4353810000000 1.0
C      1  0.5280690000000  0.5646190000000  0.4920580000000 1.0
C      1  0.4719300000000  0.5646200000000  0.5079380000000 1.0
C      1  0.5280700000000  0.4353810000000  0.5079430000000 1.0
C      1  0.5152630000000  0.5415530000000  0.4661960000000 1.0
C      1  0.5415540000000  0.4661980000000  0.5152640000000 1.0
C      1  0.4661960000000  0.5152630000000  0.5415530000000 1.0
C      1  0.4847390000000  0.4584440000000  0.4661980000000 1.0
C      1  0.5152620000000  0.4584470000000  0.5338050000000 1.0
C      1  0.4847370000000  0.5415560000000  0.5338010000000 1.0
C      1  0.4584450000000  0.5338030000000  0.5152600000000 1.0
C      1  0.5415550000000  0.5338030000000  0.4847370000000 1.0
C      1  0.4584460000000  0.4661960000000  0.4847380000000 1.0
C      1  0.5338020000000  0.4847390000000  0.5415560000000 1.0
C      1  0.4661980000000  0.4847360000000  0.4584450000000 1.0
C      1  0.5338040000000  0.5152610000000  0.4584460000000 1.0
C      1  0.5172200000000  0.5430280000000  0.5344440000000 1.0
C      1  0.5430270000000  0.4655540000000  0.4827810000000 1.0
C      1  0.4655550000000  0.5172190000000  0.4569720000000 1.0
C      1  0.4827790000000  0.4569750000000  0.5344460000000 1.0
C      1  0.5172210000000  0.4569730000000  0.4655560000000 1.0
C      1  0.4827800000000  0.5430250000000  0.4655530000000 1.0
C      1  0.4569740000000  0.5344450000000  0.4827770000000 1.0
C      1  0.5430260000000  0.5344460000000  0.5172200000000 1.0
C      1  0.4569730000000  0.4655550000000  0.5172210000000 1.0
C      1  0.5344460000000  0.4827780000000  0.4569750000000 1.0
C      1  0.4655540000000  0.4827810000000  0.5430260000000 1.0
C      1  0.5344450000000  0.5172220000000  0.5430260000000 1.0
C      1  0.5173550000000  0.5076590000000  0.5599840000000 1.0
C      1  0.5076560000000  0.5599840000000  0.5173550000000 1.0
C      1  0.5599830000000  0.5173570000000  0.5076570000000 1.0
C      1  0.4826430000000  0.4923450000000  0.5599830000000 1.0
C      1  0.5173580000000  0.4923410000000  0.4400170000000 1.0
C      1  0.4826440000000  0.5076550000000  0.4400160000000 1.0
C      1  0.4923430000000  0.4400170000000  0.5173580000000 1.0
C      1  0.5076570000000  0.4400160000000  0.4826460000000 1.0
C      1  0.4923430000000  0.5599830000000  0.4826410000000 1.0
C      1  0.4400160000000  0.4826440000000  0.5076560000000 1.0
C      1  0.5599840000000  0.4826430000000  0.4923450000000 1.0
C      1  0.4400170000000  0.5173560000000  0.4923420000000 1.0
C      1  0.5172920000000  0.5063690000000  0.4404120000000 1.0
C      1  0.5063710000000  0.5595880000000  0.4827070000000 1.0
C      1  0.5595880000000  0.5172910000000  0.4936290000000 1.0
C      1  0.4827100000000  0.4936270000000  0.4404120000000 1.0
C      1  0.5172900000000  0.4936310000000  0.5595890000000 1.0
C      1  0.4827080000000  0.5063730000000  0.5595880000000 1.0
C      1  0.4936290000000  0.4404110000000  0.4827110000000 1.0
C      1  0.5063710000000  0.4404120000000  0.5172930000000 1.0
C      1  0.4936280000000  0.5595890000000  0.5172890000000 1.0
C      1  0.4404120000000  0.4827090000000  0.4936280000000 1.0
C      1  0.5595880000000  0.4827090000000  0.5063730000000 1.0
C      1  0.4404120000000  0.5172910000000  0.5063700000000 1.0
C      1  0.4390110000000  0.4448850000000  0.4922300000000 1.0
C      1  0.4448860000000  0.4922270000000  0.4390100000000 1.0
C      1  0.4922310000000  0.4390090000000  0.4448870000000 1.0
C      1  0.5609890000000  0.5551150000000  0.4922290000000 1.0
C      1  0.4390110000000  0.5551150000000  0.5077680000000 1.0
C      1  0.5609890000000  0.4448850000000  0.5077730000000 1.0
C      1  0.5551160000000  0.5077680000000  0.4390120000000 1.0
C      1  0.4448840000000  0.5077720000000  0.5609880000000 1.0
C      1  0.5551140000000  0.4922320000000  0.5609900000000 1.0
C      1  0.5077710000000  0.5609870000000  0.4448830000000 1.0
C      1  0.4922290000000  0.5609910000000  0.5551130000000 1.0
C      1  0.5077700000000  0.4390130000000  0.5551170000000 1.0
C      1  0.4376940000000  0.4442320000000  0.5053430000000 1.0
C      1  0.4442310000000  0.4946600000000  0.5623060000000 1.0
C      1  0.4946570000000  0.4376950000000  0.5557700000000 1.0
C      1  0.5623060000000  0.5557690000000  0.5053410000000 1.0
C      1  0.4376940000000  0.5557680000000  0.4946550000000 1.0
C      1  0.5623060000000  0.4442320000000  0.4946610000000 1.0
C      1  0.5557670000000  0.5053440000000  0.5623070000000 1.0
C      1  0.4442330000000  0.5053400000000  0.4376930000000 1.0
C      1  0.5557700000000  0.4946560000000  0.4376950000000 1.0
C      1  0.5053410000000  0.5623080000000  0.5557660000000 1.0
C      1  0.4946590000000  0.5623040000000  0.4442300000000 1.0
C      1  0.5053430000000  0.4376920000000  0.4442340000000 1.0
C      1  0.5544050000000  0.4471130000000  0.5183400000000 1.0
C      1  0.4471110000000  0.5183390000000  0.5544040000000 1.0
C      1  0.5183380000000  0.5544040000000  0.4471110000000 1.0
C      1  0.4455940000000  0.5528880000000  0.5183350000000 1.0
C      1  0.5544060000000  0.5528870000000  0.4816620000000 1.0
C      1  0.4455950000000  0.4471110000000  0.4816630000000 1.0
C      1  0.5528870000000  0.4816640000000  0.5544070000000 1.0
C      1  0.4471130000000  0.4816610000000  0.4455940000000 1.0
C      1  0.5528890000000  0.5183360000000  0.4455950000000 1.0
C      1  0.4816630000000  0.4455930000000  0.4471140000000 1.0
C      1  0.5183370000000  0.4455960000000  0.5528900000000 1.0
C      1  0.4816610000000  0.5544070000000  0.5528860000000 1.0
C      1  0.5562830000000  0.4460920000000  0.4835370000000 1.0
C      1  0.4460930000000  0.5164640000000  0.4437160000000 1.0
C      1  0.5164650000000  0.5562840000000  0.5539060000000 1.0
C      1  0.4437180000000  0.5539070000000  0.4835320000000 1.0
C      1  0.5562820000000  0.5539090000000  0.5164650000000 1.0
C      1  0.4437170000000  0.4460920000000  0.5164660000000 1.0
C      1  0.5539090000000  0.4835330000000  0.4437190000000 1.0
C      1  0.4460910000000  0.4835360000000  0.5562820000000 1.0
C      1  0.5539070000000  0.5164680000000  0.5562830000000 1.0
C      1  0.4835340000000  0.4437190000000  0.5539100000000 1.0
C      1  0.5164670000000  0.4437160000000  0.4460940000000 1.0
C      1  0.4835350000000  0.5562810000000  0.4460900000000 1.0
C      1  0.4562570000000  0.4513000000000  0.5199640000000 1.0
C      1  0.4513000000000  0.5199610000000  0.4562550000000 1.0
C      1  0.5199640000000  0.4562550000000  0.4513010000000 1.0
C      1  0.5437430000000  0.5487010000000  0.5199620000000 1.0
C      1  0.4562570000000  0.5487000000000  0.4800350000000 1.0
C      1  0.5437430000000  0.4512990000000  0.4800390000000 1.0
C      1  0.5487010000000  0.4800360000000  0.4562580000000 1.0
C      1  0.4512990000000  0.4800380000000  0.5437430000000 1.0
C      1  0.5487000000000  0.5199650000000  0.5437430000000 1.0
C      1  0.4800380000000  0.5437410000000  0.4512980000000 1.0
C      1  0.5199620000000  0.5437450000000  0.5486990000000 1.0
C      1  0.4800360000000  0.4562580000000  0.5487010000000 1.0
C      1  0.4583010000000  0.4525070000000  0.4792060000000 1.0
C      1  0.4525070000000  0.5207960000000  0.5416980000000 1.0
C      1  0.5207940000000  0.4583020000000  0.5474940000000 1.0
C      1  0.5417000000000  0.5474920000000  0.4792050000000 1.0
C      1  0.4583000000000  0.5474930000000  0.5207920000000 1.0
C      1  0.5417000000000  0.4525080000000  0.5207970000000 1.0
C      1  0.5474920000000  0.4792070000000  0.5417010000000 1.0
C      1  0.4525080000000  0.4792040000000  0.4583000000000 1.0
C      1  0.5474930000000  0.5207930000000  0.4583000000000 1.0
C      1  0.4792050000000  0.5417010000000  0.5474910000000 1.0
C      1  0.5207950000000  0.5416980000000  0.4525070000000 1.0
C      1  0.4792060000000  0.4582980000000  0.4525090000000 1.0
C      1  0.4667410000000  0.5318870000000  0.5045400000000 1.0
C      1  0.5318880000000  0.5045410000000  0.4667420000000 1.0
C      1  0.5045410000000  0.4667420000000  0.5318880000000 1.0
C      1  0.5332590000000  0.4681130000000  0.5045440000000 1.0
C      1  0.4667410000000  0.4681130000000  0.4954590000000 1.0
C      1  0.5332590000000  0.5318870000000  0.4954580000000 1.0
C      1  0.4681130000000  0.4954570000000  0.4667410000000 1.0
C      1  0.5318870000000  0.4954590000000  0.5332590000000 1.0
C      1  0.4681120000000  0.5045430000000  0.5332580000000 1.0
C      1  0.4954570000000  0.5332600000000  0.5318860000000 1.0
C      1  0.5045420000000  0.5332580000000  0.4681120000000 1.0
C      1  0.4954590000000  0.4667400000000  0.4681140000000 1.0
C      1  0.4669230000000  0.5311240000000  0.4921100000000 1.0
C      1  0.5311230000000  0.5078900000000  0.5330770000000 1.0
C      1  0.5078890000000  0.4669220000000  0.4688770000000 1.0
C      1  0.5330770000000  0.4688760000000  0.4921130000000 1.0
C      1  0.4669230000000  0.4688760000000  0.5078890000000 1.0
C      1  0.5330770000000  0.5311240000000  0.5078880000000 1.0
C      1  0.4688760000000  0.4921120000000  0.5330770000000 1.0
C      1  0.5311250000000  0.4921100000000  0.4669240000000 1.0
C      1  0.4688770000000  0.5078880000000  0.4669220000000 1.0
C      1  0.4921120000000  0.5330760000000  0.4688750000000 1.0
C      1  0.5078880000000  0.5330780000000  0.5311230000000 1.0
C      1  0.4921110000000  0.4669240000000  0.5311250000000 1.0
C      1  0.4811840000000  0.5298100000000  0.5552630000000 1.0
C      1  0.5298080000000  0.5552640000000  0.4811840000000 1.0
C      1  0.5552640000000  0.4811860000000  0.5298100000000 1.0
C      1  0.5188140000000  0.4701940000000  0.5552660000000 1.0
C      1  0.4811860000000  0.4701900000000  0.4447360000000 1.0
C      1  0.5188160000000  0.5298060000000  0.4447350000000 1.0
C      1  0.4701920000000  0.4447350000000  0.4811870000000 1.0
C      1  0.5298080000000  0.4447360000000  0.5188170000000 1.0
C      1  0.4701920000000  0.5552650000000  0.5188120000000 1.0
C      1  0.4447350000000  0.5188160000000  0.5298060000000 1.0
C      1  0.5552650000000  0.5188140000000  0.4701920000000 1.0
C      1  0.4447360000000  0.4811840000000  0.4701920000000 1.0
C      1  0.4818930000000  0.5313180000000  0.4438870000000 1.0
C      1  0.5313200000000  0.5561130000000  0.5181070000000 1.0
C      1  0.5561120000000  0.4818910000000  0.4686810000000 1.0
C      1  0.5181090000000  0.4686780000000  0.4438890000000 1.0
C      1  0.4818910000000  0.4686820000000  0.5561130000000 1.0
C      1  0.5181070000000  0.5313220000000  0.5561110000000 1.0
C      1  0.4686800000000  0.4438890000000  0.5181090000000 1.0
C      1  0.5313210000000  0.4438880000000  0.4818940000000 1.0
C      1  0.4686800000000  0.5561110000000  0.4818900000000 1.0
C      1  0.4438890000000  0.5181070000000  0.4686780000000 1.0
C      1  0.5561110000000  0.5181090000000  0.5313200000000 1.0
C      1  0.4438880000000  0.4818930000000  0.5313200000000 1.0
C      1  0.4812750000000  0.4469620000000  0.5241330000000 1.0
C      1  0.4469620000000  0.5241310000000  0.4812740000000 1.0
C      1  0.5241320000000  0.4812740000000  0.4469620000000 1.0
C      1  0.5187240000000  0.5530390000000  0.5241300000000 1.0
C      1  0.4812760000000  0.5530380000000  0.4758670000000 1.0
C      1  0.5187250000000  0.4469610000000  0.4758710000000 1.0
C      1  0.5530390000000  0.4758680000000  0.4812770000000 1.0
C      1  0.4469610000000  0.4758690000000  0.5187240000000 1.0
C      1  0.5530380000000  0.5241320000000  0.5187240000000 1.0
C      1  0.4758690000000  0.5187220000000  0.4469600000000 1.0
C      1  0.5241310000000  0.5187260000000  0.5530380000000 1.0
C      1  0.4758680000000  0.4812770000000  0.5530390000000 1.0
C      1  0.4830590000000  0.4481330000000  0.4761230000000 1.0
C      1  0.4481330000000  0.5238790000000  0.5169400000000 1.0
C      1  0.5238780000000  0.4830600000000  0.5518670000000 1.0
C      1  0.5169420000000  0.5518660000000  0.4761200000000 1.0
C      1  0.4830580000000  0.5518670000000  0.5238760000000 1.0
C      1  0.5169410000000  0.4481340000000  0.5238800000000 1.0
C      1  0.5518660000000  0.4761220000000  0.5169430000000 1.0
C      1  0.4481340000000  0.4761210000000  0.4830590000000 1.0
C      1  0.5518670000000  0.5238780000000  0.4830590000000 1.0
C      1  0.4761210000000  0.5169430000000  0.5518650000000 1.0
C      1  0.5238790000000  0.5169400000000  0.4481330000000 1.0
C      1  0.4761220000000  0.4830570000000  0.4481340000000 1.0
C      1  0.5672610000000  0.4926730000000  0.5135420000000 1.0
C      1  0.4926710000000  0.5135430000000  0.5672610000000 1.0
C      1  0.5135410000000  0.5672610000000  0.4926700000000 1.0
C      1  0.4327380000000  0.5073280000000  0.5135390000000 1.0
C      1  0.5672610000000  0.5073280000000  0.4864600000000 1.0
C      1  0.4327390000000  0.4926710000000  0.4864580000000 1.0
C      1  0.5073270000000  0.4864610000000  0.5672620000000 1.0
C      1  0.4926730000000  0.4864570000000  0.4327390000000 1.0
C      1  0.5073290000000  0.5135390000000  0.4327380000000 1.0
C      1  0.4864590000000  0.4327380000000  0.4926740000000 1.0
C      1  0.5135410000000  0.4327390000000  0.5073300000000 1.0
C      1  0.4864590000000  0.5672620000000  0.5073260000000 1.0
C      1  0.5676600000000  0.4930730000000  0.4859370000000 1.0
C      1  0.4930750000000  0.5140620000000  0.4323400000000 1.0
C      1  0.5140640000000  0.5676600000000  0.5069240000000 1.0
C      1  0.4323400000000  0.5069260000000  0.4859350000000 1.0
C      1  0.5676600000000  0.5069270000000  0.5140650000000 1.0
C      1  0.4323400000000  0.4930740000000  0.5140630000000 1.0
C      1  0.5069280000000  0.4859340000000  0.4323410000000 1.0
C      1  0.4930720000000  0.4859380000000  0.5676600000000 1.0
C      1  0.5069250000000  0.5140660000000  0.5676590000000 1.0
C      1  0.4859360000000  0.4323400000000  0.5069280000000 1.0
C      1  0.5140640000000  0.4323400000000  0.4930760000000 1.0
C      1  0.4859360000000  0.5676600000000  0.4930710000000 1.0
END
