TITL C-114179-1211-9 -9.17719160898529 1000000 -1627.76340848957 0 0 240 (Th) n - 1
REM
REM in /home/chem/mssmkc/work/GAP20/Larger-Clusters/Only-C240/New/BUILD-ONLY
REM
REM
REM
REM
REM
REM ./C.cell (daee87de7206da95283bc1c1416dbc6f)
REM
REM compiler GCC version 8.3.0
REM options -cpp -mtune=generic -march=x86-64 -g -O0
REM seed 1950705824 1785025692 338538013 987456706 -209919239 -1442602456 681240539 -104466817 -1785134842 508789824 -1917360219 -1324864560 1695999392 869442446 1267643664 -1646296976 1705892181 710277811 -684624411 -1367719420 253221656 -1637421734 1520054174 125008439 1994916374 623035339 1737028970 -377566102 -723394265 1058614677 -531143450 558644558 -1289634241
REM
CELL 1.54180  100.00000  100.00000  100.00000   90.00000   90.00000   90.00000
LATT -1
SFAC C  
C      1  0.4928960000000  0.4867140000000  0.5387520000000 1.0
C      1  0.5387520000000  0.4928950000000  0.4867140000000 1.0
C      1  0.4867140000000  0.5387520000000  0.4928960000000 1.0
C      1  0.4928950000000  0.5132860000000  0.4612480000000 1.0
C      1  0.5071050000000  0.5132860000000  0.5387520000000 1.0
C      1  0.5071040000000  0.4867140000000  0.4612480000000 1.0
C      1  0.5387520000000  0.5071040000000  0.5132860000000 1.0
C      1  0.4612480000000  0.5071050000000  0.4867150000000 1.0
C      1  0.4612480000000  0.4928960000000  0.5132860000000 1.0
C      1  0.4867140000000  0.4612480000000  0.5071040000000 1.0
C      1  0.5132850000000  0.4612480000000  0.4928950000000 1.0
C      1  0.5132860000000  0.5387520000000  0.5071050000000 1.0
C      1  0.5071050000000  0.4867140000000  0.5387520000000 1.0
C      1  0.4612480000000  0.4928960000000  0.4867140000000 1.0
C      1  0.5132860000000  0.5387520000000  0.4928960000000 1.0
C      1  0.5071040000000  0.5132860000000  0.4612480000000 1.0
C      1  0.4928960000000  0.5132860000000  0.5387520000000 1.0
C      1  0.4928950000000  0.4867140000000  0.4612480000000 1.0
C      1  0.4612480000000  0.5071050000000  0.5132860000000 1.0
C      1  0.5387520000000  0.5071040000000  0.4867140000000 1.0
C      1  0.5387520000000  0.4928950000000  0.5132850000000 1.0
C      1  0.5132860000000  0.4612480000000  0.5071040000000 1.0
C      1  0.4867140000000  0.4612480000000  0.4928950000000 1.0
C      1  0.4867150000000  0.5387520000000  0.5071050000000 1.0
C      1  0.4535090000000  0.4694840000000  0.4842940000000 1.0
C      1  0.4842930000000  0.4535090000000  0.4694840000000 1.0
C      1  0.4694830000000  0.4842940000000  0.4535090000000 1.0
C      1  0.4535100000000  0.5305170000000  0.5157070000000 1.0
C      1  0.5464910000000  0.5305160000000  0.4842930000000 1.0
C      1  0.5464910000000  0.4694830000000  0.5157060000000 1.0
C      1  0.4842940000000  0.5464910000000  0.5305170000000 1.0
C      1  0.5157070000000  0.5464910000000  0.4694840000000 1.0
C      1  0.5157060000000  0.4535090000000  0.5305160000000 1.0
C      1  0.4694840000000  0.5157070000000  0.5464910000000 1.0
C      1  0.5305160000000  0.5157060000000  0.4535090000000 1.0
C      1  0.5305170000000  0.4842930000000  0.5464910000000 1.0
C      1  0.5464900000000  0.4694830000000  0.4842930000000 1.0
C      1  0.5157060000000  0.4535090000000  0.4694830000000 1.0
C      1  0.5305160000000  0.4842930000000  0.4535090000000 1.0
C      1  0.5464910000000  0.5305160000000  0.5157060000000 1.0
C      1  0.4535090000000  0.5305170000000  0.4842940000000 1.0
C      1  0.4535090000000  0.4694840000000  0.5157070000000 1.0
C      1  0.5157070000000  0.5464910000000  0.5305160000000 1.0
C      1  0.4842940000000  0.5464910000000  0.4694840000000 1.0
C      1  0.4842930000000  0.4535090000000  0.5305160000000 1.0
C      1  0.5305170000000  0.5157060000000  0.5464910000000 1.0
C      1  0.4694830000000  0.5157070000000  0.4535090000000 1.0
C      1  0.4694840000000  0.4842940000000  0.5464910000000 1.0
C      1  0.4925050000000  0.4741400000000  0.5308940000000 1.0
C      1  0.5308940000000  0.4925050000000  0.4741400000000 1.0
C      1  0.4741400000000  0.5308940000000  0.4925060000000 1.0
C      1  0.4925050000000  0.5258600000000  0.4691060000000 1.0
C      1  0.5074950000000  0.5258600000000  0.5308940000000 1.0
C      1  0.5074940000000  0.4741400000000  0.4691060000000 1.0
C      1  0.5308940000000  0.5074940000000  0.5258600000000 1.0
C      1  0.4691060000000  0.5074950000000  0.4741400000000 1.0
C      1  0.4691060000000  0.4925050000000  0.5258600000000 1.0
C      1  0.4741400000000  0.4691060000000  0.5074950000000 1.0
C      1  0.5258590000000  0.4691060000000  0.4925050000000 1.0
C      1  0.5258600000000  0.5308940000000  0.5074950000000 1.0
C      1  0.5074950000000  0.4741400000000  0.5308940000000 1.0
C      1  0.4691060000000  0.4925060000000  0.4741400000000 1.0
C      1  0.5258600000000  0.5308940000000  0.4925050000000 1.0
C      1  0.5074950000000  0.5258600000000  0.4691060000000 1.0
C      1  0.4925060000000  0.5258600000000  0.5308940000000 1.0
C      1  0.4925050000000  0.4741400000000  0.4691060000000 1.0
C      1  0.4691060000000  0.5074950000000  0.5258600000000 1.0
C      1  0.5308940000000  0.5074950000000  0.4741400000000 1.0
C      1  0.5308940000000  0.4925050000000  0.5258600000000 1.0
C      1  0.5258600000000  0.4691060000000  0.5074940000000 1.0
C      1  0.4741400000000  0.4691060000000  0.4925050000000 1.0
C      1  0.4741410000000  0.5308940000000  0.5074950000000 1.0
C      1  0.4914260000000  0.5384540000000  0.5403720000000 1.0
C      1  0.5403720000000  0.4914240000000  0.5384530000000 1.0
C      1  0.5384540000000  0.5403720000000  0.4914250000000 1.0
C      1  0.4914240000000  0.4615470000000  0.4596280000000 1.0
C      1  0.5085750000000  0.4615460000000  0.5403720000000 1.0
C      1  0.5085750000000  0.5384540000000  0.4596280000000 1.0
C      1  0.5403720000000  0.5085750000000  0.4615460000000 1.0
C      1  0.4596280000000  0.5085750000000  0.5384540000000 1.0
C      1  0.4596270000000  0.4914260000000  0.4615470000000 1.0
C      1  0.5384530000000  0.4596270000000  0.5085750000000 1.0
C      1  0.4615460000000  0.4596280000000  0.4914250000000 1.0
C      1  0.4615470000000  0.5403730000000  0.5085760000000 1.0
C      1  0.5085760000000  0.5384530000000  0.5403720000000 1.0
C      1  0.4596280000000  0.4914250000000  0.5384540000000 1.0
C      1  0.4615470000000  0.5403730000000  0.4914250000000 1.0
C      1  0.5085740000000  0.4615460000000  0.4596280000000 1.0
C      1  0.4914250000000  0.4615460000000  0.5403720000000 1.0
C      1  0.4914250000000  0.5384540000000  0.4596280000000 1.0
C      1  0.4596270000000  0.5085760000000  0.4615470000000 1.0
C      1  0.5403730000000  0.5085740000000  0.5384530000000 1.0
C      1  0.5403720000000  0.4914250000000  0.4615460000000 1.0
C      1  0.4615460000000  0.4596280000000  0.5085750000000 1.0
C      1  0.5384530000000  0.4596270000000  0.4914240000000 1.0
C      1  0.5384540000000  0.5403720000000  0.5085750000000 1.0
C      1  0.5285830000000  0.5501080000000  0.4714910000000 1.0
C      1  0.4714920000000  0.5285830000000  0.5501090000000 1.0
C      1  0.5501080000000  0.4714910000000  0.5285830000000 1.0
C      1  0.5285830000000  0.4498910000000  0.5285080000000 1.0
C      1  0.4714160000000  0.4498920000000  0.4714910000000 1.0
C      1  0.4714180000000  0.5501090000000  0.5285090000000 1.0
C      1  0.4714910000000  0.4714170000000  0.4498920000000 1.0
C      1  0.5285090000000  0.4714160000000  0.5501080000000 1.0
C      1  0.5285090000000  0.5285830000000  0.4498920000000 1.0
C      1  0.5501080000000  0.5285080000000  0.4714160000000 1.0
C      1  0.4498920000000  0.5285090000000  0.5285840000000 1.0
C      1  0.4498910000000  0.4714920000000  0.4714170000000 1.0
C      1  0.4714170000000  0.5501090000000  0.4714920000000 1.0
C      1  0.5285090000000  0.5285830000000  0.5501080000000 1.0
C      1  0.4498920000000  0.4714920000000  0.5285840000000 1.0
C      1  0.4714170000000  0.4498920000000  0.5285090000000 1.0
C      1  0.5285820000000  0.4498910000000  0.4714910000000 1.0
C      1  0.5285840000000  0.5501080000000  0.5285090000000 1.0
C      1  0.5285080000000  0.4714170000000  0.4498910000000 1.0
C      1  0.4714910000000  0.4714170000000  0.5501080000000 1.0
C      1  0.4714910000000  0.5285840000000  0.4498920000000 1.0
C      1  0.4498920000000  0.5285090000000  0.4714170000000 1.0
C      1  0.5501090000000  0.5285080000000  0.5285830000000 1.0
C      1  0.5501080000000  0.4714910000000  0.4714160000000 1.0
C      1  0.5627680000000  0.4927790000000  0.5301900000000 1.0
C      1  0.5301910000000  0.5627680000000  0.4927800000000 1.0
C      1  0.4927810000000  0.5301900000000  0.5627680000000 1.0
C      1  0.5627680000000  0.5072190000000  0.4698090000000 1.0
C      1  0.4372320000000  0.5072210000000  0.5301910000000 1.0
C      1  0.4372320000000  0.4927810000000  0.4698100000000 1.0
C      1  0.5301900000000  0.4372320000000  0.5072190000000 1.0
C      1  0.4698090000000  0.4372320000000  0.4927800000000 1.0
C      1  0.4698100000000  0.5627680000000  0.5072200000000 1.0
C      1  0.4927790000000  0.4698100000000  0.4372320000000 1.0
C      1  0.5072200000000  0.4698090000000  0.5627680000000 1.0
C      1  0.5072200000000  0.5301910000000  0.4372320000000 1.0
C      1  0.4372320000000  0.4927810000000  0.5301910000000 1.0
C      1  0.4698100000000  0.5627680000000  0.4927810000000 1.0
C      1  0.5072210000000  0.5301900000000  0.5627680000000 1.0
C      1  0.4372320000000  0.5072210000000  0.4698100000000 1.0
C      1  0.5627680000000  0.5072190000000  0.5301900000000 1.0
C      1  0.5627680000000  0.4927800000000  0.4698090000000 1.0
C      1  0.4698090000000  0.4372320000000  0.5072200000000 1.0
C      1  0.5301900000000  0.4372320000000  0.4927800000000 1.0
C      1  0.5301910000000  0.5627680000000  0.5072200000000 1.0
C      1  0.5072190000000  0.4698100000000  0.4372320000000 1.0
C      1  0.4927800000000  0.4698090000000  0.5627680000000 1.0
C      1  0.4927800000000  0.5301910000000  0.4372320000000 1.0
C      1  0.5342620000000  0.5525390000000  0.5158480000000 1.0
C      1  0.5158490000000  0.5342610000000  0.5525390000000 1.0
C      1  0.5525400000000  0.5158470000000  0.5342610000000 1.0
C      1  0.5342610000000  0.4474600000000  0.4841520000000 1.0
C      1  0.4657380000000  0.4474610000000  0.5158480000000 1.0
C      1  0.4657390000000  0.5525400000000  0.4841530000000 1.0
C      1  0.5158470000000  0.4657380000000  0.4474600000000 1.0
C      1  0.4841520000000  0.4657380000000  0.5525390000000 1.0
C      1  0.4841520000000  0.5342620000000  0.4474610000000 1.0
C      1  0.5525390000000  0.4841520000000  0.4657380000000 1.0
C      1  0.4474610000000  0.4841520000000  0.5342620000000 1.0
C      1  0.4474610000000  0.5158490000000  0.4657390000000 1.0
C      1  0.4657390000000  0.5525400000000  0.5158480000000 1.0
C      1  0.4841530000000  0.5342620000000  0.5525400000000 1.0
C      1  0.4474610000000  0.5158480000000  0.5342620000000 1.0
C      1  0.4657380000000  0.4474610000000  0.4841520000000 1.0
C      1  0.5342610000000  0.4474600000000  0.5158470000000 1.0
C      1  0.5342620000000  0.5525390000000  0.4841520000000 1.0
C      1  0.4841510000000  0.4657390000000  0.4474610000000 1.0
C      1  0.5158480000000  0.4657380000000  0.5525390000000 1.0
C      1  0.5158480000000  0.5342620000000  0.4474610000000 1.0
C      1  0.4474600000000  0.4841530000000  0.4657390000000 1.0
C      1  0.5525400000000  0.4841510000000  0.5342610000000 1.0
C      1  0.5525390000000  0.5158480000000  0.4657380000000 1.0
C      1  0.4930230000000  0.4365340000000  0.4859140000000 1.0
C      1  0.4859140000000  0.4930240000000  0.4365340000000 1.0
C      1  0.4365330000000  0.4859150000000  0.4930240000000 1.0
C      1  0.4930240000000  0.5634660000000  0.5140860000000 1.0
C      1  0.5069770000000  0.5634660000000  0.4859140000000 1.0
C      1  0.5069760000000  0.4365340000000  0.5140860000000 1.0
C      1  0.4859150000000  0.5069770000000  0.5634660000000 1.0
C      1  0.5140850000000  0.5069770000000  0.4365340000000 1.0
C      1  0.5140860000000  0.4930230000000  0.5634660000000 1.0
C      1  0.4365340000000  0.5140870000000  0.5069770000000 1.0
C      1  0.5634660000000  0.5140850000000  0.4930230000000 1.0
C      1  0.5634660000000  0.4859130000000  0.5069760000000 1.0
C      1  0.5069760000000  0.4365340000000  0.4859140000000 1.0
C      1  0.5140850000000  0.4930230000000  0.4365340000000 1.0
C      1  0.5634660000000  0.4859140000000  0.4930230000000 1.0
C      1  0.5069770000000  0.5634660000000  0.5140860000000 1.0
C      1  0.4930240000000  0.5634660000000  0.4859140000000 1.0
C      1  0.4930230000000  0.4365340000000  0.5140860000000 1.0
C      1  0.5140860000000  0.5069760000000  0.5634660000000 1.0
C      1  0.4859140000000  0.5069770000000  0.4365340000000 1.0
C      1  0.4859150000000  0.4930230000000  0.5634660000000 1.0
C      1  0.5634670000000  0.5140850000000  0.5069760000000 1.0
C      1  0.4365340000000  0.5140870000000  0.4930240000000 1.0
C      1  0.4365340000000  0.4859150000000  0.5069770000000 1.0
C      1  0.5078220000000  0.5481560000000  0.4825530000000 1.0
C      1  0.4825530000000  0.5078220000000  0.5481560000000 1.0
C      1  0.5481560000000  0.4825520000000  0.5078220000000 1.0
C      1  0.5078220000000  0.4518440000000  0.5174470000000 1.0
C      1  0.4921770000000  0.4518440000000  0.4825530000000 1.0
C      1  0.4921790000000  0.5481560000000  0.5174470000000 1.0
C      1  0.4825520000000  0.4921780000000  0.4518440000000 1.0
C      1  0.5174470000000  0.4921780000000  0.5481560000000 1.0
C      1  0.5174470000000  0.5078220000000  0.4518440000000 1.0
C      1  0.5481560000000  0.5174470000000  0.4921780000000 1.0
C      1  0.4518440000000  0.5174480000000  0.5078230000000 1.0
C      1  0.4518440000000  0.4825530000000  0.4921780000000 1.0
C      1  0.4921780000000  0.5481560000000  0.4825530000000 1.0
C      1  0.5174480000000  0.5078220000000  0.5481560000000 1.0
C      1  0.4518440000000  0.4825530000000  0.5078220000000 1.0
C      1  0.4921780000000  0.4518440000000  0.5174470000000 1.0
C      1  0.5078210000000  0.4518440000000  0.4825530000000 1.0
C      1  0.5078230000000  0.5481560000000  0.5174470000000 1.0
C      1  0.5174470000000  0.4921780000000  0.4518440000000 1.0
C      1  0.4825530000000  0.4921780000000  0.5481560000000 1.0
C      1  0.4825530000000  0.5078220000000  0.4518440000000 1.0
C      1  0.4518440000000  0.5174480000000  0.4921780000000 1.0
C      1  0.5481560000000  0.5174470000000  0.5078220000000 1.0
C      1  0.5481560000000  0.4825520000000  0.4921770000000 1.0
C      1  0.5073410000000  0.4827760000000  0.5699480000000 1.0
C      1  0.5699480000000  0.5073400000000  0.4827750000000 1.0
C      1  0.4827770000000  0.5699480000000  0.5073410000000 1.0
C      1  0.5073400000000  0.5172240000000  0.4300520000000 1.0
C      1  0.4926600000000  0.5172240000000  0.5699480000000 1.0
C      1  0.4926590000000  0.4827760000000  0.4300520000000 1.0
C      1  0.5699480000000  0.4926590000000  0.5172230000000 1.0
C      1  0.4300520000000  0.4926600000000  0.4827770000000 1.0
C      1  0.4300520000000  0.5073410000000  0.5172250000000 1.0
C      1  0.4827750000000  0.4300520000000  0.4926590000000 1.0
C      1  0.5172230000000  0.4300520000000  0.5073400000000 1.0
C      1  0.5172250000000  0.5699480000000  0.4926600000000 1.0
C      1  0.4926600000000  0.4827760000000  0.5699480000000 1.0
C      1  0.4300520000000  0.5073410000000  0.4827770000000 1.0
C      1  0.5172250000000  0.5699480000000  0.5073410000000 1.0
C      1  0.4926590000000  0.5172240000000  0.4300520000000 1.0
C      1  0.5073410000000  0.5172240000000  0.5699480000000 1.0
C      1  0.5073400000000  0.4827760000000  0.4300520000000 1.0
C      1  0.4300520000000  0.4926600000000  0.5172250000000 1.0
C      1  0.5699480000000  0.4926590000000  0.4827750000000 1.0
C      1  0.5699480000000  0.5073400000000  0.5172230000000 1.0
C      1  0.5172230000000  0.4300520000000  0.4926590000000 1.0
C      1  0.4827750000000  0.4300520000000  0.5073400000000 1.0
C      1  0.4827770000000  0.5699480000000  0.4926600000000 1.0
END
