TITL C-114178-678-17 -164.382877665939 1000000 -1795.90444567611 0 0 240 (Th) n - 1
REM
REM in /home/chem/mssmkc/work/GAP20/Larger-Clusters/Only-C240/New/BUILD-ONLY
REM
REM
REM
REM
REM
REM ./C.cell (daee87de7206da95283bc1c1416dbc6f)
REM
REM compiler GCC version 8.3.0
REM options -cpp -mtune=generic -march=x86-64 -g -O0
REM seed 1340442774 1294385086 -1821125721 1283438591 -731781266 1195085951 -1629435714 2110328638 -753830383 1095160453 -1968172489 -52550708 -2081060670 1672118801 476496147 522649971 1267170015 -522319347 -795654533 -172334824 -860440476 536045780 -2114327982 -1375341761 296666077 898130761 -278683709 -1669884560 -1168022475 -184074281 -2072094592 -1545808658 1909341500
REM
CELL 1.54180  100.00000  100.00000  100.00000   90.00000   90.00000   90.00000
LATT -1
SFAC C  
C      1  0.5493390000000  0.4703420000000  0.4643540000000 1.0
C      1  0.4703420000000  0.4643550000000  0.5493390000000 1.0
C      1  0.4643540000000  0.5493390000000  0.4703420000000 1.0
C      1  0.4506610000000  0.5296580000000  0.4643540000000 1.0
C      1  0.5493390000000  0.5296580000000  0.5356450000000 1.0
C      1  0.4506610000000  0.4703420000000  0.5356460000000 1.0
C      1  0.5296580000000  0.5356460000000  0.5493390000000 1.0
C      1  0.4703420000000  0.5356450000000  0.4506610000000 1.0
C      1  0.5296580000000  0.4643540000000  0.4506610000000 1.0
C      1  0.5356450000000  0.4506610000000  0.4703420000000 1.0
C      1  0.4643540000000  0.4506610000000  0.5296580000000 1.0
C      1  0.5356460000000  0.5493390000000  0.5296580000000 1.0
C      1  0.5493390000000  0.4703420000000  0.5356460000000 1.0
C      1  0.4703420000000  0.4643540000000  0.4506610000000 1.0
C      1  0.4643550000000  0.5493390000000  0.5296580000000 1.0
C      1  0.4506610000000  0.5296580000000  0.5356460000000 1.0
C      1  0.5493390000000  0.5296580000000  0.4643540000000 1.0
C      1  0.4506610000000  0.4703420000000  0.4643550000000 1.0
C      1  0.5296580000000  0.5356450000000  0.4506610000000 1.0
C      1  0.4703420000000  0.5356460000000  0.5493390000000 1.0
C      1  0.5296580000000  0.4643550000000  0.5493390000000 1.0
C      1  0.5356460000000  0.4506610000000  0.5296580000000 1.0
C      1  0.4643540000000  0.4506610000000  0.4703420000000 1.0
C      1  0.5356450000000  0.5493390000000  0.4703410000000 1.0
C      1  0.5466100000000  0.4595190000000  0.5271640000000 1.0
C      1  0.4595190000000  0.5271640000000  0.5466100000000 1.0
C      1  0.5271640000000  0.5466100000000  0.4595180000000 1.0
C      1  0.4533900000000  0.5404820000000  0.5271640000000 1.0
C      1  0.5466100000000  0.5404810000000  0.4728360000000 1.0
C      1  0.4533900000000  0.4595180000000  0.4728360000000 1.0
C      1  0.5404820000000  0.4728360000000  0.5466100000000 1.0
C      1  0.4595180000000  0.4728360000000  0.4533900000000 1.0
C      1  0.5404810000000  0.5271640000000  0.4533900000000 1.0
C      1  0.4728360000000  0.4533900000000  0.4595190000000 1.0
C      1  0.5271640000000  0.4533900000000  0.5404820000000 1.0
C      1  0.4728360000000  0.5466100000000  0.5404810000000 1.0
C      1  0.5466100000000  0.4595180000000  0.4728360000000 1.0
C      1  0.4595180000000  0.5271640000000  0.4533900000000 1.0
C      1  0.5271640000000  0.5466100000000  0.5404810000000 1.0
C      1  0.4533900000000  0.5404810000000  0.4728360000000 1.0
C      1  0.5466100000000  0.5404820000000  0.5271640000000 1.0
C      1  0.4533900000000  0.4595190000000  0.5271640000000 1.0
C      1  0.5404810000000  0.4728360000000  0.4533900000000 1.0
C      1  0.4595180000000  0.4728360000000  0.5466100000000 1.0
C      1  0.5404820000000  0.5271640000000  0.5466100000000 1.0
C      1  0.4728360000000  0.4533900000000  0.5404820000000 1.0
C      1  0.5271640000000  0.4533900000000  0.4595190000000 1.0
C      1  0.4728360000000  0.5466100000000  0.4595180000000 1.0
C      1  0.4929490000000  0.5251080000000  0.4769920000000 1.0
C      1  0.5251080000000  0.4769920000000  0.4929490000000 1.0
C      1  0.4769920000000  0.4929490000000  0.5251080000000 1.0
C      1  0.5070510000000  0.4748920000000  0.4769920000000 1.0
C      1  0.4929490000000  0.4748920000000  0.5230080000000 1.0
C      1  0.5070520000000  0.5251080000000  0.5230080000000 1.0
C      1  0.4748920000000  0.5230080000000  0.4929490000000 1.0
C      1  0.5251080000000  0.5230080000000  0.5070510000000 1.0
C      1  0.4748920000000  0.4769920000000  0.5070510000000 1.0
C      1  0.5230080000000  0.5070510000000  0.5251080000000 1.0
C      1  0.4769920000000  0.5070510000000  0.4748920000000 1.0
C      1  0.5230080000000  0.4929490000000  0.4748920000000 1.0
C      1  0.4929490000000  0.5251080000000  0.5230080000000 1.0
C      1  0.5251080000000  0.4769920000000  0.5070510000000 1.0
C      1  0.4769920000000  0.4929490000000  0.4748920000000 1.0
C      1  0.5070510000000  0.4748920000000  0.5230080000000 1.0
C      1  0.4929490000000  0.4748920000000  0.4769920000000 1.0
C      1  0.5070510000000  0.5251080000000  0.4769920000000 1.0
C      1  0.4748920000000  0.5230080000000  0.5070510000000 1.0
C      1  0.5251080000000  0.5230080000000  0.4929490000000 1.0
C      1  0.4748920000000  0.4769920000000  0.4929490000000 1.0
C      1  0.5230080000000  0.5070510000000  0.4748920000000 1.0
C      1  0.4769920000000  0.5070510000000  0.5251080000000 1.0
C      1  0.5230080000000  0.4929490000000  0.5251080000000 1.0
C      1  0.5173750000000  0.5305680000000  0.5543700000000 1.0
C      1  0.5305670000000  0.5543700000000  0.5173750000000 1.0
C      1  0.5543700000000  0.5173760000000  0.5305670000000 1.0
C      1  0.4826250000000  0.4694330000000  0.5543700000000 1.0
C      1  0.5173750000000  0.4694330000000  0.4456300000000 1.0
C      1  0.4826250000000  0.5305670000000  0.4456300000000 1.0
C      1  0.4694330000000  0.4456300000000  0.5173760000000 1.0
C      1  0.5305670000000  0.4456300000000  0.4826250000000 1.0
C      1  0.4694330000000  0.5543700000000  0.4826240000000 1.0
C      1  0.4456300000000  0.4826250000000  0.5305670000000 1.0
C      1  0.5543700000000  0.4826240000000  0.4694330000000 1.0
C      1  0.4456300000000  0.5173750000000  0.4694330000000 1.0
C      1  0.5173750000000  0.5305670000000  0.4456300000000 1.0
C      1  0.5305670000000  0.5543700000000  0.4826240000000 1.0
C      1  0.5543700000000  0.5173750000000  0.4694330000000 1.0
C      1  0.4826250000000  0.4694330000000  0.4456300000000 1.0
C      1  0.5173750000000  0.4694330000000  0.5543700000000 1.0
C      1  0.4826250000000  0.5305670000000  0.5543700000000 1.0
C      1  0.4694330000000  0.4456300000000  0.4826250000000 1.0
C      1  0.5305670000000  0.4456300000000  0.5173760000000 1.0
C      1  0.4694330000000  0.5543700000000  0.5173750000000 1.0
C      1  0.4456300000000  0.4826250000000  0.4694330000000 1.0
C      1  0.5543700000000  0.4826250000000  0.5305670000000 1.0
C      1  0.4456300000000  0.5173760000000  0.5305670000000 1.0
C      1  0.4452110000000  0.5284080000000  0.5071850000000 1.0
C      1  0.5284080000000  0.5071850000000  0.4452110000000 1.0
C      1  0.5071850000000  0.4452110000000  0.5284080000000 1.0
C      1  0.5547890000000  0.4715920000000  0.5071850000000 1.0
C      1  0.4452110000000  0.4715920000000  0.4928150000000 1.0
C      1  0.5547890000000  0.5284080000000  0.4928140000000 1.0
C      1  0.4715920000000  0.4928140000000  0.4452110000000 1.0
C      1  0.5284080000000  0.4928150000000  0.5547890000000 1.0
C      1  0.4715920000000  0.5071860000000  0.5547890000000 1.0
C      1  0.4928150000000  0.5547890000000  0.5284080000000 1.0
C      1  0.5071850000000  0.5547890000000  0.4715920000000 1.0
C      1  0.4928150000000  0.4452110000000  0.4715920000000 1.0
C      1  0.4452110000000  0.5284080000000  0.4928150000000 1.0
C      1  0.5284080000000  0.5071860000000  0.5547890000000 1.0
C      1  0.5071850000000  0.4452110000000  0.4715920000000 1.0
C      1  0.5547890000000  0.4715920000000  0.4928150000000 1.0
C      1  0.4452110000000  0.4715920000000  0.5071860000000 1.0
C      1  0.5547890000000  0.5284080000000  0.5071850000000 1.0
C      1  0.4715920000000  0.4928150000000  0.5547890000000 1.0
C      1  0.5284080000000  0.4928140000000  0.4452110000000 1.0
C      1  0.4715920000000  0.5071850000000  0.4452110000000 1.0
C      1  0.4928150000000  0.5547890000000  0.4715920000000 1.0
C      1  0.5071850000000  0.5547890000000  0.5284080000000 1.0
C      1  0.4928150000000  0.4452110000000  0.5284080000000 1.0
C      1  0.5070120000000  0.4601650000000  0.4504930000000 1.0
C      1  0.4601650000000  0.4504930000000  0.5070120000000 1.0
C      1  0.4504930000000  0.5070120000000  0.4601660000000 1.0
C      1  0.4929880000000  0.5398340000000  0.4504920000000 1.0
C      1  0.5070120000000  0.5398350000000  0.5495070000000 1.0
C      1  0.4929880000000  0.4601660000000  0.5495080000000 1.0
C      1  0.5398350000000  0.5495080000000  0.5070120000000 1.0
C      1  0.4601650000000  0.5495070000000  0.4929880000000 1.0
C      1  0.5398350000000  0.4504920000000  0.4929880000000 1.0
C      1  0.5495070000000  0.4929880000000  0.4601650000000 1.0
C      1  0.4504920000000  0.4929880000000  0.5398350000000 1.0
C      1  0.5495080000000  0.5070120000000  0.5398340000000 1.0
C      1  0.5070120000000  0.4601660000000  0.5495080000000 1.0
C      1  0.4601650000000  0.4504920000000  0.4929880000000 1.0
C      1  0.4504930000000  0.5070120000000  0.5398350000000 1.0
C      1  0.4929880000000  0.5398350000000  0.5495070000000 1.0
C      1  0.5070120000000  0.5398340000000  0.4504920000000 1.0
C      1  0.4929880000000  0.4601650000000  0.4504930000000 1.0
C      1  0.5398350000000  0.5495080000000  0.4929880000000 1.0
C      1  0.4601660000000  0.5495080000000  0.5070120000000 1.0
C      1  0.5398350000000  0.4504930000000  0.5070120000000 1.0
C      1  0.5495080000000  0.4929880000000  0.5398350000000 1.0
C      1  0.4504920000000  0.4929880000000  0.4601660000000 1.0
C      1  0.5495070000000  0.5070120000000  0.4601650000000 1.0
C      1  0.5491770000000  0.4598800000000  0.5132100000000 1.0
C      1  0.4598800000000  0.5132100000000  0.5491770000000 1.0
C      1  0.5132100000000  0.5491770000000  0.4598800000000 1.0
C      1  0.4508230000000  0.5401200000000  0.5132100000000 1.0
C      1  0.5491770000000  0.5401200000000  0.4867900000000 1.0
C      1  0.4508230000000  0.4598800000000  0.4867900000000 1.0
C      1  0.5401200000000  0.4867900000000  0.5491770000000 1.0
C      1  0.4598800000000  0.4867900000000  0.4508230000000 1.0
C      1  0.5401200000000  0.5132100000000  0.4508230000000 1.0
C      1  0.4867900000000  0.4508230000000  0.4598810000000 1.0
C      1  0.5132100000000  0.4508230000000  0.5401200000000 1.0
C      1  0.4867900000000  0.5491770000000  0.5401200000000 1.0
C      1  0.5491770000000  0.4598800000000  0.4867900000000 1.0
C      1  0.4598800000000  0.5132100000000  0.4508230000000 1.0
C      1  0.5132100000000  0.5491770000000  0.5401190000000 1.0
C      1  0.4508230000000  0.5401200000000  0.4867900000000 1.0
C      1  0.5491770000000  0.5401200000000  0.5132100000000 1.0
C      1  0.4508230000000  0.4598800000000  0.5132100000000 1.0
C      1  0.5401200000000  0.4867900000000  0.4508230000000 1.0
C      1  0.4598800000000  0.4867900000000  0.5491770000000 1.0
C      1  0.5401200000000  0.5132100000000  0.5491770000000 1.0
C      1  0.4867900000000  0.4508230000000  0.5401200000000 1.0
C      1  0.5132100000000  0.4508230000000  0.4598810000000 1.0
C      1  0.4867900000000  0.5491770000000  0.4598800000000 1.0
C      1  0.4847720000000  0.4689540000000  0.5130950000000 1.0
C      1  0.4689540000000  0.5130950000000  0.4847720000000 1.0
C      1  0.5130950000000  0.4847720000000  0.4689540000000 1.0
C      1  0.5152280000000  0.5310460000000  0.5130950000000 1.0
C      1  0.4847720000000  0.5310460000000  0.4869050000000 1.0
C      1  0.5152280000000  0.4689540000000  0.4869050000000 1.0
C      1  0.5310460000000  0.4869050000000  0.4847720000000 1.0
C      1  0.4689540000000  0.4869050000000  0.5152280000000 1.0
C      1  0.5310460000000  0.5130950000000  0.5152280000000 1.0
C      1  0.4869050000000  0.5152280000000  0.4689540000000 1.0
C      1  0.5130950000000  0.5152280000000  0.5310460000000 1.0
C      1  0.4869050000000  0.4847720000000  0.5310460000000 1.0
C      1  0.4847720000000  0.4689540000000  0.4869050000000 1.0
C      1  0.4689540000000  0.5130950000000  0.5152280000000 1.0
C      1  0.5130950000000  0.4847720000000  0.5310460000000 1.0
C      1  0.5152280000000  0.5310460000000  0.4869050000000 1.0
C      1  0.4847720000000  0.5310460000000  0.5130950000000 1.0
C      1  0.5152280000000  0.4689540000000  0.5130950000000 1.0
C      1  0.5310460000000  0.4869050000000  0.5152280000000 1.0
C      1  0.4689540000000  0.4869050000000  0.4847720000000 1.0
C      1  0.5310460000000  0.5130950000000  0.4847720000000 1.0
C      1  0.4869050000000  0.5152280000000  0.5310460000000 1.0
C      1  0.5130950000000  0.5152280000000  0.4689540000000 1.0
C      1  0.4869050000000  0.4847720000000  0.4689540000000 1.0
C      1  0.4839840000000  0.4451720000000  0.4834290000000 1.0
C      1  0.4451720000000  0.4834290000000  0.4839840000000 1.0
C      1  0.4834290000000  0.4839840000000  0.4451730000000 1.0
C      1  0.5160160000000  0.5548270000000  0.4834280000000 1.0
C      1  0.4839840000000  0.5548280000000  0.5165710000000 1.0
C      1  0.5160160000000  0.4451730000000  0.5165720000000 1.0
C      1  0.5548270000000  0.5165710000000  0.4839840000000 1.0
C      1  0.4451730000000  0.5165710000000  0.5160160000000 1.0
C      1  0.5548280000000  0.4834290000000  0.5160160000000 1.0
C      1  0.5165710000000  0.5160160000000  0.4451720000000 1.0
C      1  0.4834290000000  0.5160160000000  0.5548270000000 1.0
C      1  0.5165710000000  0.4839840000000  0.5548280000000 1.0
C      1  0.4839840000000  0.4451730000000  0.5165720000000 1.0
C      1  0.4451720000000  0.4834290000000  0.5160160000000 1.0
C      1  0.4834290000000  0.4839840000000  0.5548280000000 1.0
C      1  0.5160160000000  0.5548280000000  0.5165710000000 1.0
C      1  0.4839840000000  0.5548270000000  0.4834280000000 1.0
C      1  0.5160160000000  0.4451720000000  0.4834290000000 1.0
C      1  0.5548270000000  0.5165710000000  0.5160160000000 1.0
C      1  0.4451730000000  0.5165710000000  0.4839840000000 1.0
C      1  0.5548280000000  0.4834290000000  0.4839840000000 1.0
C      1  0.5165710000000  0.5160170000000  0.5548280000000 1.0
C      1  0.4834290000000  0.5160160000000  0.4451730000000 1.0
C      1  0.5165710000000  0.4839840000000  0.4451720000000 1.0
C      1  0.4865840000000  0.5443730000000  0.4930530000000 1.0
C      1  0.5443730000000  0.4930530000000  0.4865830000000 1.0
C      1  0.4930530000000  0.4865840000000  0.5443730000000 1.0
C      1  0.5134170000000  0.4556270000000  0.4930530000000 1.0
C      1  0.4865840000000  0.4556270000000  0.5069470000000 1.0
C      1  0.5134170000000  0.5443730000000  0.5069470000000 1.0
C      1  0.4556270000000  0.5069470000000  0.4865840000000 1.0
C      1  0.5443730000000  0.5069470000000  0.5134160000000 1.0
C      1  0.4556270000000  0.4930530000000  0.5134170000000 1.0
C      1  0.5069470000000  0.5134170000000  0.5443730000000 1.0
C      1  0.4930530000000  0.5134160000000  0.4556270000000 1.0
C      1  0.5069470000000  0.4865830000000  0.4556270000000 1.0
C      1  0.4865840000000  0.5443730000000  0.5069470000000 1.0
C      1  0.5443730000000  0.4930530000000  0.5134160000000 1.0
C      1  0.4930530000000  0.4865830000000  0.4556270000000 1.0
C      1  0.5134160000000  0.4556270000000  0.5069470000000 1.0
C      1  0.4865840000000  0.4556270000000  0.4930530000000 1.0
C      1  0.5134170000000  0.5443730000000  0.4930530000000 1.0
C      1  0.4556270000000  0.5069470000000  0.5134170000000 1.0
C      1  0.5443730000000  0.5069470000000  0.4865830000000 1.0
C      1  0.4556270000000  0.4930530000000  0.4865840000000 1.0
C      1  0.5069470000000  0.5134160000000  0.4556270000000 1.0
C      1  0.4930530000000  0.5134170000000  0.5443730000000 1.0
C      1  0.5069470000000  0.4865840000000  0.5443730000000 1.0
END
