TITL C-114180-423-29 16.4110184308242 1000000 -1733.77078904575 0 0 240 (C1) n - 1
REM
REM in /home/chem/mssmkc/work/GAP20/Larger-Clusters/Only-C240/New/BUILD-ONLY
REM
REM
REM
REM
REM
REM ./C.cell (daee87de7206da95283bc1c1416dbc6f)
REM
REM compiler GCC version 8.3.0
REM options -cpp -mtune=generic -march=x86-64 -g -O0
REM seed -1435293606 1728263353 -608401595 -1988926473 -1152844772 610395273 1004612990 708034592 -1398269126 662110631 1371564343 856727374 1653828699 -569340886 386362744 -883668813 -312768175 -1316301996 658258808 1429277271 1829428047 1059338443 1223379193 815078805 -48177247 -1734354382 -934725475 -445864242 736323919 1729184855 -289421625 -1905354589 -2005939248
REM
CELL 1.54180  100.00000  100.00000  100.00000   90.00000   90.00000   90.00000
LATT -1
SFAC C  
C      1  0.4954750000000  0.4816410000000  0.4729080000000 1.0
C      1  0.4843450000000  0.4675520000000  0.4899950000000 1.0
C      1  0.4669770000000  0.4938140000000  0.4820910000000 1.0
C      1  0.5036400000000  0.4823480000000  0.5254830000000 1.0
C      1  0.5063170000000  0.5161120000000  0.4661210000000 1.0
C      1  0.4974570000000  0.5122320000000  0.5365030000000 1.0
C      1  0.5136280000000  0.4643600000000  0.5107450000000 1.0
C      1  0.5149090000000  0.5298110000000  0.4941680000000 1.0
C      1  0.4843560000000  0.5354880000000  0.5080240000000 1.0
C      1  0.5248100000000  0.4920020000000  0.5148530000000 1.0
C      1  0.5373830000000  0.5064360000000  0.4858800000000 1.0
C      1  0.4665270000000  0.5049400000000  0.5161100000000 1.0
C      1  0.4668940000000  0.4845330000000  0.4919980000000 1.0
C      1  0.4958940000000  0.4717630000000  0.4828470000000 1.0
C      1  0.4853080000000  0.4888590000000  0.4659070000000 1.0
C      1  0.5332450000000  0.4829370000000  0.5088730000000 1.0
C      1  0.4663450000000  0.5151270000000  0.5065170000000 1.0
C      1  0.5374180000000  0.5118780000000  0.4980040000000 1.0
C      1  0.5027350000000  0.4707010000000  0.5172860000000 1.0
C      1  0.4947780000000  0.5310820000000  0.5150200000000 1.0
C      1  0.5078700000000  0.5349920000000  0.4840680000000 1.0
C      1  0.5140970000000  0.4914410000000  0.5243660000000 1.0
C      1  0.4849950000000  0.5078790000000  0.5370700000000 1.0
C      1  0.5166910000000  0.5071730000000  0.4675250000000 1.0
C      1  0.4613070000000  0.4723250000000  0.4822970000000 1.0
C      1  0.4709220000000  0.4809770000000  0.4598750000000 1.0
C      1  0.4764710000000  0.4577150000000  0.4671890000000 1.0
C      1  0.5394270000000  0.4708790000000  0.5187520000000 1.0
C      1  0.5420980000000  0.5317660000000  0.4777010000000 1.0
C      1  0.4619290000000  0.5272030000000  0.5167870000000 1.0
C      1  0.5337470000000  0.4768100000000  0.5429820000000 1.0
C      1  0.5282430000000  0.5169930000000  0.4623300000000 1.0
C      1  0.4715670000000  0.5178940000000  0.5397980000000 1.0
C      1  0.5233720000000  0.4567040000000  0.5330300000000 1.0
C      1  0.5183490000000  0.5394400000000  0.4712160000000 1.0
C      1  0.4767460000000  0.5416110000000  0.5321620000000 1.0
C      1  0.4762730000000  0.4672070000000  0.4569590000000 1.0
C      1  0.4609530000000  0.4827150000000  0.4708780000000 1.0
C      1  0.4714020000000  0.4612980000000  0.4811950000000 1.0
C      1  0.5241570000000  0.4661330000000  0.5435410000000 1.0
C      1  0.4769710000000  0.5317990000000  0.5421120000000 1.0
C      1  0.5170730000000  0.5281880000000  0.4616360000000 1.0
C      1  0.5424760000000  0.4778020000000  0.5319520000000 1.0
C      1  0.4619720000000  0.5160860000000  0.5280350000000 1.0
C      1  0.5399360000000  0.5180780000000  0.4720550000000 1.0
C      1  0.5287160000000  0.4598200000000  0.5193790000000 1.0
C      1  0.4712610000000  0.5389870000000  0.5181420000000 1.0
C      1  0.5321850000000  0.5417600000000  0.4772010000000 1.0
C      1  0.4985330000000  0.5654340000000  0.5173750000000 1.0
C      1  0.5670500000000  0.5185420000000  0.4998480000000 1.0
C      1  0.5168160000000  0.5010030000000  0.5651520000000 1.0
C      1  0.5001300000000  0.5667900000000  0.4809750000000 1.0
C      1  0.5004200000000  0.4344240000000  0.5173650000000 1.0
C      1  0.4994080000000  0.4346240000000  0.4824850000000 1.0
C      1  0.4328780000000  0.5184880000000  0.5000040000000 1.0
C      1  0.4336880000000  0.4829060000000  0.5002750000000 1.0
C      1  0.5663110000000  0.4822840000000  0.4987280000000 1.0
C      1  0.4816120000000  0.5006370000000  0.4332000000000 1.0
C      1  0.4794500000000  0.4998080000000  0.5682750000000 1.0
C      1  0.5230870000000  0.5002600000000  0.4302310000000 1.0
C      1  0.5167230000000  0.5651270000000  0.4988180000000 1.0
C      1  0.4994800000000  0.5184310000000  0.5668110000000 1.0
C      1  0.5651190000000  0.5013110000000  0.5161120000000 1.0
C      1  0.4801160000000  0.5671890000000  0.5002930000000 1.0
C      1  0.5197890000000  0.4325320000000  0.4994220000000 1.0
C      1  0.4830020000000  0.4354660000000  0.5004360000000 1.0
C      1  0.4999530000000  0.5184350000000  0.4330170000000 1.0
C      1  0.4992880000000  0.4833660000000  0.4347580000000 1.0
C      1  0.4998470000000  0.4819590000000  0.5662060000000 1.0
C      1  0.4295590000000  0.5002920000000  0.4777980000000 1.0
C      1  0.5681260000000  0.4998550000000  0.4805390000000 1.0
C      1  0.4297390000000  0.5005550000000  0.5225020000000 1.0
C      1  0.5512930000000  0.4887670000000  0.5311740000000 1.0
C      1  0.4865340000000  0.5324490000000  0.5526810000000 1.0
C      1  0.5328380000000  0.5524100000000  0.4866310000000 1.0
C      1  0.4478200000000  0.4884480000000  0.4672290000000 1.0
C      1  0.4484180000000  0.5118980000000  0.5323380000000 1.0
C      1  0.5527850000000  0.5118570000000  0.4674990000000 1.0
C      1  0.5120180000000  0.5317760000000  0.4482420000000 1.0
C      1  0.5129050000000  0.4671910000000  0.5523180000000 1.0
C      1  0.4867400000000  0.4673330000000  0.4472180000000 1.0
C      1  0.4664450000000  0.5518500000000  0.5118930000000 1.0
C      1  0.4675480000000  0.4491640000000  0.4889430000000 1.0
C      1  0.5325980000000  0.4479880000000  0.5112870000000 1.0
C      1  0.5322780000000  0.4884380000000  0.5512400000000 1.0
C      1  0.5528010000000  0.5326610000000  0.4870660000000 1.0
C      1  0.4862190000000  0.5522490000000  0.5328270000000 1.0
C      1  0.4673130000000  0.4887930000000  0.4478260000000 1.0
C      1  0.5325240000000  0.5120350000000  0.4487580000000 1.0
C      1  0.4667990000000  0.5117810000000  0.5527930000000 1.0
C      1  0.4485690000000  0.5313410000000  0.5117500000000 1.0
C      1  0.5519560000000  0.4676830000000  0.5108440000000 1.0
C      1  0.4484680000000  0.4691350000000  0.4887080000000 1.0
C      1  0.5119880000000  0.5521770000000  0.4666610000000 1.0
C      1  0.4867490000000  0.4479950000000  0.4671190000000 1.0
C      1  0.5131480000000  0.4469930000000  0.5328760000000 1.0
C      1  0.5327920000000  0.5131450000000  0.5525500000000 1.0
C      1  0.5107390000000  0.5511770000000  0.5317750000000 1.0
C      1  0.5522740000000  0.5330260000000  0.5114470000000 1.0
C      1  0.4675210000000  0.5128640000000  0.4479770000000 1.0
C      1  0.4669300000000  0.4878410000000  0.5524300000000 1.0
C      1  0.5326430000000  0.4884720000000  0.4485690000000 1.0
C      1  0.4882740000000  0.5512800000000  0.4679890000000 1.0
C      1  0.4889230000000  0.4488940000000  0.5319600000000 1.0
C      1  0.5110690000000  0.4487660000000  0.4680760000000 1.0
C      1  0.4479710000000  0.5320450000000  0.4881450000000 1.0
C      1  0.4473240000000  0.4681820000000  0.5131250000000 1.0
C      1  0.5531070000000  0.4669290000000  0.4864490000000 1.0
C      1  0.5529090000000  0.5134410000000  0.5328350000000 1.0
C      1  0.5316120000000  0.5513680000000  0.5110690000000 1.0
C      1  0.5110470000000  0.5326310000000  0.5520190000000 1.0
C      1  0.4478370000000  0.5122120000000  0.4675830000000 1.0
C      1  0.5530810000000  0.4880750000000  0.4667990000000 1.0
C      1  0.4478030000000  0.4886240000000  0.5327470000000 1.0
C      1  0.4675880000000  0.5516540000000  0.4881290000000 1.0
C      1  0.5327110000000  0.4477320000000  0.4868710000000 1.0
C      1  0.4669800000000  0.4481520000000  0.5131430000000 1.0
C      1  0.4882900000000  0.5322310000000  0.4481570000000 1.0
C      1  0.5111200000000  0.4692910000000  0.4490260000000 1.0
C      1  0.4885000000000  0.4682690000000  0.5511950000000 1.0
C      1  0.5405930000000  0.5003190000000  0.4502980000000 1.0
C      1  0.5008030000000  0.4506890000000  0.5393470000000 1.0
C      1  0.4498450000000  0.5396280000000  0.5000630000000 1.0
C      1  0.4592290000000  0.4999300000000  0.5507080000000 1.0
C      1  0.4600330000000  0.5007330000000  0.4501470000000 1.0
C      1  0.5389090000000  0.5006970000000  0.5484700000000 1.0
C      1  0.4991860000000  0.4511680000000  0.4605050000000 1.0
C      1  0.4986850000000  0.5490040000000  0.5392650000000 1.0
C      1  0.4999020000000  0.5496930000000  0.4597050000000 1.0
C      1  0.5494540000000  0.5396470000000  0.4992170000000 1.0
C      1  0.5495740000000  0.4604800000000  0.4989110000000 1.0
C      1  0.4504600000000  0.4616280000000  0.5007960000000 1.0
C      1  0.4497300000000  0.5002490000000  0.5406510000000 1.0
C      1  0.5394990000000  0.4507690000000  0.4991100000000 1.0
C      1  0.5001430000000  0.5397950000000  0.4499860000000 1.0
C      1  0.5508080000000  0.5001580000000  0.4596400000000 1.0
C      1  0.4499390000000  0.5005270000000  0.4596860000000 1.0
C      1  0.5488820000000  0.5008430000000  0.5385030000000 1.0
C      1  0.4602470000000  0.4515000000000  0.5008630000000 1.0
C      1  0.5393640000000  0.5493580000000  0.4990970000000 1.0
C      1  0.4593770000000  0.5497050000000  0.4998450000000 1.0
C      1  0.4987730000000  0.5392430000000  0.5492870000000 1.0
C      1  0.5006570000000  0.4607660000000  0.5491110000000 1.0
C      1  0.4992960000000  0.4613280000000  0.4507600000000 1.0
C      1  0.4380350000000  0.5216030000000  0.5123300000000 1.0
C      1  0.5233060000000  0.5121480000000  0.4378170000000 1.0
C      1  0.5128130000000  0.4380550000000  0.5216930000000 1.0
C      1  0.5627880000000  0.5223670000000  0.4873840000000 1.0
C      1  0.5611350000000  0.4784580000000  0.5107270000000 1.0
C      1  0.4383330000000  0.4793360000000  0.4879810000000 1.0
C      1  0.4765160000000  0.5121440000000  0.5632570000000 1.0
C      1  0.4770560000000  0.4885410000000  0.4377550000000 1.0
C      1  0.5212210000000  0.4890730000000  0.5600570000000 1.0
C      1  0.4873510000000  0.4392310000000  0.4782140000000 1.0
C      1  0.4863480000000  0.5617920000000  0.5222060000000 1.0
C      1  0.5122100000000  0.5623370000000  0.4764580000000 1.0
C      1  0.5123290000000  0.5215610000000  0.4380110000000 1.0
C      1  0.4375530000000  0.5122050000000  0.5231580000000 1.0
C      1  0.5231770000000  0.4374660000000  0.5116230000000 1.0
C      1  0.4869320000000  0.5221310000000  0.5626260000000 1.0
C      1  0.5118870000000  0.4784150000000  0.5608940000000 1.0
C      1  0.4871500000000  0.4784260000000  0.4383500000000 1.0
C      1  0.5632530000000  0.5122070000000  0.4771940000000 1.0
C      1  0.4373620000000  0.4885130000000  0.4769390000000 1.0
C      1  0.5601970000000  0.4891630000000  0.5200490000000 1.0
C      1  0.4776280000000  0.4393460000000  0.4885580000000 1.0
C      1  0.5220080000000  0.5617140000000  0.4867720000000 1.0
C      1  0.4760110000000  0.5622920000000  0.5123460000000 1.0
C      1  0.5230490000000  0.4884940000000  0.4380250000000 1.0
C      1  0.4885190000000  0.4389360000000  0.5221520000000 1.0
C      1  0.4376930000000  0.5218970000000  0.4876710000000 1.0
C      1  0.4768690000000  0.4875900000000  0.5626780000000 1.0
C      1  0.4774630000000  0.5128460000000  0.4378250000000 1.0
C      1  0.5218460000000  0.5131410000000  0.5616480000000 1.0
C      1  0.5116420000000  0.4383640000000  0.4778230000000 1.0
C      1  0.5108050000000  0.5607650000000  0.5212320000000 1.0
C      1  0.4877280000000  0.5618480000000  0.4777950000000 1.0
C      1  0.5625460000000  0.5234810000000  0.5117640000000 1.0
C      1  0.5627480000000  0.4775460000000  0.4865380000000 1.0
C      1  0.4380150000000  0.4791620000000  0.5126170000000 1.0
C      1  0.4372710000000  0.4887120000000  0.5233500000000 1.0
C      1  0.5225230000000  0.4377630000000  0.4871160000000 1.0
C      1  0.4877790000000  0.5227230000000  0.4376840000000 1.0
C      1  0.5634210000000  0.4877130000000  0.4764350000000 1.0
C      1  0.4371340000000  0.5122170000000  0.4770130000000 1.0
C      1  0.5618300000000  0.5132880000000  0.5217790000000 1.0
C      1  0.4781590000000  0.4394540000000  0.5125040000000 1.0
C      1  0.5208110000000  0.5606680000000  0.5111020000000 1.0
C      1  0.4773850000000  0.5621750000000  0.4878380000000 1.0
C      1  0.5114830000000  0.5230890000000  0.5622590000000 1.0
C      1  0.4876400000000  0.4781120000000  0.5616420000000 1.0
C      1  0.5116970000000  0.4796530000000  0.4390370000000 1.0
C      1  0.5191380000000  0.5288310000000  0.5401250000000 1.0
C      1  0.5290650000000  0.5387180000000  0.5180100000000 1.0
C      1  0.5432170000000  0.5239370000000  0.5332640000000 1.0
C      1  0.4822220000000  0.5275870000000  0.4611670000000 1.0
C      1  0.4824800000000  0.4722510000000  0.5382590000000 1.0
C      1  0.5176150000000  0.4723680000000  0.4620740000000 1.0
C      1  0.4720910000000  0.5384490000000  0.4834180000000 1.0
C      1  0.4670690000000  0.4579320000000  0.5233530000000 1.0
C      1  0.5322070000000  0.4582860000000  0.4774150000000 1.0
C      1  0.4610030000000  0.5183660000000  0.4709410000000 1.0
C      1  0.4606400000000  0.4819840000000  0.5286410000000 1.0
C      1  0.5403600000000  0.4817510000000  0.4713780000000 1.0
C      1  0.5404390000000  0.5293510000000  0.5195150000000 1.0
C      1  0.5177330000000  0.5384100000000  0.5286580000000 1.0
C      1  0.5330970000000  0.5237080000000  0.5430200000000 1.0
C      1  0.4614070000000  0.5281970000000  0.4832070000000 1.0
C      1  0.5424020000000  0.4679060000000  0.4771210000000 1.0
C      1  0.4573660000000  0.4679970000000  0.5232940000000 1.0
C      1  0.4833900000000  0.5379140000000  0.4723880000000 1.0
C      1  0.5185230000000  0.4611640000000  0.4719770000000 1.0
C      1  0.4810680000000  0.4610950000000  0.5282120000000 1.0
C      1  0.4689710000000  0.5211720000000  0.4592380000000 1.0
C      1  0.5290070000000  0.4832100000000  0.4618230000000 1.0
C      1  0.4712270000000  0.4830350000000  0.5392790000000 1.0
C      1  0.5369550000000  0.4923310000000  0.4850760000000 1.0
C      1  0.4922150000000  0.4842600000000  0.5331500000000 1.0
C      1  0.4843380000000  0.5351840000000  0.4942950000000 1.0
C      1  0.4673230000000  0.4909360000000  0.5159040000000 1.0
C      1  0.4675500000000  0.5073410000000  0.4822370000000 1.0
C      1  0.5273010000000  0.5057890000000  0.5177070000000 1.0
C      1  0.5082820000000  0.4837800000000  0.4678450000000 1.0
C      1  0.5103850000000  0.5141420000000  0.5361200000000 1.0
C      1  0.4927690000000  0.5140160000000  0.4645450000000 1.0
C      1  0.5171850000000  0.5318650000000  0.5069690000000 1.0
C      1  0.5112530000000  0.4618720000000  0.4979410000000 1.0
C      1  0.4821270000000  0.4721460000000  0.5036390000000 1.0
C      1  0.4833670000000  0.4943050000000  0.5357110000000 1.0
C      1  0.5334300000000  0.4850810000000  0.4958220000000 1.0
C      1  0.4940480000000  0.5345740000000  0.4843130000000 1.0
C      1  0.5173450000000  0.4937080000000  0.4678780000000 1.0
C      1  0.4877990000000  0.5016620000000  0.4636290000000 1.0
C      1  0.5169260000000  0.5051870000000  0.5277990000000 1.0
C      1  0.4727580000000  0.4831040000000  0.5047860000000 1.0
C      1  0.5357600000000  0.5144540000000  0.5107760000000 1.0
C      1  0.4658500000000  0.5159000000000  0.4929780000000 1.0
C      1  0.5077730000000  0.5323340000000  0.5167310000000 1.0
C      1  0.4891840000000  0.4665220000000  0.5147330000000 1.0
C      1  0.5087290000000  0.4661540000000  0.4855700000000 1.0
END
