TITL C-114179-1211-94 -12.1343613227893 1000000 -1726.94607981841 0 0 240 (C1) n - 1
REM
REM in /home/chem/mssmkc/work/GAP20/Larger-Clusters/Only-C240/New/BUILD-ONLY
REM
REM
REM
REM
REM
REM ./C.cell (daee87de7206da95283bc1c1416dbc6f)
REM
REM compiler GCC version 8.3.0
REM options -cpp -mtune=generic -march=x86-64 -g -O0
REM seed 386519189 -1638754096 -1948221301 509365939 -1215378386 244823876 -1216187723 992502802 1273517318 -1789725285 196676067 -866752112 -1698091652 676059618 -1172348055 682833425 -1071348253 959858837 33092800 -184025440 -1384930422 -257540637 1909322216 -2108752464 1877758959 1307093494 2097205036 884257889 -893477197 1202965074 1893019618 -40238751 2036638703
REM
CELL 1.54180  100.00000  100.00000  100.00000   90.00000   90.00000   90.00000
LATT -1
SFAC C  
C      1  0.4316090000000  0.5182130000000  0.4849790000000 1.0
C      1  0.4862650000000  0.4341590000000  0.5180800000000 1.0
C      1  0.5174000000000  0.4858200000000  0.4335710000000 1.0
C      1  0.5646380000000  0.4826600000000  0.4853040000000 1.0
C      1  0.5648900000000  0.5172100000000  0.5148540000000 1.0
C      1  0.4325960000000  0.4823810000000  0.5141910000000 1.0
C      1  0.5138190000000  0.5670940000000  0.5177460000000 1.0
C      1  0.5144670000000  0.4317270000000  0.4825010000000 1.0
C      1  0.4856860000000  0.5664010000000  0.4816000000000 1.0
C      1  0.4820840000000  0.5149700000000  0.4334980000000 1.0
C      1  0.4824830000000  0.4852350000000  0.5659980000000 1.0
C      1  0.5177620000000  0.5137850000000  0.5670610000000 1.0
C      1  0.4337780000000  0.5177130000000  0.5137570000000 1.0
C      1  0.4855810000000  0.4317200000000  0.4828110000000 1.0
C      1  0.5181520000000  0.4848770000000  0.5687440000000 1.0
C      1  0.5659000000000  0.4818580000000  0.5141270000000 1.0
C      1  0.5654050000000  0.5179510000000  0.4860130000000 1.0
C      1  0.4343650000000  0.4825310000000  0.4855140000000 1.0
C      1  0.5145120000000  0.5663740000000  0.4821130000000 1.0
C      1  0.5150510000000  0.4335100000000  0.5181670000000 1.0
C      1  0.4852310000000  0.5652080000000  0.5171500000000 1.0
C      1  0.4824120000000  0.5139210000000  0.5672870000000 1.0
C      1  0.4824330000000  0.4860670000000  0.4349000000000 1.0
C      1  0.5176870000000  0.5148540000000  0.4315510000000 1.0
C      1  0.5296410000000  0.4933160000000  0.4355160000000 1.0
C      1  0.4349580000000  0.5303780000000  0.4921790000000 1.0
C      1  0.4937510000000  0.4363690000000  0.5302660000000 1.0
C      1  0.4700090000000  0.5076740000000  0.4365440000000 1.0
C      1  0.4703960000000  0.4925650000000  0.5631500000000 1.0
C      1  0.5300690000000  0.5063280000000  0.5650130000000 1.0
C      1  0.5623540000000  0.4703830000000  0.4922920000000 1.0
C      1  0.5624130000000  0.5294880000000  0.5078650000000 1.0
C      1  0.4363430000000  0.4704070000000  0.5069160000000 1.0
C      1  0.5063910000000  0.5635470000000  0.5297090000000 1.0
C      1  0.5069850000000  0.4352080000000  0.4705280000000 1.0
C      1  0.4933520000000  0.5643400000000  0.4694520000000 1.0
C      1  0.5303340000000  0.4921270000000  0.5655290000000 1.0
C      1  0.4358110000000  0.5300050000000  0.5063490000000 1.0
C      1  0.4928240000000  0.4353140000000  0.4707310000000 1.0
C      1  0.4704370000000  0.5066620000000  0.5635930000000 1.0
C      1  0.4702830000000  0.4935130000000  0.4370380000000 1.0
C      1  0.5298100000000  0.5075710000000  0.4349020000000 1.0
C      1  0.5636250000000  0.4698080000000  0.5063730000000 1.0
C      1  0.5632470000000  0.5300050000000  0.4937430000000 1.0
C      1  0.4371060000000  0.4704420000000  0.4928390000000 1.0
C      1  0.5074760000000  0.5638080000000  0.4697940000000 1.0
C      1  0.5078820000000  0.4362730000000  0.5303830000000 1.0
C      1  0.4923140000000  0.5626330000000  0.5293980000000 1.0
C      1  0.4536710000000  0.5074210000000  0.5464220000000 1.0
C      1  0.5486210000000  0.4510090000000  0.5067990000000 1.0
C      1  0.5077900000000  0.5480320000000  0.4512970000000 1.0
C      1  0.5478540000000  0.4912370000000  0.5485990000000 1.0
C      1  0.5472240000000  0.5084900000000  0.4518010000000 1.0
C      1  0.4521580000000  0.4936070000000  0.4524770000000 1.0
C      1  0.4518930000000  0.5479600000000  0.5058240000000 1.0
C      1  0.4534300000000  0.4525500000000  0.4931770000000 1.0
C      1  0.5481120000000  0.5487120000000  0.4934220000000 1.0
C      1  0.4925540000000  0.4529020000000  0.4541210000000 1.0
C      1  0.4927690000000  0.5462290000000  0.5471150000000 1.0
C      1  0.5082590000000  0.4520530000000  0.5488540000000 1.0
C      1  0.4516360000000  0.5082040000000  0.4524070000000 1.0
C      1  0.5470600000000  0.4519180000000  0.4923060000000 1.0
C      1  0.5073650000000  0.5466370000000  0.5468860000000 1.0
C      1  0.5475300000000  0.4938470000000  0.4516890000000 1.0
C      1  0.5480130000000  0.5058670000000  0.5486900000000 1.0
C      1  0.4526660000000  0.4928520000000  0.5466320000000 1.0
C      1  0.4517280000000  0.5479090000000  0.4911650000000 1.0
C      1  0.4533820000000  0.4535190000000  0.5077670000000 1.0
C      1  0.5468220000000  0.5477560000000  0.5079230000000 1.0
C      1  0.4936420000000  0.4518000000000  0.5486310000000 1.0
C      1  0.4932100000000  0.5490000000000  0.4507440000000 1.0
C      1  0.5072450000000  0.4527160000000  0.4537200000000 1.0
C      1  0.4634310000000  0.4859020000000  0.5522370000000 1.0
C      1  0.5515480000000  0.4633480000000  0.4855910000000 1.0
C      1  0.4866190000000  0.5545560000000  0.4616010000000 1.0
C      1  0.5374640000000  0.5126900000000  0.5546370000000 1.0
C      1  0.5369380000000  0.4869890000000  0.4459490000000 1.0
C      1  0.4625180000000  0.5149910000000  0.4466770000000 1.0
C      1  0.4449080000000  0.5376760000000  0.4847020000000 1.0
C      1  0.4469970000000  0.4639510000000  0.5139910000000 1.0
C      1  0.5515940000000  0.5364170000000  0.5146360000000 1.0
C      1  0.5138570000000  0.4458420000000  0.4637180000000 1.0
C      1  0.5135360000000  0.5531670000000  0.5365340000000 1.0
C      1  0.4872080000000  0.4466370000000  0.5376160000000 1.0
C      1  0.4631780000000  0.4870980000000  0.4475090000000 1.0
C      1  0.5542610000000  0.4617770000000  0.5134450000000 1.0
C      1  0.4858180000000  0.5515370000000  0.5361760000000 1.0
C      1  0.5369720000000  0.5149450000000  0.4450020000000 1.0
C      1  0.5376270000000  0.4847880000000  0.5554720000000 1.0
C      1  0.4641110000000  0.5136270000000  0.5527600000000 1.0
C      1  0.4463800000000  0.5372390000000  0.5126080000000 1.0
C      1  0.4480530000000  0.4634270000000  0.4862340000000 1.0
C      1  0.5536240000000  0.5378750000000  0.4868300000000 1.0
C      1  0.5150490000000  0.4465340000000  0.5378550000000 1.0
C      1  0.5144940000000  0.5533510000000  0.4624560000000 1.0
C      1  0.4859680000000  0.4461600000000  0.4642530000000 1.0
C      1  0.4744760000000  0.5552580000000  0.5163230000000 1.0
C      1  0.5178330000000  0.4731680000000  0.5603030000000 1.0
C      1  0.5560230000000  0.5181560000000  0.4748000000000 1.0
C      1  0.5266840000000  0.4424710000000  0.5181710000000 1.0
C      1  0.5259930000000  0.5572130000000  0.4822790000000 1.0
C      1  0.4742900000000  0.4407580000000  0.4837100000000 1.0
C      1  0.4833370000000  0.5252050000000  0.5582870000000 1.0
C      1  0.4828030000000  0.4754410000000  0.4450650000000 1.0
C      1  0.5171970000000  0.5266000000000  0.4400770000000 1.0
C      1  0.4442070000000  0.4830080000000  0.4746210000000 1.0
C      1  0.4440370000000  0.5175440000000  0.5242950000000 1.0
C      1  0.5567790000000  0.4815580000000  0.5255730000000 1.0
C      1  0.4744970000000  0.5570390000000  0.4813400000000 1.0
C      1  0.5171520000000  0.4750810000000  0.4437220000000 1.0
C      1  0.5552640000000  0.5165320000000  0.5259750000000 1.0
C      1  0.5256370000000  0.4408960000000  0.4832510000000 1.0
C      1  0.5252340000000  0.5582620000000  0.5171250000000 1.0
C      1  0.4754590000000  0.4440720000000  0.5180360000000 1.0
C      1  0.4821780000000  0.5267730000000  0.4423330000000 1.0
C      1  0.4829680000000  0.4741910000000  0.5562990000000 1.0
C      1  0.5177310000000  0.5246500000000  0.5571160000000 1.0
C      1  0.4413770000000  0.4832130000000  0.5256600000000 1.0
C      1  0.4398840000000  0.5178840000000  0.4731940000000 1.0
C      1  0.5548910000000  0.4832420000000  0.4743110000000 1.0
C      1  0.4791020000000  0.4971590000000  0.4702880000000 1.0
C      1  0.4706950000000  0.4822210000000  0.4944380000000 1.0
C      1  0.4935890000000  0.4668540000000  0.4824450000000 1.0
C      1  0.5195720000000  0.5095600000000  0.4669060000000 1.0
C      1  0.5204430000000  0.4901960000000  0.5335670000000 1.0
C      1  0.4820920000000  0.5060930000000  0.5308880000000 1.0
C      1  0.5294920000000  0.5208890000000  0.4960110000000 1.0
C      1  0.5301450000000  0.4789320000000  0.5045130000000 1.0
C      1  0.4676800000000  0.5208620000000  0.5023500000000 1.0
C      1  0.5080040000000  0.5310450000000  0.4807520000000 1.0
C      1  0.5091420000000  0.4688890000000  0.5193710000000 1.0
C      1  0.4941780000000  0.5290320000000  0.5172440000000 1.0
C      1  0.4827870000000  0.4937120000000  0.5295520000000 1.0
C      1  0.4688210000000  0.4817610000000  0.5067330000000 1.0
C      1  0.4970320000000  0.4693760000000  0.5217620000000 1.0
C      1  0.5211460000000  0.5026500000000  0.5329160000000 1.0
C      1  0.5203850000000  0.4971330000000  0.4678560000000 1.0
C      1  0.4813970000000  0.5092630000000  0.4693610000000 1.0
C      1  0.5286390000000  0.5171910000000  0.5079280000000 1.0
C      1  0.5287320000000  0.4823340000000  0.4925780000000 1.0
C      1  0.4665570000000  0.5201190000000  0.4899570000000 1.0
C      1  0.5064020000000  0.5307690000000  0.5189430000000 1.0
C      1  0.5061780000000  0.4669470000000  0.4818680000000 1.0
C      1  0.4959080000000  0.5310450000000  0.4779420000000 1.0
C      1  0.4724720000000  0.4787930000000  0.4551030000000 1.0
C      1  0.4544910000000  0.4726060000000  0.4771740000000 1.0
C      1  0.4766460000000  0.4516240000000  0.4741220000000 1.0
C      1  0.5276310000000  0.5249610000000  0.4502690000000 1.0
C      1  0.5283620000000  0.4747540000000  0.5501890000000 1.0
C      1  0.4739520000000  0.5227980000000  0.5472880000000 1.0
C      1  0.5462880000000  0.5288260000000  0.4781480000000 1.0
C      1  0.5470760000000  0.4708230000000  0.5223060000000 1.0
C      1  0.4540620000000  0.5280420000000  0.5209900000000 1.0
C      1  0.5241300000000  0.5474400000000  0.4714480000000 1.0
C      1  0.5248740000000  0.4522700000000  0.5289830000000 1.0
C      1  0.4769280000000  0.5450950000000  0.5267550000000 1.0
C      1  0.4726480000000  0.4767600000000  0.5459570000000 1.0
C      1  0.4523290000000  0.4737520000000  0.5233430000000 1.0
C      1  0.4787170000000  0.4541540000000  0.5284310000000 1.0
C      1  0.5283020000000  0.5213230000000  0.5472430000000 1.0
C      1  0.5276980000000  0.4784990000000  0.4534930000000 1.0
C      1  0.4714270000000  0.5249140000000  0.4522230000000 1.0
C      1  0.5452870000000  0.5271910000000  0.5238880000000 1.0
C      1  0.5450510000000  0.4724650000000  0.4763820000000 1.0
C      1  0.4501000000000  0.5283520000000  0.4746290000000 1.0
C      1  0.5228650000000  0.5475690000000  0.5269250000000 1.0
C      1  0.5231490000000  0.4515490000000  0.4734200000000 1.0
C      1  0.4777880000000  0.5473440000000  0.4706280000000 1.0
C      1  0.5361340000000  0.4432970000000  0.5078260000000 1.0
C      1  0.5072380000000  0.5360060000000  0.4426660000000 1.0
C      1  0.4454100000000  0.5080170000000  0.5343410000000 1.0
C      1  0.4647910000000  0.5549180000000  0.5060580000000 1.0
C      1  0.4650540000000  0.4434880000000  0.4937440000000 1.0
C      1  0.5355220000000  0.5563110000000  0.4925560000000 1.0
C      1  0.4924890000000  0.4654740000000  0.4465520000000 1.0
C      1  0.4932530000000  0.5346180000000  0.5561140000000 1.0
C      1  0.5077360000000  0.4640160000000  0.5575410000000 1.0
C      1  0.5550110000000  0.4913530000000  0.5355540000000 1.0
C      1  0.5543380000000  0.5083830000000  0.4648300000000 1.0
C      1  0.4441230000000  0.4929380000000  0.4646350000000 1.0
C      1  0.5351700000000  0.4432520000000  0.4930500000000 1.0
C      1  0.5080740000000  0.5346010000000  0.5553380000000 1.0
C      1  0.4426160000000  0.5077200000000  0.4641200000000 1.0
C      1  0.4646660000000  0.5551720000000  0.4912010000000 1.0
C      1  0.4653950000000  0.4451760000000  0.5084810000000 1.0
C      1  0.5348080000000  0.5562510000000  0.5073210000000 1.0
C      1  0.4929410000000  0.4642070000000  0.5563980000000 1.0
C      1  0.4924070000000  0.5364900000000  0.4429650000000 1.0
C      1  0.5073490000000  0.4653110000000  0.4460420000000 1.0
C      1  0.5543630000000  0.4935400000000  0.4646910000000 1.0
C      1  0.5548310000000  0.5062290000000  0.5356500000000 1.0
C      1  0.4437730000000  0.4932860000000  0.5349050000000 1.0
C      1  0.4266410000000  0.5075040000000  0.4923370000000 1.0
C      1  0.4930830000000  0.4277040000000  0.5078830000000 1.0
C      1  0.5070520000000  0.4927620000000  0.4274180000000 1.0
C      1  0.5708830000000  0.4927890000000  0.4924710000000 1.0
C      1  0.5709960000000  0.5070850000000  0.5075610000000 1.0
C      1  0.4270390000000  0.4927510000000  0.5069010000000 1.0
C      1  0.5067630000000  0.5726090000000  0.5071880000000 1.0
C      1  0.5075160000000  0.4260690000000  0.4931510000000 1.0
C      1  0.4925000000000  0.5719350000000  0.4922680000000 1.0
C      1  0.4924410000000  0.5076110000000  0.4277050000000 1.0
C      1  0.4927610000000  0.4920670000000  0.5725920000000 1.0
C      1  0.5073760000000  0.5068650000000  0.5733320000000 1.0
C      1  0.4271280000000  0.5074430000000  0.5070030000000 1.0
C      1  0.4928720000000  0.4261110000000  0.4932840000000 1.0
C      1  0.5074370000000  0.4921960000000  0.5737400000000 1.0
C      1  0.5713040000000  0.4924740000000  0.5071620000000 1.0
C      1  0.5710240000000  0.5073910000000  0.4928690000000 1.0
C      1  0.4276650000000  0.4928170000000  0.4922470000000 1.0
C      1  0.5071870000000  0.5722120000000  0.4924850000000 1.0
C      1  0.5078080000000  0.4275980000000  0.5078010000000 1.0
C      1  0.4921500000000  0.5716810000000  0.5069310000000 1.0
C      1  0.4926910000000  0.5067160000000  0.5731160000000 1.0
C      1  0.4924720000000  0.4929170000000  0.4283430000000 1.0
C      1  0.5070840000000  0.5074120000000  0.4264820000000 1.0
C      1  0.4801270000000  0.4646850000000  0.4800030000000 1.0
C      1  0.4751760000000  0.4840970000000  0.4689860000000 1.0
C      1  0.4704910000000  0.4762820000000  0.4808980000000 1.0
C      1  0.5214750000000  0.5319210000000  0.4752010000000 1.0
C      1  0.5223740000000  0.4678420000000  0.5252340000000 1.0
C      1  0.4803410000000  0.5293540000000  0.5228370000000 1.0
C      1  0.5227790000000  0.5225140000000  0.4637060000000 1.0
C      1  0.5235590000000  0.4772110000000  0.5367410000000 1.0
C      1  0.4798350000000  0.5194750000000  0.5341970000000 1.0
C      1  0.5322900000000  0.5261460000000  0.4836200000000 1.0
C      1  0.5331210000000  0.4735940000000  0.5168080000000 1.0
C      1  0.4678860000000  0.5253090000000  0.5151990000000 1.0
C      1  0.4840710000000  0.4680000000000  0.5257310000000 1.0
C      1  0.4765750000000  0.4802940000000  0.5301120000000 1.0
C      1  0.4653650000000  0.4796800000000  0.5201050000000 1.0
C      1  0.5195420000000  0.5343530000000  0.5218510000000 1.0
C      1  0.5194730000000  0.4647780000000  0.4786150000000 1.0
C      1  0.4832560000000  0.5334950000000  0.4732710000000 1.0
C      1  0.5255900000000  0.5154950000000  0.5335300000000 1.0
C      1  0.5249470000000  0.4842780000000  0.4672270000000 1.0
C      1  0.4751630000000  0.5223640000000  0.4678630000000 1.0
C      1  0.5295060000000  0.5231740000000  0.5213490000000 1.0
C      1  0.5291160000000  0.4763630000000  0.4791330000000 1.0
C      1  0.4634520000000  0.5232120000000  0.4769860000000 1.0
END
