TITL C-114181-47-13 -197.445081603941 1000000 -1640.67425410538 0 0 240 (C1) n - 1
REM
REM in /home/chem/mssmkc/work/GAP20/Larger-Clusters/Only-C240/New/BUILD-ONLY
REM
REM
REM
REM
REM
REM ./C.cell (daee87de7206da95283bc1c1416dbc6f)
REM
REM compiler GCC version 8.3.0
REM options -cpp -mtune=generic -march=x86-64 -g -O0
REM seed 507904363 516688924 -2038600190 1748746751 -1571267911 547495892 -1073195952 1575755376 -535741270 -2021419458 -540897466 382043220 1168796181 110214676 2026811215 2070848158 1053620310 -1910774289 -127913222 441629360 -1544105919 -1780598021 1833465151 -193813659 1556042779 -1683510825 -800693132 1278726792 1904848876 1125030470 -1891994431 -448549668 -818116065
REM
CELL 1.54180  100.00000  100.00000  100.00000   90.00000   90.00000   90.00000
LATT -1
SFAC C  
C      1  0.5158460000000  0.5541310000000  0.4734520000000 1.0
C      1  0.5564310000000  0.4704020000000  0.5169070000000 1.0
C      1  0.4716870000000  0.5172700000000  0.5592230000000 1.0
C      1  0.4823350000000  0.5557620000000  0.5294340000000 1.0
C      1  0.4830050000000  0.4447460000000  0.4712330000000 1.0
C      1  0.5183800000000  0.4456350000000  0.5294770000000 1.0
C      1  0.4435900000000  0.4726220000000  0.4839240000000 1.0
C      1  0.4455410000000  0.5291690000000  0.5168990000000 1.0
C      1  0.5589210000000  0.5267680000000  0.4827190000000 1.0
C      1  0.5286530000000  0.5167850000000  0.4447010000000 1.0
C      1  0.5277600000000  0.4832350000000  0.5571060000000 1.0
C      1  0.4708680000000  0.4824730000000  0.4423170000000 1.0
C      1  0.5182080000000  0.4441870000000  0.4715650000000 1.0
C      1  0.5590140000000  0.5268390000000  0.5171150000000 1.0
C      1  0.4706980000000  0.4828450000000  0.5596590000000 1.0
C      1  0.4845220000000  0.4459810000000  0.5284970000000 1.0
C      1  0.4829250000000  0.5567810000000  0.4708740000000 1.0
C      1  0.5168780000000  0.5547600000000  0.5293110000000 1.0
C      1  0.4446730000000  0.5295480000000  0.4833280000000 1.0
C      1  0.4449120000000  0.4728930000000  0.5171190000000 1.0
C      1  0.5566870000000  0.4704760000000  0.4829900000000 1.0
C      1  0.5285360000000  0.4832730000000  0.4429560000000 1.0
C      1  0.5280310000000  0.5164280000000  0.5555880000000 1.0
C      1  0.4713020000000  0.5181890000000  0.4422100000000 1.0
C      1  0.5109270000000  0.4665340000000  0.5084110000000 1.0
C      1  0.4682610000000  0.5061030000000  0.5065610000000 1.0
C      1  0.5041100000000  0.5074720000000  0.4643200000000 1.0
C      1  0.4970720000000  0.4650060000000  0.4878750000000 1.0
C      1  0.4904930000000  0.5358020000000  0.5069920000000 1.0
C      1  0.5051080000000  0.5346900000000  0.4911580000000 1.0
C      1  0.5371710000000  0.5070680000000  0.4931880000000 1.0
C      1  0.5278650000000  0.4877880000000  0.5074400000000 1.0
C      1  0.4661420000000  0.4923260000000  0.4916900000000 1.0
C      1  0.4874160000000  0.5062150000000  0.5372090000000 1.0
C      1  0.4863050000000  0.4930260000000  0.4606500000000 1.0
C      1  0.5014570000000  0.4901620000000  0.5354400000000 1.0
C      1  0.5051960000000  0.5323960000000  0.5066230000000 1.0
C      1  0.4670370000000  0.4908540000000  0.5060840000000 1.0
C      1  0.5082770000000  0.4920840000000  0.4666860000000 1.0
C      1  0.4901880000000  0.5366190000000  0.4920700000000 1.0
C      1  0.4999450000000  0.4742750000000  0.5141570000000 1.0
C      1  0.5106840000000  0.4645510000000  0.4921010000000 1.0
C      1  0.5355000000000  0.4920020000000  0.4940080000000 1.0
C      1  0.5274110000000  0.5154310000000  0.4972310000000 1.0
C      1  0.4673610000000  0.5076590000000  0.4918310000000 1.0
C      1  0.4859600000000  0.4918970000000  0.5384120000000 1.0
C      1  0.4890940000000  0.5069100000000  0.4617240000000 1.0
C      1  0.5026720000000  0.5051950000000  0.5339130000000 1.0
C      1  0.5493310000000  0.5124850000000  0.4443560000000 1.0
C      1  0.5075240000000  0.4445420000000  0.5502170000000 1.0
C      1  0.4431500000000  0.5503330000000  0.5127480000000 1.0
C      1  0.4507600000000  0.5130890000000  0.5569360000000 1.0
C      1  0.4503260000000  0.4936490000000  0.4436770000000 1.0
C      1  0.5487000000000  0.4867990000000  0.5563770000000 1.0
C      1  0.4934930000000  0.4441320000000  0.4506240000000 1.0
C      1  0.4929250000000  0.5553710000000  0.5502280000000 1.0
C      1  0.5082430000000  0.5544930000000  0.4519300000000 1.0
C      1  0.5515860000000  0.5463500000000  0.4846300000000 1.0
C      1  0.5581050000000  0.4493220000000  0.5125330000000 1.0
C      1  0.4440020000000  0.4514930000000  0.4884570000000 1.0
C      1  0.5496300000000  0.4873190000000  0.4434080000000 1.0
C      1  0.5069480000000  0.5553570000000  0.5505110000000 1.0
C      1  0.4449810000000  0.4518340000000  0.5133200000000 1.0
C      1  0.4499670000000  0.4887500000000  0.5570290000000 1.0
C      1  0.4508950000000  0.5076120000000  0.4438380000000 1.0
C      1  0.5487990000000  0.5124860000000  0.5553630000000 1.0
C      1  0.4943480000000  0.5563590000000  0.4500920000000 1.0
C      1  0.4934560000000  0.4441000000000  0.5500560000000 1.0
C      1  0.5074450000000  0.4447260000000  0.4512760000000 1.0
C      1  0.5579500000000  0.4493630000000  0.4877240000000 1.0
C      1  0.5523480000000  0.5465860000000  0.5159090000000 1.0
C      1  0.4428920000000  0.5506700000000  0.4880370000000 1.0
C      1  0.4947330000000  0.4858720000000  0.4699230000000 1.0
C      1  0.4899300000000  0.4800000000000  0.5059930000000 1.0
C      1  0.4776080000000  0.5074080000000  0.4811840000000 1.0
C      1  0.4825830000000  0.4823780000000  0.5279510000000 1.0
C      1  0.4870910000000  0.5154300000000  0.4741890000000 1.0
C      1  0.5006570000000  0.5149710000000  0.5232060000000 1.0
C      1  0.5233230000000  0.4724020000000  0.4914690000000 1.0
C      1  0.5093040000000  0.5203940000000  0.5135270000000 1.0
C      1  0.4771360000000  0.5282850000000  0.4927550000000 1.0
C      1  0.5196340000000  0.5116860000000  0.5082780000000 1.0
C      1  0.5205540000000  0.4888030000000  0.4730360000000 1.0
C      1  0.4799660000000  0.4887150000000  0.5139930000000 1.0
C      1  0.5015520000000  0.5184760000000  0.4739650000000 1.0
C      1  0.4773370000000  0.5275930000000  0.5060720000000 1.0
C      1  0.4763250000000  0.4931880000000  0.4810000000000 1.0
C      1  0.4860630000000  0.5134690000000  0.5242760000000 1.0
C      1  0.4872570000000  0.4845200000000  0.4815430000000 1.0
C      1  0.4971610000000  0.4778240000000  0.5274900000000 1.0
C      1  0.5095550000000  0.5297470000000  0.4779950000000 1.0
C      1  0.5244260000000  0.4737770000000  0.5059510000000 1.0
C      1  0.4895360000000  0.4762830000000  0.4922850000000 1.0
C      1  0.5216920000000  0.4984040000000  0.5127980000000 1.0
C      1  0.5268690000000  0.4840080000000  0.4838580000000 1.0
C      1  0.4798760000000  0.5046230000000  0.5148930000000 1.0
C      1  0.4628610000000  0.5073560000000  0.5646010000000 1.0
C      1  0.5079100000000  0.5616330000000  0.4647570000000 1.0
C      1  0.5634000000000  0.4623990000000  0.5068560000000 1.0
C      1  0.5369210000000  0.5069500000000  0.4381980000000 1.0
C      1  0.5363290000000  0.4930200000000  0.5632640000000 1.0
C      1  0.4635220000000  0.4931880000000  0.4363240000000 1.0
C      1  0.4927730000000  0.5619900000000  0.5369460000000 1.0
C      1  0.4933560000000  0.4376830000000  0.4640570000000 1.0
C      1  0.5082830000000  0.4384790000000  0.5366880000000 1.0
C      1  0.4372380000000  0.4645200000000  0.4941180000000 1.0
C      1  0.4381570000000  0.5368450000000  0.5071310000000 1.0
C      1  0.5597260000000  0.5370760000000  0.4930860000000 1.0
C      1  0.4625970000000  0.4937260000000  0.5643360000000 1.0
C      1  0.5076670000000  0.4379110000000  0.4643270000000 1.0
C      1  0.5594400000000  0.5370400000000  0.5066460000000 1.0
C      1  0.5369130000000  0.4932890000000  0.4368200000000 1.0
C      1  0.5365340000000  0.5067890000000  0.5620850000000 1.0
C      1  0.4637800000000  0.5075570000000  0.4363810000000 1.0
C      1  0.4940390000000  0.4382970000000  0.5362100000000 1.0
C      1  0.4935940000000  0.5631200000000  0.4634110000000 1.0
C      1  0.5069570000000  0.5618530000000  0.5370470000000 1.0
C      1  0.4378240000000  0.5370730000000  0.4935450000000 1.0
C      1  0.4380930000000  0.4642940000000  0.5077870000000 1.0
C      1  0.5634220000000  0.4624470000000  0.4931860000000 1.0
C      1  0.4455820000000  0.4867700000000  0.5185130000000 1.0
C      1  0.4854400000000  0.5197560000000  0.4410690000000 1.0
C      1  0.5201620000000  0.4424540000000  0.4856470000000 1.0
C      1  0.5560230000000  0.4842910000000  0.4813610000000 1.0
C      1  0.5586410000000  0.5128170000000  0.5181770000000 1.0
C      1  0.4462150000000  0.5157540000000  0.4814710000000 1.0
C      1  0.5139680000000  0.5176170000000  0.5539690000000 1.0
C      1  0.5145720000000  0.4816990000000  0.4437210000000 1.0
C      1  0.4848320000000  0.4808060000000  0.5598140000000 1.0
C      1  0.4832890000000  0.4464790000000  0.5142330000000 1.0
C      1  0.4812370000000  0.5581230000000  0.4850860000000 1.0
C      1  0.5178060000000  0.5547270000000  0.5151630000000 1.0
C      1  0.4476290000000  0.5153840000000  0.5183970000000 1.0
C      1  0.4852890000000  0.4809110000000  0.4420890000000 1.0
C      1  0.5177690000000  0.5563040000000  0.4870570000000 1.0
C      1  0.5585440000000  0.5127520000000  0.4816570000000 1.0
C      1  0.5563520000000  0.4842290000000  0.5187320000000 1.0
C      1  0.4446630000000  0.4865460000000  0.4816580000000 1.0
C      1  0.5137100000000  0.4815820000000  0.5563250000000 1.0
C      1  0.5148010000000  0.5185620000000  0.4441330000000 1.0
C      1  0.4856270000000  0.5186370000000  0.5583430000000 1.0
C      1  0.4811230000000  0.5573000000000  0.5152200000000 1.0
C      1  0.4823100000000  0.4452260000000  0.4854790000000 1.0
C      1  0.5201020000000  0.4440760000000  0.5154400000000 1.0
C      1  0.5533740000000  0.4920350000000  0.5306640000000 1.0
C      1  0.4926200000000  0.5304980000000  0.5541890000000 1.0
C      1  0.5301130000000  0.5566300000000  0.4938200000000 1.0
C      1  0.4475070000000  0.4937360000000  0.4691920000000 1.0
C      1  0.4495240000000  0.5078810000000  0.5308740000000 1.0
C      1  0.5553010000000  0.5062490000000  0.4692430000000 1.0
C      1  0.5072090000000  0.5306480000000  0.4466200000000 1.0
C      1  0.5066320000000  0.4690940000000  0.5550540000000 1.0
C      1  0.4928810000000  0.4691550000000  0.4455020000000 1.0
C      1  0.4687220000000  0.5562590000000  0.5071710000000 1.0
C      1  0.4703010000000  0.4476820000000  0.4930300000000 1.0
C      1  0.5324220000000  0.4446290000000  0.5075300000000 1.0
C      1  0.5542390000000  0.5063150000000  0.5301980000000 1.0
C      1  0.4922610000000  0.4687630000000  0.5560950000000 1.0
C      1  0.5325820000000  0.4440120000000  0.4932710000000 1.0
C      1  0.4483550000000  0.5080650000000  0.4692080000000 1.0
C      1  0.4485160000000  0.4938790000000  0.5310290000000 1.0
C      1  0.5540210000000  0.4920650000000  0.4691670000000 1.0
C      1  0.5072590000000  0.4694100000000  0.4465010000000 1.0
C      1  0.5068050000000  0.5301100000000  0.5529020000000 1.0
C      1  0.4928600000000  0.5314550000000  0.4450450000000 1.0
C      1  0.4708010000000  0.4485660000000  0.5071480000000 1.0
C      1  0.4687030000000  0.5564640000000  0.4928460000000 1.0
C      1  0.5301950000000  0.5560840000000  0.5082300000000 1.0
C      1  0.4920380000000  0.5079690000000  0.4461660000000 1.0
C      1  0.5100550000000  0.4494010000000  0.4928990000000 1.0
C      1  0.4518280000000  0.4931710000000  0.5073050000000 1.0
C      1  0.5061060000000  0.5065870000000  0.5487070000000 1.0
C      1  0.5070200000000  0.4926610000000  0.4493130000000 1.0
C      1  0.4909300000000  0.4921970000000  0.5529970000000 1.0
C      1  0.4945840000000  0.4478560000000  0.5065210000000 1.0
C      1  0.4919490000000  0.5516490000000  0.4927590000000 1.0
C      1  0.5068530000000  0.5482860000000  0.5081720000000 1.0
C      1  0.5510710000000  0.4906430000000  0.4934270000000 1.0
C      1  0.5590830000000  0.5052670000000  0.5065160000000 1.0
C      1  0.4522620000000  0.5085370000000  0.4923670000000 1.0
C      1  0.4921740000000  0.4927010000000  0.4469200000000 1.0
C      1  0.5068170000000  0.5495470000000  0.4934660000000 1.0
C      1  0.4532600000000  0.5081220000000  0.5074380000000 1.0
C      1  0.5055590000000  0.4916520000000  0.5501080000000 1.0
C      1  0.5068610000000  0.5077340000000  0.4488260000000 1.0
C      1  0.4913820000000  0.5071160000000  0.5518560000000 1.0
C      1  0.4918600000000  0.5507180000000  0.5079810000000 1.0
C      1  0.4943800000000  0.4505140000000  0.4920770000000 1.0
C      1  0.5090780000000  0.4500630000000  0.5081180000000 1.0
C      1  0.5524400000000  0.5065240000000  0.4931140000000 1.0
C      1  0.5577620000000  0.4913460000000  0.5068020000000 1.0
C      1  0.4511530000000  0.4936190000000  0.4924180000000 1.0
C      1  0.4870620000000  0.4568550000000  0.4509490000000 1.0
C      1  0.4575610000000  0.4509390000000  0.4870990000000 1.0
C      1  0.4519810000000  0.4876280000000  0.4567350000000 1.0
C      1  0.5132960000000  0.4577710000000  0.5493950000000 1.0
C      1  0.5124400000000  0.5409630000000  0.4547060000000 1.0
C      1  0.4863050000000  0.5426290000000  0.5491990000000 1.0
C      1  0.5444650000000  0.4491870000000  0.5130680000000 1.0
C      1  0.5424890000000  0.5550310000000  0.4880030000000 1.0
C      1  0.4567700000000  0.5513970000000  0.5129300000000 1.0
C      1  0.5492380000000  0.4858150000000  0.5428160000000 1.0
C      1  0.5506880000000  0.5132550000000  0.4578000000000 1.0
C      1  0.4528240000000  0.5135090000000  0.5433210000000 1.0
C      1  0.4871740000000  0.5438280000000  0.4507360000000 1.0
C      1  0.4565210000000  0.5516670000000  0.4873340000000 1.0
C      1  0.4531190000000  0.5136960000000  0.4568880000000 1.0
C      1  0.5132820000000  0.5423910000000  0.5490950000000 1.0
C      1  0.5133670000000  0.4577720000000  0.4523350000000 1.0
C      1  0.4867280000000  0.4568980000000  0.5496550000000 1.0
C      1  0.5430660000000  0.5554410000000  0.5134450000000 1.0
C      1  0.5443440000000  0.4489720000000  0.4872880000000 1.0
C      1  0.4585910000000  0.4519530000000  0.5136600000000 1.0
C      1  0.5500250000000  0.5136120000000  0.5417590000000 1.0
C      1  0.5494430000000  0.4865620000000  0.4571010000000 1.0
C      1  0.4516610000000  0.4878570000000  0.5434800000000 1.0
C      1  0.5512180000000  0.5355110000000  0.4750070000000 1.0
C      1  0.5388970000000  0.4782580000000  0.5490640000000 1.0
C      1  0.4785850000000  0.5449050000000  0.5377560000000 1.0
C      1  0.4519710000000  0.5413210000000  0.5219480000000 1.0
C      1  0.4511060000000  0.4608880000000  0.4790980000000 1.0
C      1  0.5492660000000  0.4590880000000  0.5219270000000 1.0
C      1  0.4625350000000  0.4795200000000  0.4533580000000 1.0
C      1  0.4615960000000  0.5221130000000  0.5500520000000 1.0
C      1  0.5400310000000  0.5214450000000  0.4527420000000 1.0
C      1  0.5144690000000  0.5399960000000  0.4689670000000 1.0
C      1  0.5211210000000  0.4568200000000  0.5378370000000 1.0
C      1  0.4792540000000  0.4548320000000  0.4622690000000 1.0
C      1  0.5493710000000  0.4588010000000  0.4781050000000 1.0
C      1  0.5397320000000  0.5213730000000  0.5480030000000 1.0
C      1  0.4795780000000  0.4551330000000  0.5377830000000 1.0
C      1  0.4533430000000  0.4621680000000  0.5218070000000 1.0
C      1  0.4513110000000  0.5417040000000  0.4783910000000 1.0
C      1  0.5534520000000  0.5361480000000  0.5258370000000 1.0
C      1  0.4637070000000  0.5218070000000  0.4535180000000 1.0
C      1  0.4597800000000  0.4783970000000  0.5507360000000 1.0
C      1  0.5395840000000  0.4783000000000  0.4510680000000 1.0
C      1  0.5214650000000  0.4554600000000  0.4634160000000 1.0
C      1  0.5210040000000  0.5445140000000  0.5377770000000 1.0
C      1  0.4794320000000  0.5462240000000  0.4620840000000 1.0
END
