TITL C-114179-1211-92 38.2797436694397 1000000 -1723.71585535885 0 0 240 (C1) n - 1
REM
REM in /home/chem/mssmkc/work/GAP20/Larger-Clusters/Only-C240/New/BUILD-ONLY
REM
REM
REM
REM
REM
REM ./C.cell (daee87de7206da95283bc1c1416dbc6f)
REM
REM compiler GCC version 8.3.0
REM options -cpp -mtune=generic -march=x86-64 -g -O0
REM seed -513513620 356145896 1278363810 -612520074 -463522234 892724831 -229653640 2132849687 1405109974 -613173229 -1842606342 -1512120973 -96429050 623005142 1684308424 1819573541 -1372672908 -1641959988 -981622912 -84395454 -397791055 -1309722612 -85854534 -1974314629 954938239 918000370 1835868038 -653098603 -530810207 330098454 1015856201 1076642836 833337949
REM
CELL 1.54180  100.00000  100.00000  100.00000   90.00000   90.00000   90.00000
LATT -1
SFAC C  
C      1  0.4910210000000  0.4471320000000  0.4737820000000 1.0
C      1  0.4718030000000  0.4930200000000  0.4469940000000 1.0
C      1  0.4477450000000  0.4738830000000  0.4941040000000 1.0
C      1  0.5074200000000  0.4468320000000  0.5266590000000 1.0
C      1  0.4935900000000  0.5527620000000  0.5264060000000 1.0
C      1  0.5069940000000  0.5532250000000  0.4725350000000 1.0
C      1  0.5276320000000  0.4922160000000  0.5530400000000 1.0
C      1  0.4725960000000  0.5075770000000  0.5531610000000 1.0
C      1  0.5253900000000  0.5066290000000  0.4473310000000 1.0
C      1  0.5534410000000  0.4730890000000  0.5060980000000 1.0
C      1  0.4470750000000  0.5273560000000  0.5072450000000 1.0
C      1  0.5539660000000  0.5267620000000  0.4914360000000 1.0
C      1  0.4924600000000  0.5521920000000  0.4729810000000 1.0
C      1  0.4715930000000  0.5074530000000  0.4463210000000 1.0
C      1  0.4461430000000  0.5275940000000  0.4930290000000 1.0
C      1  0.5080210000000  0.5532770000000  0.5261900000000 1.0
C      1  0.4923710000000  0.4504500000000  0.5253090000000 1.0
C      1  0.5056110000000  0.4469350000000  0.4734840000000 1.0
C      1  0.5278370000000  0.5066310000000  0.5532270000000 1.0
C      1  0.4728940000000  0.4933510000000  0.5521240000000 1.0
C      1  0.5253490000000  0.4922330000000  0.4471900000000 1.0
C      1  0.5540050000000  0.5268360000000  0.5059700000000 1.0
C      1  0.4476840000000  0.4733680000000  0.5087390000000 1.0
C      1  0.5535880000000  0.4727640000000  0.4917610000000 1.0
C      1  0.4938120000000  0.4682210000000  0.4859920000000 1.0
C      1  0.4997480000000  0.4878840000000  0.4721570000000 1.0
C      1  0.4774340000000  0.4834770000000  0.4778620000000 1.0
C      1  0.5174700000000  0.4724430000000  0.5175130000000 1.0
C      1  0.4827650000000  0.5248480000000  0.5044270000000 1.0
C      1  0.5146610000000  0.5274260000000  0.4988120000000 1.0
C      1  0.5016800000000  0.4860350000000  0.5280090000000 1.0
C      1  0.4772960000000  0.5192380000000  0.5252500000000 1.0
C      1  0.5206320000000  0.5252570000000  0.4761620000000 1.0
C      1  0.5241080000000  0.4840600000000  0.5225960000000 1.0
C      1  0.4636360000000  0.5088270000000  0.5098640000000 1.0
C      1  0.5325780000000  0.5104400000000  0.4934190000000 1.0
C      1  0.4864560000000  0.5266240000000  0.4908970000000 1.0
C      1  0.4965520000000  0.5148020000000  0.4725140000000 1.0
C      1  0.4733600000000  0.5146520000000  0.4741350000000 1.0
C      1  0.5108320000000  0.5282110000000  0.5124820000000 1.0
C      1  0.4814550000000  0.4708440000000  0.5137470000000 1.0
C      1  0.5271020000000  0.4751780000000  0.4849420000000 1.0
C      1  0.5056980000000  0.5171420000000  0.5330870000000 1.0
C      1  0.4893040000000  0.4902900000000  0.5343400000000 1.0
C      1  0.5135230000000  0.4918390000000  0.4719140000000 1.0
C      1  0.5260200000000  0.5155500000000  0.5274600000000 1.0
C      1  0.4764530000000  0.4838870000000  0.5142500000000 1.0
C      1  0.5298640000000  0.4964860000000  0.4902030000000 1.0
C      1  0.4913260000000  0.5263120000000  0.4470760000000 1.0
C      1  0.4472730000000  0.4925820000000  0.5281550000000 1.0
C      1  0.5256240000000  0.4471900000000  0.4923800000000 1.0
C      1  0.5072150000000  0.5242490000000  0.5475810000000 1.0
C      1  0.4935940000000  0.4730840000000  0.5517630000000 1.0
C      1  0.5054820000000  0.4731470000000  0.4478350000000 1.0
C      1  0.5531350000000  0.4924220000000  0.4723340000000 1.0
C      1  0.4464790000000  0.5078940000000  0.4738480000000 1.0
C      1  0.5535390000000  0.5071630000000  0.5257230000000 1.0
C      1  0.4720680000000  0.4459670000000  0.5079230000000 1.0
C      1  0.5273510000000  0.5531180000000  0.5065110000000 1.0
C      1  0.4736140000000  0.5517720000000  0.4926160000000 1.0
C      1  0.4910280000000  0.4734510000000  0.4478530000000 1.0
C      1  0.4468870000000  0.5070580000000  0.5283210000000 1.0
C      1  0.5270120000000  0.5529830000000  0.4919690000000 1.0
C      1  0.5079610000000  0.4727830000000  0.5524730000000 1.0
C      1  0.4927890000000  0.5264020000000  0.5520250000000 1.0
C      1  0.5058480000000  0.5261530000000  0.4474640000000 1.0
C      1  0.5536340000000  0.5067920000000  0.4720540000000 1.0
C      1  0.4472130000000  0.4933990000000  0.4745510000000 1.0
C      1  0.5529990000000  0.4926810000000  0.5255980000000 1.0
C      1  0.4738900000000  0.5519140000000  0.5071210000000 1.0
C      1  0.5258990000000  0.4474200000000  0.5065690000000 1.0
C      1  0.4720490000000  0.4463450000000  0.4934320000000 1.0
C      1  0.4873450000000  0.5252720000000  0.5178080000000 1.0
C      1  0.5138600000000  0.4931750000000  0.5278600000000 1.0
C      1  0.5267840000000  0.5199430000000  0.5021340000000 1.0
C      1  0.5104490000000  0.5287580000000  0.4854090000000 1.0
C      1  0.5028000000000  0.4746860000000  0.4779030000000 1.0
C      1  0.5034790000000  0.4737540000000  0.5208200000000 1.0
C      1  0.4864320000000  0.4927820000000  0.4718460000000 1.0
C      1  0.5275920000000  0.5140340000000  0.4790020000000 1.0
C      1  0.4728910000000  0.5061930000000  0.5215870000000 1.0
C      1  0.4711730000000  0.5168100000000  0.5007730000000 1.0
C      1  0.5258460000000  0.4802740000000  0.5092600000000 1.0
C      1  0.4816070000000  0.4756610000000  0.4887860000000 1.0
C      1  0.4929770000000  0.4646710000000  0.5184520000000 1.0
C      1  0.5153260000000  0.5067450000000  0.5297810000000 1.0
C      1  0.5279740000000  0.4836670000000  0.4961230000000 1.0
C      1  0.5172830000000  0.4771790000000  0.4758490000000 1.0
C      1  0.4974880000000  0.5244660000000  0.4820300000000 1.0
C      1  0.5007590000000  0.5245000000000  0.5213430000000 1.0
C      1  0.4852550000000  0.5069040000000  0.4705960000000 1.0
C      1  0.5233410000000  0.5000570000000  0.4775230000000 1.0
C      1  0.4788020000000  0.4937520000000  0.5241810000000 1.0
C      1  0.4769760000000  0.4771860000000  0.5020580000000 1.0
C      1  0.5248470000000  0.5233160000000  0.5165150000000 1.0
C      1  0.4736970000000  0.5194920000000  0.4869510000000 1.0
C      1  0.4498300000000  0.4716090000000  0.4622100000000 1.0
C      1  0.4599180000000  0.4511630000000  0.4717670000000 1.0
C      1  0.4691460000000  0.4613370000000  0.4514540000000 1.0
C      1  0.5493080000000  0.4710540000000  0.5375370000000 1.0
C      1  0.4506430000000  0.5294190000000  0.5392830000000 1.0
C      1  0.5486470000000  0.5281720000000  0.4601780000000 1.0
C      1  0.5383120000000  0.4515270000000  0.5276520000000 1.0
C      1  0.4617850000000  0.5486460000000  0.5290760000000 1.0
C      1  0.5380010000000  0.5480780000000  0.4699580000000 1.0
C      1  0.5298020000000  0.4610240000000  0.5481410000000 1.0
C      1  0.4714150000000  0.5388940000000  0.5491000000000 1.0
C      1  0.5279940000000  0.5378400000000  0.4505070000000 1.0
C      1  0.4498890000000  0.5293430000000  0.4612510000000 1.0
C      1  0.4609220000000  0.5490760000000  0.4708540000000 1.0
C      1  0.4696450000000  0.5391660000000  0.4503130000000 1.0
C      1  0.5496730000000  0.5285090000000  0.5380860000000 1.0
C      1  0.4504780000000  0.4702270000000  0.5406030000000 1.0
C      1  0.5477520000000  0.4706170000000  0.4610400000000 1.0
C      1  0.5394100000000  0.5485170000000  0.5282850000000 1.0
C      1  0.4608070000000  0.4501310000000  0.5302600000000 1.0
C      1  0.5375910000000  0.4507640000000  0.4708730000000 1.0
C      1  0.5292540000000  0.5376500000000  0.5481940000000 1.0
C      1  0.4711420000000  0.4610630000000  0.5500650000000 1.0
C      1  0.5271690000000  0.4612310000000  0.4511460000000 1.0
C      1  0.4701370000000  0.5495770000000  0.4606870000000 1.0
C      1  0.4612030000000  0.4706340000000  0.5507170000000 1.0
C      1  0.5482050000000  0.4607610000000  0.4706200000000 1.0
C      1  0.5297470000000  0.5481800000000  0.5381590000000 1.0
C      1  0.4708350000000  0.4505160000000  0.5398270000000 1.0
C      1  0.5274500000000  0.4509860000000  0.4615050000000 1.0
C      1  0.5370530000000  0.4707300000000  0.4512680000000 1.0
C      1  0.4598140000000  0.5293700000000  0.4504490000000 1.0
C      1  0.5392710000000  0.5282400000000  0.5484160000000 1.0
C      1  0.4510040000000  0.4608360000000  0.5305160000000 1.0
C      1  0.5497620000000  0.5381560000000  0.5281000000000 1.0
C      1  0.4501870000000  0.5392180000000  0.4709370000000 1.0
C      1  0.4692380000000  0.4510790000000  0.4617350000000 1.0
C      1  0.4611470000000  0.5296060000000  0.5494490000000 1.0
C      1  0.5485430000000  0.5380560000000  0.4697750000000 1.0
C      1  0.5294200000000  0.4505740000000  0.5380260000000 1.0
C      1  0.4716750000000  0.5489610000000  0.5386540000000 1.0
C      1  0.5284130000000  0.5488740000000  0.4601240000000 1.0
C      1  0.5376810000000  0.5280670000000  0.4505770000000 1.0
C      1  0.4596200000000  0.4713310000000  0.4514610000000 1.0
C      1  0.5396730000000  0.4707070000000  0.5484070000000 1.0
C      1  0.4509480000000  0.5389710000000  0.5292390000000 1.0
C      1  0.5486780000000  0.4615230000000  0.5276240000000 1.0
C      1  0.4504160000000  0.4620530000000  0.4720910000000 1.0
C      1  0.4837630000000  0.4518570000000  0.4627960000000 1.0
C      1  0.4609640000000  0.4860100000000  0.4521950000000 1.0
C      1  0.4513960000000  0.4626850000000  0.4866640000000 1.0
C      1  0.5148260000000  0.4509930000000  0.5376230000000 1.0
C      1  0.4862570000000  0.5483860000000  0.5376560000000 1.0
C      1  0.5137800000000  0.5484020000000  0.4613900000000 1.0
C      1  0.5387950000000  0.4853750000000  0.5481680000000 1.0
C      1  0.4611600000000  0.5149890000000  0.5499400000000 1.0
C      1  0.5370190000000  0.5134950000000  0.4511580000000 1.0
C      1  0.5484540000000  0.4620090000000  0.5130460000000 1.0
C      1  0.4515320000000  0.5383380000000  0.5144930000000 1.0
C      1  0.5488770000000  0.5377990000000  0.4844310000000 1.0
C      1  0.4847330000000  0.5476280000000  0.4621930000000 1.0
C      1  0.4607580000000  0.5147690000000  0.4512930000000 1.0
C      1  0.4509640000000  0.5383530000000  0.4855330000000 1.0
C      1  0.5152130000000  0.5481140000000  0.5370990000000 1.0
C      1  0.4852550000000  0.4513600000000  0.5383720000000 1.0
C      1  0.5128310000000  0.4513260000000  0.4623960000000 1.0
C      1  0.5388680000000  0.5137070000000  0.5481590000000 1.0
C      1  0.4618270000000  0.4855000000000  0.5493060000000 1.0
C      1  0.5366880000000  0.4852940000000  0.4514960000000 1.0
C      1  0.5492920000000  0.5377860000000  0.5133800000000 1.0
C      1  0.4514080000000  0.4618570000000  0.5159110000000 1.0
C      1  0.5481200000000  0.4616510000000  0.4851770000000 1.0
C      1  0.5154640000000  0.5573860000000  0.5141680000000 1.0
C      1  0.5158110000000  0.5142660000000  0.5563110000000 1.0
C      1  0.5576550000000  0.5147570000000  0.5135800000000 1.0
C      1  0.4852820000000  0.5561380000000  0.4850110000000 1.0
C      1  0.5133310000000  0.4430650000000  0.4852440000000 1.0
C      1  0.4840040000000  0.4422410000000  0.5151790000000 1.0
C      1  0.4836750000000  0.5148020000000  0.4422370000000 1.0
C      1  0.5132700000000  0.4846980000000  0.4434870000000 1.0
C      1  0.4867660000000  0.4868500000000  0.5499960000000 1.0
C      1  0.4421750000000  0.5155650000000  0.4856890000000 1.0
C      1  0.5576760000000  0.4846170000000  0.4839980000000 1.0
C      1  0.4434330000000  0.4852620000000  0.5161780000000 1.0
C      1  0.5143140000000  0.4429670000000  0.5146210000000 1.0
C      1  0.5156090000000  0.4845980000000  0.5565400000000 1.0
C      1  0.5571890000000  0.4850980000000  0.5136520000000 1.0
C      1  0.4838230000000  0.4422700000000  0.4856720000000 1.0
C      1  0.5150870000000  0.5572970000000  0.4843330000000 1.0
C      1  0.4858330000000  0.5562960000000  0.5144570000000 1.0
C      1  0.4836690000000  0.4852290000000  0.4432300000000 1.0
C      1  0.5133810000000  0.5142630000000  0.4433610000000 1.0
C      1  0.4848500000000  0.5150540000000  0.5564440000000 1.0
C      1  0.4434400000000  0.4858790000000  0.4867080000000 1.0
C      1  0.5580840000000  0.5148040000000  0.4836610000000 1.0
C      1  0.4481610000000  0.5136570000000  0.5142730000000 1.0
C      1  0.5492720000000  0.5139380000000  0.5373170000000 1.0
C      1  0.5385740000000  0.5484060000000  0.5136540000000 1.0
C      1  0.5147890000000  0.5369670000000  0.5467440000000 1.0
C      1  0.4506290000000  0.5148280000000  0.4623220000000 1.0
C      1  0.5475680000000  0.4853040000000  0.4616670000000 1.0
C      1  0.4513070000000  0.4849260000000  0.5390360000000 1.0
C      1  0.4623440000000  0.5479140000000  0.4853050000000 1.0
C      1  0.5371180000000  0.4514040000000  0.4854310000000 1.0
C      1  0.4611670000000  0.4506360000000  0.5155440000000 1.0
C      1  0.4843300000000  0.5374700000000  0.4514710000000 1.0
C      1  0.5126500000000  0.4619540000000  0.4519490000000 1.0
C      1  0.4857560000000  0.4618580000000  0.5487250000000 1.0
C      1  0.5487110000000  0.4856210000000  0.5369840000000 1.0
C      1  0.5373800000000  0.4519870000000  0.5131850000000 1.0
C      1  0.5152490000000  0.4617050000000  0.5481380000000 1.0
C      1  0.4511610000000  0.4862100000000  0.4632350000000 1.0
C      1  0.5485140000000  0.5135230000000  0.4608570000000 1.0
C      1  0.4502810000000  0.5146650000000  0.5395560000000 1.0
C      1  0.4612420000000  0.4515820000000  0.4863160000000 1.0
C      1  0.5379200000000  0.5481290000000  0.4845320000000 1.0
C      1  0.4626600000000  0.5481670000000  0.5145460000000 1.0
C      1  0.4837650000000  0.4624670000000  0.4524280000000 1.0
C      1  0.5133580000000  0.5372000000000  0.4515430000000 1.0
C      1  0.4861000000000  0.5379740000000  0.5484670000000 1.0
C      1  0.5071390000000  0.4925120000000  0.5636210000000 1.0
C      1  0.5657750000000  0.5068550000000  0.4915940000000 1.0
C      1  0.4932260000000  0.5648000000000  0.5066990000000 1.0
C      1  0.4915210000000  0.4926120000000  0.4348860000000 1.0
C      1  0.5058410000000  0.5066340000000  0.4347200000000 1.0
C      1  0.4931340000000  0.5067320000000  0.5635300000000 1.0
C      1  0.4364420000000  0.5075000000000  0.5083710000000 1.0
C      1  0.5656890000000  0.4926830000000  0.5059260000000 1.0
C      1  0.4348340000000  0.4934810000000  0.4944600000000 1.0
C      1  0.5072380000000  0.5651630000000  0.4922180000000 1.0
C      1  0.4917820000000  0.4341240000000  0.4932620000000 1.0
C      1  0.5063020000000  0.4344940000000  0.5072040000000 1.0
C      1  0.5074270000000  0.5068180000000  0.5641210000000 1.0
C      1  0.5656720000000  0.4925650000000  0.4917080000000 1.0
C      1  0.4919990000000  0.4342340000000  0.5076480000000 1.0
C      1  0.4916060000000  0.5068570000000  0.4344380000000 1.0
C      1  0.5057270000000  0.4924140000000  0.4350810000000 1.0
C      1  0.4931550000000  0.4927640000000  0.5618080000000 1.0
C      1  0.4353590000000  0.4933720000000  0.5086580000000 1.0
C      1  0.5660030000000  0.5069390000000  0.5058700000000 1.0
C      1  0.4348140000000  0.5077430000000  0.4942640000000 1.0
C      1  0.5060310000000  0.4342630000000  0.4929800000000 1.0
C      1  0.4929870000000  0.5646400000000  0.4924870000000 1.0
C      1  0.5074760000000  0.5653750000000  0.5064840000000 1.0
END
