TITL C-114178-678-8 7.50675276839127 1000000 -1665.15577136515 0 0 240 (D2h) n - 1
REM
REM in /home/chem/mssmkc/work/GAP20/Larger-Clusters/Only-C240/New/BUILD-ONLY
REM
REM
REM
REM
REM
REM ./C.cell (daee87de7206da95283bc1c1416dbc6f)
REM
REM compiler GCC version 8.3.0
REM options -cpp -mtune=generic -march=x86-64 -g -O0
REM seed 1698310280 -1783529363 -816637458 335710593 -1388677414 566743260 -298579204 -1956934622 1075498201 1771390146 932626455 1257229573 1152370947 1519021480 -167364196 -2009976187 1888908824 271153356 -764298525 -859917822 -1521532467 -1710537911 -122361223 -379124810 787226539 1484728606 680725164 1570851538 -1977462004 -162617731 591585267 244823994 -1169376557
REM
CELL 1.54180  100.00000  100.00000  100.00000   90.00000   90.00000   90.00000
LATT -1
SFAC C  
C      1  0.4634170000000  0.5158720000000  0.5134480000000 1.0
C      1  0.5132690000000  0.5154710000000  0.4637890000000 1.0
C      1  0.5147750000000  0.4636190000000  0.5169090000000 1.0
C      1  0.5365850000000  0.5158670000000  0.4865510000000 1.0
C      1  0.5365840000000  0.4841280000000  0.5134460000000 1.0
C      1  0.4634140000000  0.4841330000000  0.4865550000000 1.0
C      1  0.4867330000000  0.5154750000000  0.5362100000000 1.0
C      1  0.4867280000000  0.4845270000000  0.4637910000000 1.0
C      1  0.5132700000000  0.4845270000000  0.5362100000000 1.0
C      1  0.4852200000000  0.4636200000000  0.4830940000000 1.0
C      1  0.4852270000000  0.5363820000000  0.5169080000000 1.0
C      1  0.5147790000000  0.5363790000000  0.4830900000000 1.0
C      1  0.4634150000000  0.4841330000000  0.5134490000000 1.0
C      1  0.5132670000000  0.4845250000000  0.4637900000000 1.0
C      1  0.5147800000000  0.5363800000000  0.5169060000000 1.0
C      1  0.5365830000000  0.4841280000000  0.4865520000000 1.0
C      1  0.5365860000000  0.5158670000000  0.5134450000000 1.0
C      1  0.4634160000000  0.5158720000000  0.4865540000000 1.0
C      1  0.4867310000000  0.4845290000000  0.5362110000000 1.0
C      1  0.4867300000000  0.5154730000000  0.4637900000000 1.0
C      1  0.5132720000000  0.5154730000000  0.5362090000000 1.0
C      1  0.4852250000000  0.5363810000000  0.4830910000000 1.0
C      1  0.4852210000000  0.4636210000000  0.5169100000000 1.0
C      1  0.5147730000000  0.4636180000000  0.4830920000000 1.0
C      1  0.4736520000000  0.5386610000000  0.5079800000000 1.0
C      1  0.5312730000000  0.5069960000000  0.4774840000000 1.0
C      1  0.5075280000000  0.4712820000000  0.5396490000000 1.0
C      1  0.5263530000000  0.5386560000000  0.4920170000000 1.0
C      1  0.5263480000000  0.4613400000000  0.5079810000000 1.0
C      1  0.4736460000000  0.4613430000000  0.4920220000000 1.0
C      1  0.4687280000000  0.5070020000000  0.5225160000000 1.0
C      1  0.4687250000000  0.4930020000000  0.4774860000000 1.0
C      1  0.5312740000000  0.4929990000000  0.5225140000000 1.0
C      1  0.4924680000000  0.4712800000000  0.4603520000000 1.0
C      1  0.4924750000000  0.5287210000000  0.5396480000000 1.0
C      1  0.5075290000000  0.5287170000000  0.4603500000000 1.0
C      1  0.4736470000000  0.4613440000000  0.5079830000000 1.0
C      1  0.5312720000000  0.4929980000000  0.4774840000000 1.0
C      1  0.5075320000000  0.5287200000000  0.5396480000000 1.0
C      1  0.5263480000000  0.4613390000000  0.4920200000000 1.0
C      1  0.5263540000000  0.5386570000000  0.5079780000000 1.0
C      1  0.4736520000000  0.5386600000000  0.4920190000000 1.0
C      1  0.4687270000000  0.4930040000000  0.5225160000000 1.0
C      1  0.4687260000000  0.5070010000000  0.4774860000000 1.0
C      1  0.5312750000000  0.5069980000000  0.5225140000000 1.0
C      1  0.4924720000000  0.5287180000000  0.4603510000000 1.0
C      1  0.4924710000000  0.4712830000000  0.5396500000000 1.0
C      1  0.5075250000000  0.4712790000000  0.4603520000000 1.0
C      1  0.5142280000000  0.5070670000000  0.4527440000000 1.0
C      1  0.5073250000000  0.4511740000000  0.5218280000000 1.0
C      1  0.4508300000000  0.5177750000000  0.5071620000000 1.0
C      1  0.4857730000000  0.5070720000000  0.5472560000000 1.0
C      1  0.4857690000000  0.4929300000000  0.4527450000000 1.0
C      1  0.5142300000000  0.4929310000000  0.5472550000000 1.0
C      1  0.4926680000000  0.4511740000000  0.4781750000000 1.0
C      1  0.4926770000000  0.5488270000000  0.5218260000000 1.0
C      1  0.5073300000000  0.5488250000000  0.4781710000000 1.0
C      1  0.5491720000000  0.5177680000000  0.4928370000000 1.0
C      1  0.5491700000000  0.4822260000000  0.5071600000000 1.0
C      1  0.4508270000000  0.4822320000000  0.4928410000000 1.0
C      1  0.5142270000000  0.4929280000000  0.4527440000000 1.0
C      1  0.5073320000000  0.5488260000000  0.5218250000000 1.0
C      1  0.4508280000000  0.4822320000000  0.5071630000000 1.0
C      1  0.4857720000000  0.4929330000000  0.5472560000000 1.0
C      1  0.4857700000000  0.5070690000000  0.4527450000000 1.0
C      1  0.5142310000000  0.5070700000000  0.5472550000000 1.0
C      1  0.4926750000000  0.5488260000000  0.4781720000000 1.0
C      1  0.4926700000000  0.4511750000000  0.5218290000000 1.0
C      1  0.5073230000000  0.4511730000000  0.4781740000000 1.0
C      1  0.5491700000000  0.4822250000000  0.4928380000000 1.0
C      1  0.5491730000000  0.5177680000000  0.5071590000000 1.0
C      1  0.4508300000000  0.5177740000000  0.4928400000000 1.0
C      1  0.5140300000000  0.5392650000000  0.4685110000000 1.0
C      1  0.5373160000000  0.4698860000000  0.5135860000000 1.0
C      1  0.4730490000000  0.5142510000000  0.5343640000000 1.0
C      1  0.4859750000000  0.5392690000000  0.5314870000000 1.0
C      1  0.4859670000000  0.4607330000000  0.4685150000000 1.0
C      1  0.5140270000000  0.4607330000000  0.5314880000000 1.0
C      1  0.4626800000000  0.4698900000000  0.4864160000000 1.0
C      1  0.4626850000000  0.5301150000000  0.5135870000000 1.0
C      1  0.5373190000000  0.5301090000000  0.4864120000000 1.0
C      1  0.5269530000000  0.5142450000000  0.4656350000000 1.0
C      1  0.5269540000000  0.4857510000000  0.5343630000000 1.0
C      1  0.4730440000000  0.4857530000000  0.4656380000000 1.0
C      1  0.5140250000000  0.4607310000000  0.4685130000000 1.0
C      1  0.5373200000000  0.5301100000000  0.5135840000000 1.0
C      1  0.4730470000000  0.4857550000000  0.5343650000000 1.0
C      1  0.4859700000000  0.4607350000000  0.5314890000000 1.0
C      1  0.4859730000000  0.5392670000000  0.4685120000000 1.0
C      1  0.5140330000000  0.5392670000000  0.5314850000000 1.0
C      1  0.4626840000000  0.5301140000000  0.4864140000000 1.0
C      1  0.4626810000000  0.4698910000000  0.5135880000000 1.0
C      1  0.5373150000000  0.4698850000000  0.4864130000000 1.0
C      1  0.5269510000000  0.4857490000000  0.4656360000000 1.0
C      1  0.5269560000000  0.5142470000000  0.5343620000000 1.0
C      1  0.4730460000000  0.5142490000000  0.4656370000000 1.0
C      1  0.4650260000000  0.4519710000000  0.4720210000000 1.0
C      1  0.4516290000000  0.4733840000000  0.4660830000000 1.0
C      1  0.4719630000000  0.4666520000000  0.4516580000000 1.0
C      1  0.5349670000000  0.4519680000000  0.5279820000000 1.0
C      1  0.5349720000000  0.5480280000000  0.4720160000000 1.0
C      1  0.4650350000000  0.5480340000000  0.5279820000000 1.0
C      1  0.5483670000000  0.4733790000000  0.5339180000000 1.0
C      1  0.5483690000000  0.5266140000000  0.4660780000000 1.0
C      1  0.4516350000000  0.5266230000000  0.5339200000000 1.0
C      1  0.5280330000000  0.4666510000000  0.5483440000000 1.0
C      1  0.5280340000000  0.5333460000000  0.4516540000000 1.0
C      1  0.4719710000000  0.5333520000000  0.5483440000000 1.0
C      1  0.4650330000000  0.5480320000000  0.4720180000000 1.0
C      1  0.4516330000000  0.5266210000000  0.4660820000000 1.0
C      1  0.4719670000000  0.5333490000000  0.4516560000000 1.0
C      1  0.5349740000000  0.5480290000000  0.5279790000000 1.0
C      1  0.5349650000000  0.4519660000000  0.4720180000000 1.0
C      1  0.4650280000000  0.4519730000000  0.5279840000000 1.0
C      1  0.5483710000000  0.5266160000000  0.5339170000000 1.0
C      1  0.5483650000000  0.4733770000000  0.4660800000000 1.0
C      1  0.4516310000000  0.4733860000000  0.5339220000000 1.0
C      1  0.5280370000000  0.5333480000000  0.5483420000000 1.0
C      1  0.5280290000000  0.4666480000000  0.4516560000000 1.0
C      1  0.4719660000000  0.4666540000000  0.5483460000000 1.0
C      1  0.5582270000000  0.5173590000000  0.4700890000000 1.0
C      1  0.5150120000000  0.4703180000000  0.5543290000000 1.0
C      1  0.4703500000000  0.5539880000000  0.5153500000000 1.0
C      1  0.4417750000000  0.5173690000000  0.5299100000000 1.0
C      1  0.4417710000000  0.4826390000000  0.4700940000000 1.0
C      1  0.5582270000000  0.4826330000000  0.5299070000000 1.0
C      1  0.4849840000000  0.4703170000000  0.4456730000000 1.0
C      1  0.4849920000000  0.5296850000000  0.5543280000000 1.0
C      1  0.5150120000000  0.5296800000000  0.4456700000000 1.0
C      1  0.5296570000000  0.5539830000000  0.4846470000000 1.0
C      1  0.5296510000000  0.4460130000000  0.5153510000000 1.0
C      1  0.4703420000000  0.4460160000000  0.4846520000000 1.0
C      1  0.5582250000000  0.4826310000000  0.4700900000000 1.0
C      1  0.5150160000000  0.5296830000000  0.5543270000000 1.0
C      1  0.4703430000000  0.4460170000000  0.5153530000000 1.0
C      1  0.4417730000000  0.4826410000000  0.5299110000000 1.0
C      1  0.4417730000000  0.5173670000000  0.4700930000000 1.0
C      1  0.5582290000000  0.5173610000000  0.5299060000000 1.0
C      1  0.4849880000000  0.5296820000000  0.4456710000000 1.0
C      1  0.4849880000000  0.4703200000000  0.5543300000000 1.0
C      1  0.5150080000000  0.4703150000000  0.4456720000000 1.0
C      1  0.5296500000000  0.4460120000000  0.4846500000000 1.0
C      1  0.5296580000000  0.5539840000000  0.5153480000000 1.0
C      1  0.4703490000000  0.5539870000000  0.4846490000000 1.0
C      1  0.5142560000000  0.4849860000000  0.4410380000000 1.0
C      1  0.4847260000000  0.4407080000000  0.5161480000000 1.0
C      1  0.4392230000000  0.5157010000000  0.4848770000000 1.0
C      1  0.4857420000000  0.4849910000000  0.5589630000000 1.0
C      1  0.4857390000000  0.5150110000000  0.4410380000000 1.0
C      1  0.5142630000000  0.5150120000000  0.5589610000000 1.0
C      1  0.5152650000000  0.4407050000000  0.4838560000000 1.0
C      1  0.5152750000000  0.5592930000000  0.5161430000000 1.0
C      1  0.4847330000000  0.5592940000000  0.4838530000000 1.0
C      1  0.5607790000000  0.5156940000000  0.5151220000000 1.0
C      1  0.5607760000000  0.4842980000000  0.4848730000000 1.0
C      1  0.4392220000000  0.4843070000000  0.5151280000000 1.0
C      1  0.5142580000000  0.5150090000000  0.4410370000000 1.0
C      1  0.4847350000000  0.5592950000000  0.5161440000000 1.0
C      1  0.4392210000000  0.4843060000000  0.4848780000000 1.0
C      1  0.4857440000000  0.5150140000000  0.5589620000000 1.0
C      1  0.4857370000000  0.4849880000000  0.4410390000000 1.0
C      1  0.5142610000000  0.4849890000000  0.5589620000000 1.0
C      1  0.5152740000000  0.5592920000000  0.4838520000000 1.0
C      1  0.5152670000000  0.4407060000000  0.5161470000000 1.0
C      1  0.4847250000000  0.4407070000000  0.4838570000000 1.0
C      1  0.5607770000000  0.4842990000000  0.5151230000000 1.0
C      1  0.5607780000000  0.5156930000000  0.4848720000000 1.0
C      1  0.4392240000000  0.5157020000000  0.5151270000000 1.0
C      1  0.4608460000000  0.5611880000000  0.5063550000000 1.0
C      1  0.5614270000000  0.5062800000000  0.4619360000000 1.0
C      1  0.5063680000000  0.4602470000000  0.5613570000000 1.0
C      1  0.5391630000000  0.5611820000000  0.4936420000000 1.0
C      1  0.5391550000000  0.4388130000000  0.5063560000000 1.0
C      1  0.4608370000000  0.4388180000000  0.4936480000000 1.0
C      1  0.4385740000000  0.5062910000000  0.5380640000000 1.0
C      1  0.4385700000000  0.4937180000000  0.4619410000000 1.0
C      1  0.5614290000000  0.4937110000000  0.5380600000000 1.0
C      1  0.4936270000000  0.4602440000000  0.4386450000000 1.0
C      1  0.4936370000000  0.5397570000000  0.5613550000000 1.0
C      1  0.5063690000000  0.5397530000000  0.4386420000000 1.0
C      1  0.4608370000000  0.4388180000000  0.5063580000000 1.0
C      1  0.5614260000000  0.4937090000000  0.4619360000000 1.0
C      1  0.5063730000000  0.5397560000000  0.5613550000000 1.0
C      1  0.5391540000000  0.4388120000000  0.4936450000000 1.0
C      1  0.5391630000000  0.5611820000000  0.5063520000000 1.0
C      1  0.4608450000000  0.5611870000000  0.4936440000000 1.0
C      1  0.4385730000000  0.4937200000000  0.5380640000000 1.0
C      1  0.4385710000000  0.5062890000000  0.4619400000000 1.0
C      1  0.5614300000000  0.5062820000000  0.5380590000000 1.0
C      1  0.4936320000000  0.5397530000000  0.4386430000000 1.0
C      1  0.4936310000000  0.4602470000000  0.5613580000000 1.0
C      1  0.5063630000000  0.4602430000000  0.4386450000000 1.0
C      1  0.4926450000000  0.5669980000000  0.4925790000000 1.0
C      1  0.5696240000000  0.4925230000000  0.4926610000000 1.0
C      1  0.4925150000000  0.4926790000000  0.5687450000000 1.0
C      1  0.5073640000000  0.5669980000000  0.5074170000000 1.0
C      1  0.5073540000000  0.4330010000000  0.4925820000000 1.0
C      1  0.4926360000000  0.4330030000000  0.5074220000000 1.0
C      1  0.4303750000000  0.4925330000000  0.5073390000000 1.0
C      1  0.4303760000000  0.5074760000000  0.4926660000000 1.0
C      1  0.5696250000000  0.5074670000000  0.5073340000000 1.0
C      1  0.5074840000000  0.4926740000000  0.4312550000000 1.0
C      1  0.5074900000000  0.5073250000000  0.5687440000000 1.0
C      1  0.4925110000000  0.5073220000000  0.4312550000000 1.0
C      1  0.4926360000000  0.4330020000000  0.4925830000000 1.0
C      1  0.5696250000000  0.5074670000000  0.4926610000000 1.0
C      1  0.4925160000000  0.5073260000000  0.5687450000000 1.0
C      1  0.5073550000000  0.4330020000000  0.5074210000000 1.0
C      1  0.5073640000000  0.5669970000000  0.4925780000000 1.0
C      1  0.4926460000000  0.5669990000000  0.5074180000000 1.0
C      1  0.4303760000000  0.5074770000000  0.5073390000000 1.0
C      1  0.4303750000000  0.4925330000000  0.4926660000000 1.0
C      1  0.5696240000000  0.4925240000000  0.5073340000000 1.0
C      1  0.5074850000000  0.5073210000000  0.4312550000000 1.0
C      1  0.5074890000000  0.4926780000000  0.5687450000000 1.0
C      1  0.4925100000000  0.4926750000000  0.4312560000000 1.0
C      1  0.5433360000000  0.4633950000000  0.5248460000000 1.0
C      1  0.4640950000000  0.5232890000000  0.5418590000000 1.0
C      1  0.5260980000000  0.5437420000000  0.4619080000000 1.0
C      1  0.4566590000000  0.4634000000000  0.4751560000000 1.0
C      1  0.4566650000000  0.5366060000000  0.5248480000000 1.0
C      1  0.5433400000000  0.5365980000000  0.4751500000000 1.0
C      1  0.5359080000000  0.5232810000000  0.4581400000000 1.0
C      1  0.5359080000000  0.4767140000000  0.5418580000000 1.0
C      1  0.4640880000000  0.4767160000000  0.4581440000000 1.0
C      1  0.4739090000000  0.5437480000000  0.5380890000000 1.0
C      1  0.4739000000000  0.4562550000000  0.4619130000000 1.0
C      1  0.5260940000000  0.4562540000000  0.5380900000000 1.0
C      1  0.5433410000000  0.5366000000000  0.5248440000000 1.0
C      1  0.4640920000000  0.4767190000000  0.5418600000000 1.0
C      1  0.5260910000000  0.4562520000000  0.4619110000000 1.0
C      1  0.4566640000000  0.5366050000000  0.4751540000000 1.0
C      1  0.4566600000000  0.4634020000000  0.5248500000000 1.0
C      1  0.5433340000000  0.4633940000000  0.4751520000000 1.0
C      1  0.5359050000000  0.4767110000000  0.4581410000000 1.0
C      1  0.5359120000000  0.5232840000000  0.5418560000000 1.0
C      1  0.4640920000000  0.5232860000000  0.4581420000000 1.0
C      1  0.4739020000000  0.4562580000000  0.5380920000000 1.0
C      1  0.4739060000000  0.5437460000000  0.4619100000000 1.0
C      1  0.5261000000000  0.5437450000000  0.5380870000000 1.0
END
