TITL C-114178-678-12 0.0508339715492169 1000000 -1731.75460439525 0 0 240 (Td) n - 1
REM
REM in /home/chem/mssmkc/work/GAP20/Larger-Clusters/Only-C240/New/BUILD-ONLY
REM
REM
REM
REM
REM
REM ./C.cell (daee87de7206da95283bc1c1416dbc6f)
REM
REM compiler GCC version 8.3.0
REM options -cpp -mtune=generic -march=x86-64 -g -O0
REM seed 1785603183 1363569726 -1386783121 1285838668 -45938096 -181758257 -584267814 84824497 -1632430581 2138589409 378402540 1628857085 1622860669 331661637 -895005074 927543424 -1488798339 1577832184 -251532996 -581386092 -628939028 1952889948 1758041803 2021220439 -1918792660 -1155479155 1099140015 379946476 1105684530 -1268873021 -1413718209 577067420 833690530
REM
CELL 1.54180  100.00000  100.00000  100.00000   90.00000   90.00000   90.00000
LATT -1
SFAC C  
C      1  0.5127570000000  0.5223780000000  0.4414190000000 1.0
C      1  0.5223780000000  0.4414190000000  0.5127560000000 1.0
C      1  0.4414180000000  0.5127550000000  0.5223760000000 1.0
C      1  0.4872450000000  0.4776230000000  0.4414180000000 1.0
C      1  0.5127560000000  0.4776230000000  0.5585820000000 1.0
C      1  0.4872420000000  0.5223760000000  0.5585820000000 1.0
C      1  0.4776220000000  0.5585810000000  0.5127570000000 1.0
C      1  0.5223760000000  0.5585820000000  0.4872440000000 1.0
C      1  0.4776240000000  0.4414180000000  0.4872430000000 1.0
C      1  0.5585820000000  0.4872440000000  0.5223780000000 1.0
C      1  0.4414190000000  0.4872430000000  0.4776220000000 1.0
C      1  0.5585820000000  0.5127580000000  0.4776240000000 1.0
C      1  0.5223770000000  0.5127570000000  0.4414190000000 1.0
C      1  0.4414180000000  0.5223760000000  0.5127560000000 1.0
C      1  0.5127570000000  0.4414180000000  0.5223770000000 1.0
C      1  0.4776240000000  0.4872440000000  0.4414180000000 1.0
C      1  0.4776220000000  0.5127560000000  0.5585810000000 1.0
C      1  0.5223770000000  0.4872430000000  0.5585820000000 1.0
C      1  0.5585820000000  0.4776240000000  0.5127570000000 1.0
C      1  0.5585810000000  0.5223780000000  0.4872440000000 1.0
C      1  0.4414190000000  0.4776220000000  0.4872430000000 1.0
C      1  0.4872420000000  0.5585810000000  0.5223770000000 1.0
C      1  0.4872450000000  0.4414180000000  0.4776220000000 1.0
C      1  0.5127560000000  0.5585820000000  0.4776240000000 1.0
C      1  0.4781970000000  0.5316210000000  0.4878430000000 1.0
C      1  0.5316210000000  0.4878440000000  0.4781970000000 1.0
C      1  0.4878430000000  0.4781970000000  0.5316210000000 1.0
C      1  0.5218040000000  0.4683800000000  0.4878430000000 1.0
C      1  0.4781980000000  0.4683790000000  0.5121560000000 1.0
C      1  0.5218020000000  0.5316210000000  0.5121580000000 1.0
C      1  0.4683790000000  0.5121570000000  0.4781970000000 1.0
C      1  0.5316200000000  0.5121570000000  0.5218030000000 1.0
C      1  0.4683790000000  0.4878420000000  0.5218020000000 1.0
C      1  0.5121560000000  0.5218030000000  0.5316210000000 1.0
C      1  0.4878430000000  0.5218030000000  0.4683790000000 1.0
C      1  0.5121580000000  0.4781980000000  0.4683790000000 1.0
C      1  0.5316210000000  0.4781980000000  0.4878430000000 1.0
C      1  0.4878430000000  0.5316210000000  0.4781970000000 1.0
C      1  0.4781970000000  0.4878420000000  0.5316210000000 1.0
C      1  0.4683790000000  0.5218020000000  0.4878430000000 1.0
C      1  0.4683790000000  0.4781960000000  0.5121560000000 1.0
C      1  0.5316200000000  0.5218030000000  0.5121580000000 1.0
C      1  0.5121580000000  0.4683800000000  0.4781970000000 1.0
C      1  0.5121560000000  0.5316210000000  0.5218030000000 1.0
C      1  0.4878430000000  0.4683790000000  0.5218020000000 1.0
C      1  0.5218020000000  0.5121570000000  0.5316210000000 1.0
C      1  0.5218030000000  0.4878440000000  0.4683790000000 1.0
C      1  0.4781970000000  0.5121570000000  0.4683790000000 1.0
C      1  0.4978070000000  0.4463280000000  0.4567910000000 1.0
C      1  0.4463290000000  0.4567910000000  0.4978050000000 1.0
C      1  0.4567920000000  0.4978050000000  0.4463270000000 1.0
C      1  0.5021940000000  0.5536720000000  0.4567920000000 1.0
C      1  0.4978040000000  0.5536720000000  0.5432090000000 1.0
C      1  0.5021950000000  0.4463280000000  0.5432080000000 1.0
C      1  0.5536710000000  0.5432090000000  0.4978070000000 1.0
C      1  0.4463270000000  0.5432070000000  0.5021940000000 1.0
C      1  0.5536730000000  0.4567930000000  0.5021950000000 1.0
C      1  0.5432090000000  0.5021960000000  0.4463280000000 1.0
C      1  0.4567910000000  0.5021930000000  0.5536720000000 1.0
C      1  0.5432080000000  0.4978060000000  0.5536720000000 1.0
C      1  0.4463290000000  0.4978050000000  0.4567910000000 1.0
C      1  0.4567930000000  0.4463270000000  0.4978050000000 1.0
C      1  0.4978070000000  0.4567920000000  0.4463280000000 1.0
C      1  0.5536720000000  0.5021960000000  0.4567920000000 1.0
C      1  0.5536720000000  0.4978060000000  0.5432090000000 1.0
C      1  0.4463270000000  0.5021930000000  0.5432080000000 1.0
C      1  0.5432070000000  0.5536730000000  0.4978070000000 1.0
C      1  0.5432090000000  0.4463290000000  0.5021940000000 1.0
C      1  0.4567910000000  0.5536710000000  0.5021940000000 1.0
C      1  0.5021940000000  0.5432090000000  0.4463280000000 1.0
C      1  0.5021950000000  0.4567910000000  0.5536720000000 1.0
C      1  0.4978040000000  0.5432080000000  0.5536720000000 1.0
C      1  0.5391830000000  0.5203920000000  0.5002820000000 1.0
C      1  0.5203910000000  0.5002820000000  0.5391840000000 1.0
C      1  0.5002810000000  0.5391830000000  0.5203910000000 1.0
C      1  0.4608170000000  0.4796080000000  0.5002810000000 1.0
C      1  0.5391840000000  0.4796100000000  0.4997190000000 1.0
C      1  0.4608160000000  0.5203900000000  0.4997180000000 1.0
C      1  0.4796090000000  0.4997180000000  0.5391830000000 1.0
C      1  0.5203910000000  0.4997190000000  0.4608170000000 1.0
C      1  0.4796090000000  0.5002820000000  0.4608160000000 1.0
C      1  0.4997190000000  0.4608160000000  0.5203910000000 1.0
C      1  0.5002830000000  0.4608170000000  0.4796090000000 1.0
C      1  0.4997180000000  0.5391840000000  0.4796090000000 1.0
C      1  0.5203900000000  0.5391840000000  0.5002820000000 1.0
C      1  0.5002810000000  0.5203910000000  0.5391840000000 1.0
C      1  0.5391830000000  0.5002820000000  0.5203910000000 1.0
C      1  0.4796100000000  0.4608160000000  0.5002810000000 1.0
C      1  0.4796080000000  0.5391830000000  0.4997190000000 1.0
C      1  0.5203920000000  0.4608170000000  0.4997180000000 1.0
C      1  0.4997180000000  0.4796090000000  0.5391830000000 1.0
C      1  0.4997190000000  0.5203910000000  0.4608170000000 1.0
C      1  0.5002820000000  0.4796090000000  0.4608160000000 1.0
C      1  0.4608160000000  0.4997180000000  0.5203910000000 1.0
C      1  0.4608170000000  0.5002810000000  0.4796090000000 1.0
C      1  0.5391840000000  0.4997190000000  0.4796090000000 1.0
C      1  0.5279400000000  0.5487350000000  0.4615630000000 1.0
C      1  0.5487340000000  0.4615630000000  0.5279410000000 1.0
C      1  0.4615610000000  0.5279400000000  0.5487340000000 1.0
C      1  0.4720610000000  0.4512660000000  0.4615610000000 1.0
C      1  0.5279410000000  0.4512660000000  0.5384380000000 1.0
C      1  0.4720580000000  0.5487330000000  0.5384380000000 1.0
C      1  0.4512650000000  0.5384370000000  0.5279410000000 1.0
C      1  0.5487340000000  0.5384390000000  0.4720600000000 1.0
C      1  0.4512670000000  0.4615610000000  0.4720580000000 1.0
C      1  0.5384380000000  0.4720600000000  0.5487340000000 1.0
C      1  0.4615630000000  0.4720590000000  0.4512650000000 1.0
C      1  0.5384380000000  0.5279420000000  0.4512670000000 1.0
C      1  0.5487340000000  0.5279420000000  0.4615630000000 1.0
C      1  0.4615610000000  0.5487330000000  0.5279410000000 1.0
C      1  0.5279410000000  0.4615620000000  0.5487340000000 1.0
C      1  0.4512670000000  0.4720590000000  0.4615610000000 1.0
C      1  0.4512650000000  0.5279390000000  0.5384380000000 1.0
C      1  0.5487340000000  0.4720600000000  0.5384380000000 1.0
C      1  0.5384390000000  0.4512670000000  0.5279410000000 1.0
C      1  0.5384370000000  0.5487350000000  0.4720600000000 1.0
C      1  0.4615630000000  0.4512660000000  0.4720580000000 1.0
C      1  0.4720580000000  0.5384370000000  0.5487340000000 1.0
C      1  0.4720610000000  0.4615620000000  0.4512650000000 1.0
C      1  0.5279410000000  0.5384390000000  0.4512670000000 1.0
C      1  0.4448040000000  0.5359570000000  0.5152270000000 1.0
C      1  0.5359590000000  0.5152290000000  0.4448050000000 1.0
C      1  0.5152280000000  0.4448040000000  0.5359580000000 1.0
C      1  0.5551960000000  0.4640420000000  0.5152280000000 1.0
C      1  0.4448050000000  0.4640400000000  0.4847720000000 1.0
C      1  0.5551950000000  0.5359600000000  0.4847740000000 1.0
C      1  0.4640420000000  0.4847720000000  0.4448040000000 1.0
C      1  0.5359580000000  0.4847730000000  0.5551960000000 1.0
C      1  0.4640400000000  0.5152260000000  0.5551950000000 1.0
C      1  0.4847710000000  0.5551950000000  0.5359590000000 1.0
C      1  0.5152270000000  0.5551960000000  0.4640420000000 1.0
C      1  0.4847740000000  0.4448040000000  0.4640410000000 1.0
C      1  0.5359600000000  0.4448050000000  0.5152270000000 1.0
C      1  0.5152270000000  0.5359590000000  0.4448050000000 1.0
C      1  0.4448040000000  0.5152260000000  0.5359580000000 1.0
C      1  0.4640400000000  0.5551950000000  0.5152270000000 1.0
C      1  0.4640430000000  0.4448040000000  0.4847720000000 1.0
C      1  0.5359580000000  0.5551960000000  0.4847740000000 1.0
C      1  0.4847740000000  0.4640420000000  0.4448040000000 1.0
C      1  0.4847710000000  0.5359580000000  0.5551960000000 1.0
C      1  0.5152270000000  0.4640410000000  0.5551950000000 1.0
C      1  0.5551950000000  0.4847730000000  0.5359590000000 1.0
C      1  0.5551960000000  0.5152290000000  0.4640420000000 1.0
C      1  0.4448050000000  0.4847720000000  0.4640410000000 1.0
C      1  0.5308250000000  0.4790570000000  0.5111780000000 1.0
C      1  0.4790560000000  0.5111770000000  0.5308240000000 1.0
C      1  0.5111780000000  0.5308250000000  0.4790570000000 1.0
C      1  0.4691750000000  0.5209430000000  0.5111780000000 1.0
C      1  0.5308240000000  0.5209440000000  0.4888220000000 1.0
C      1  0.4691760000000  0.4790560000000  0.4888210000000 1.0
C      1  0.5209430000000  0.4888220000000  0.5308250000000 1.0
C      1  0.4790570000000  0.4888220000000  0.4691750000000 1.0
C      1  0.5209440000000  0.5111790000000  0.4691760000000 1.0
C      1  0.4888230000000  0.4691750000000  0.4790560000000 1.0
C      1  0.5111780000000  0.4691760000000  0.5209430000000 1.0
C      1  0.4888210000000  0.5308240000000  0.5209440000000 1.0
C      1  0.4790560000000  0.5308240000000  0.5111780000000 1.0
C      1  0.5111780000000  0.4790570000000  0.5308240000000 1.0
C      1  0.5308250000000  0.5111790000000  0.4790570000000 1.0
C      1  0.5209440000000  0.4691760000000  0.5111780000000 1.0
C      1  0.5209430000000  0.5308250000000  0.4888220000000 1.0
C      1  0.4790570000000  0.4691750000000  0.4888210000000 1.0
C      1  0.4888210000000  0.5209430000000  0.5308250000000 1.0
C      1  0.4888230000000  0.4790570000000  0.4691750000000 1.0
C      1  0.5111780000000  0.5209440000000  0.4691760000000 1.0
C      1  0.4691760000000  0.4888210000000  0.4790560000000 1.0
C      1  0.4691750000000  0.5111770000000  0.5209430000000 1.0
C      1  0.5308240000000  0.4888220000000  0.5209440000000 1.0
C      1  0.4903750000000  0.4422370000000  0.5366810000000 1.0
C      1  0.4422370000000  0.5366800000000  0.4903740000000 1.0
C      1  0.5366820000000  0.4903760000000  0.4422380000000 1.0
C      1  0.5096240000000  0.5577620000000  0.5366820000000 1.0
C      1  0.4903740000000  0.5577620000000  0.4633190000000 1.0
C      1  0.5096270000000  0.4422380000000  0.4633180000000 1.0
C      1  0.5577630000000  0.4633200000000  0.4903750000000 1.0
C      1  0.4422380000000  0.4633180000000  0.5096240000000 1.0
C      1  0.5577610000000  0.5366820000000  0.5096260000000 1.0
C      1  0.4633190000000  0.5096250000000  0.4422380000000 1.0
C      1  0.5366800000000  0.5096250000000  0.5577630000000 1.0
C      1  0.4633180000000  0.4903730000000  0.5577620000000 1.0
C      1  0.4422380000000  0.4903730000000  0.5366800000000 1.0
C      1  0.5366820000000  0.4422390000000  0.4903750000000 1.0
C      1  0.4903750000000  0.5366820000000  0.4422380000000 1.0
C      1  0.5577610000000  0.5096260000000  0.5366820000000 1.0
C      1  0.5577630000000  0.4903760000000  0.4633190000000 1.0
C      1  0.4422380000000  0.5096250000000  0.4633180000000 1.0
C      1  0.4633180000000  0.5577610000000  0.4903750000000 1.0
C      1  0.4633200000000  0.4422370000000  0.5096240000000 1.0
C      1  0.5366800000000  0.5577630000000  0.5096260000000 1.0
C      1  0.5096270000000  0.4633190000000  0.4422380000000 1.0
C      1  0.5096240000000  0.5366810000000  0.5577630000000 1.0
C      1  0.4903750000000  0.4633180000000  0.5577620000000 1.0
C      1  0.5184610000000  0.5003910000000  0.5532860000000 1.0
C      1  0.5003900000000  0.5532850000000  0.5184620000000 1.0
C      1  0.5532850000000  0.5184630000000  0.5003920000000 1.0
C      1  0.4815380000000  0.4996080000000  0.5532850000000 1.0
C      1  0.5184620000000  0.4996090000000  0.4467150000000 1.0
C      1  0.4815390000000  0.5003920000000  0.4467140000000 1.0
C      1  0.4996090000000  0.4467140000000  0.5184610000000 1.0
C      1  0.5003930000000  0.4467150000000  0.4815380000000 1.0
C      1  0.4996080000000  0.5532860000000  0.4815390000000 1.0
C      1  0.4467150000000  0.4815370000000  0.5003910000000 1.0
C      1  0.5532860000000  0.4815390000000  0.4996090000000 1.0
C      1  0.4467140000000  0.5184610000000  0.4996080000000 1.0
C      1  0.5003900000000  0.5184610000000  0.5532860000000 1.0
C      1  0.5532850000000  0.5003920000000  0.5184620000000 1.0
C      1  0.5184610000000  0.5532860000000  0.5003920000000 1.0
C      1  0.4996080000000  0.4815380000000  0.5532850000000 1.0
C      1  0.4996090000000  0.5184620000000  0.4467150000000 1.0
C      1  0.5003920000000  0.4815390000000  0.4467140000000 1.0
C      1  0.4467140000000  0.4996070000000  0.5184610000000 1.0
C      1  0.4467150000000  0.5003910000000  0.4815380000000 1.0
C      1  0.5532860000000  0.4996100000000  0.4815390000000 1.0
C      1  0.4815390000000  0.4467140000000  0.5003910000000 1.0
C      1  0.4815370000000  0.5532850000000  0.4996090000000 1.0
C      1  0.5184630000000  0.4467150000000  0.4996080000000 1.0
C      1  0.4407850000000  0.5234890000000  0.4866880000000 1.0
C      1  0.5234910000000  0.4866890000000  0.4407850000000 1.0
C      1  0.4866890000000  0.4407850000000  0.5234890000000 1.0
C      1  0.5592150000000  0.4765110000000  0.4866890000000 1.0
C      1  0.4407850000000  0.4765090000000  0.5133110000000 1.0
C      1  0.5592140000000  0.5234910000000  0.5133130000000 1.0
C      1  0.4765100000000  0.5133120000000  0.4407850000000 1.0
C      1  0.5234890000000  0.5133120000000  0.5592150000000 1.0
C      1  0.4765100000000  0.4866870000000  0.5592140000000 1.0
C      1  0.5133100000000  0.5592150000000  0.5234910000000 1.0
C      1  0.4866870000000  0.5592150000000  0.4765100000000 1.0
C      1  0.5133130000000  0.4407860000000  0.4765100000000 1.0
C      1  0.5234910000000  0.4407860000000  0.4866880000000 1.0
C      1  0.4866880000000  0.5234900000000  0.4407850000000 1.0
C      1  0.4407850000000  0.4866870000000  0.5234890000000 1.0
C      1  0.4765090000000  0.5592150000000  0.4866880000000 1.0
C      1  0.4765110000000  0.4407850000000  0.5133110000000 1.0
C      1  0.5234890000000  0.5592150000000  0.5133130000000 1.0
C      1  0.5133130000000  0.4765110000000  0.4407850000000 1.0
C      1  0.5133110000000  0.5234900000000  0.5592150000000 1.0
C      1  0.4866880000000  0.4765090000000  0.5592150000000 1.0
C      1  0.5592140000000  0.5133130000000  0.5234910000000 1.0
C      1  0.5592150000000  0.4866900000000  0.4765110000000 1.0
C      1  0.4407850000000  0.5133110000000  0.4765090000000 1.0
END
