TITL C-114178-678-21 0.0339467105284717 1000000 -1622.17818958301 0 0 240 (Th) n - 1
REM
REM in /home/chem/mssmkc/work/GAP20/Larger-Clusters/Only-C240/New/BUILD-ONLY
REM
REM
REM
REM
REM
REM ./C.cell (daee87de7206da95283bc1c1416dbc6f)
REM
REM compiler GCC version 8.3.0
REM options -cpp -mtune=generic -march=x86-64 -g -O0
REM seed 933038207 1101340385 -2076022738 1313081630 20799707 -2138797407 719759989 2072909281 -1397588008 1440543029 2072431320 1797637962 -126286921 317468907 1538926481 2018986340 -15960506 224237722 -636961302 -2126766969 356549835 -1561382833 1334523307 791664648 6049954 1788376318 270803543 -264842375 -417889776 758015967 -1340516255 -1931731409 1612448994
REM
CELL 1.54180  100.00000  100.00000  100.00000   90.00000   90.00000   90.00000
LATT -1
SFAC C  
C      1  0.5146090000000  0.5411510000000  0.5188310000000 1.0
C      1  0.5411410000000  0.5188550000000  0.5146050000000 1.0
C      1  0.5188450000000  0.5146290000000  0.5411370000000 1.0
C      1  0.4853940000000  0.4588610000000  0.5188580000000 1.0
C      1  0.5146180000000  0.4588540000000  0.4811670000000 1.0
C      1  0.4853790000000  0.5411350000000  0.4811440000000 1.0
C      1  0.4588610000000  0.4811540000000  0.5146220000000 1.0
C      1  0.5411440000000  0.4811570000000  0.4853900000000 1.0
C      1  0.4588540000000  0.5188340000000  0.4853830000000 1.0
C      1  0.4811600000000  0.4853970000000  0.5411480000000 1.0
C      1  0.5188440000000  0.4853770000000  0.4588610000000 1.0
C      1  0.4811510000000  0.5145980000000  0.4588540000000 1.0
C      1  0.5146060000000  0.5411390000000  0.4811420000000 1.0
C      1  0.5411390000000  0.5188460000000  0.4853780000000 1.0
C      1  0.5188400000000  0.5146030000000  0.4588520000000 1.0
C      1  0.4853910000000  0.4588490000000  0.4811690000000 1.0
C      1  0.5146210000000  0.4588650000000  0.5188560000000 1.0
C      1  0.4853820000000  0.5411460000000  0.5188330000000 1.0
C      1  0.4588590000000  0.4811450000000  0.4853950000000 1.0
C      1  0.5411460000000  0.4811660000000  0.5146170000000 1.0
C      1  0.4588560000000  0.5188430000000  0.5146100000000 1.0
C      1  0.4811550000000  0.4853710000000  0.4588630000000 1.0
C      1  0.5188490000000  0.4854020000000  0.5411460000000 1.0
C      1  0.4811560000000  0.5146230000000  0.5411390000000 1.0
C      1  0.4578490000000  0.5205220000000  0.5288070000000 1.0
C      1  0.5205130000000  0.5288000000000  0.4578400000000 1.0
C      1  0.5288180000000  0.4578610000000  0.5205310000000 1.0
C      1  0.5421550000000  0.4794960000000  0.5288140000000 1.0
C      1  0.4578510000000  0.4794660000000  0.4711980000000 1.0
C      1  0.5421450000000  0.5205160000000  0.4711800000000 1.0
C      1  0.4794820000000  0.4711730000000  0.4578600000000 1.0
C      1  0.5205260000000  0.4712050000000  0.5421570000000 1.0
C      1  0.4794790000000  0.5288210000000  0.5421420000000 1.0
C      1  0.4711850000000  0.5421520000000  0.5205080000000 1.0
C      1  0.5288030000000  0.5421480000000  0.4794660000000 1.0
C      1  0.4711940000000  0.4578400000000  0.4794960000000 1.0
C      1  0.4578450000000  0.5205040000000  0.4711860000000 1.0
C      1  0.5205180000000  0.5288270000000  0.5421400000000 1.0
C      1  0.5288150000000  0.4578480000000  0.4794920000000 1.0
C      1  0.5421510000000  0.4794780000000  0.4711930000000 1.0
C      1  0.4578550000000  0.4794840000000  0.5288200000000 1.0
C      1  0.5421490000000  0.5205340000000  0.5288020000000 1.0
C      1  0.4794870000000  0.4712000000000  0.5421600000000 1.0
C      1  0.5205210000000  0.4711790000000  0.4578580000000 1.0
C      1  0.4794740000000  0.5287950000000  0.4578430000000 1.0
C      1  0.4711820000000  0.5421390000000  0.4794690000000 1.0
C      1  0.5288060000000  0.5421600000000  0.5205040000000 1.0
C      1  0.4711970000000  0.4578520000000  0.5205340000000 1.0
C      1  0.5164400000000  0.5641540000000  0.5145350000000 1.0
C      1  0.5641460000000  0.5145700000000  0.5164400000000 1.0
C      1  0.5145580000000  0.5164710000000  0.5641420000000 1.0
C      1  0.4835610000000  0.4358550000000  0.5145770000000 1.0
C      1  0.5164570000000  0.4358500000000  0.4854630000000 1.0
C      1  0.4835410000000  0.5641410000000  0.4854250000000 1.0
C      1  0.4358560000000  0.4854400000000  0.5164570000000 1.0
C      1  0.5641490000000  0.4854480000000  0.4835520000000 1.0
C      1  0.4358490000000  0.5145410000000  0.4835510000000 1.0
C      1  0.4854510000000  0.4835690000000  0.5641540000000 1.0
C      1  0.5145540000000  0.4835330000000  0.4358570000000 1.0
C      1  0.4854380000000  0.5164270000000  0.4358480000000 1.0
C      1  0.5164390000000  0.5641450000000  0.4854230000000 1.0
C      1  0.5641440000000  0.5145600000000  0.4835430000000 1.0
C      1  0.5145490000000  0.5164310000000  0.4358460000000 1.0
C      1  0.4835600000000  0.4358460000000  0.4854650000000 1.0
C      1  0.5164590000000  0.4358590000000  0.5145750000000 1.0
C      1  0.4835430000000  0.5641500000000  0.5145370000000 1.0
C      1  0.4358540000000  0.4854300000000  0.4835600000000 1.0
C      1  0.5641510000000  0.4854590000000  0.5164490000000 1.0
C      1  0.4358510000000  0.5145520000000  0.5164480000000 1.0
C      1  0.4854420000000  0.4835290000000  0.4358580000000 1.0
C      1  0.5145620000000  0.4835730000000  0.5641520000000 1.0
C      1  0.4854460000000  0.5164670000000  0.5641430000000 1.0
C      1  0.4375740000000  0.4929210000000  0.5292650000000 1.0
C      1  0.4929120000000  0.5292380000000  0.4375620000000 1.0
C      1  0.5292670000000  0.4375730000000  0.4929380000000 1.0
C      1  0.5624300000000  0.5070980000000  0.5292520000000 1.0
C      1  0.4375680000000  0.5070610000000  0.4707430000000 1.0
C      1  0.5624280000000  0.4929200000000  0.4707400000000 1.0
C      1  0.5070800000000  0.4707230000000  0.4375800000000 1.0
C      1  0.4929290000000  0.4707600000000  0.5624390000000 1.0
C      1  0.5070790000000  0.5292790000000  0.5624190000000 1.0
C      1  0.4707320000000  0.5624230000000  0.4929030000000 1.0
C      1  0.5292500000000  0.5624350000000  0.5070580000000 1.0
C      1  0.4707510000000  0.4375690000000  0.5071010000000 1.0
C      1  0.4375700000000  0.4929020000000  0.4707480000000 1.0
C      1  0.4929200000000  0.5292770000000  0.5624200000000 1.0
C      1  0.5292680000000  0.4375770000000  0.5070970000000 1.0
C      1  0.5624260000000  0.5070790000000  0.4707350000000 1.0
C      1  0.4375720000000  0.5070800000000  0.5292600000000 1.0
C      1  0.5624320000000  0.4929390000000  0.5292570000000 1.0
C      1  0.5070880000000  0.4707620000000  0.5624380000000 1.0
C      1  0.4929210000000  0.4707210000000  0.4375810000000 1.0
C      1  0.5070710000000  0.5292400000000  0.4375610000000 1.0
C      1  0.4707330000000  0.5624270000000  0.5070620000000 1.0
C      1  0.5292490000000  0.5624310000000  0.4928990000000 1.0
C      1  0.4707500000000  0.4375650000000  0.4929420000000 1.0
C      1  0.4674600000000  0.4808110000000  0.4596970000000 1.0
C      1  0.4808320000000  0.4596760000000  0.4674730000000 1.0
C      1  0.4596920000000  0.4674480000000  0.4808410000000 1.0
C      1  0.5325350000000  0.5191640000000  0.4596810000000 1.0
C      1  0.4674590000000  0.5191790000000  0.5403080000000 1.0
C      1  0.5325460000000  0.4808460000000  0.5403150000000 1.0
C      1  0.5191640000000  0.5403040000000  0.4674460000000 1.0
C      1  0.4808250000000  0.5403190000000  0.5325290000000 1.0
C      1  0.5191800000000  0.4597010000000  0.5325520000000 1.0
C      1  0.5403060000000  0.5325400000000  0.4808160000000 1.0
C      1  0.4596850000000  0.5325410000000  0.5191640000000 1.0
C      1  0.5403170000000  0.4674710000000  0.5191790000000 1.0
C      1  0.4674650000000  0.4808360000000  0.5403190000000 1.0
C      1  0.4808360000000  0.4596960000000  0.5325540000000 1.0
C      1  0.4596940000000  0.4674600000000  0.5191840000000 1.0
C      1  0.5325400000000  0.5191890000000  0.5403030000000 1.0
C      1  0.4674540000000  0.5191540000000  0.4596850000000 1.0
C      1  0.5325410000000  0.4808210000000  0.4596920000000 1.0
C      1  0.5191680000000  0.5403240000000  0.5325270000000 1.0
C      1  0.4808200000000  0.5402990000000  0.4674480000000 1.0
C      1  0.5191750000000  0.4596810000000  0.4674710000000 1.0
C      1  0.5403080000000  0.5325520000000  0.5191590000000 1.0
C      1  0.4596830000000  0.5325290000000  0.4808210000000 1.0
C      1  0.5403150000000  0.4674590000000  0.4808360000000 1.0
C      1  0.5394550000000  0.4924530000000  0.4390440000000 1.0
C      1  0.4924780000000  0.4390560000000  0.5394770000000 1.0
C      1  0.4390380000000  0.5394470000000  0.4924580000000 1.0
C      1  0.4605370000000  0.5075090000000  0.4390450000000 1.0
C      1  0.5394610000000  0.5075580000000  0.5609510000000 1.0
C      1  0.4605470000000  0.4924800000000  0.5609600000000 1.0
C      1  0.5075270000000  0.5609690000000  0.5394390000000 1.0
C      1  0.4924550000000  0.5609420000000  0.4605240000000 1.0
C      1  0.5075400000000  0.4390330000000  0.4605600000000 1.0
C      1  0.5609610000000  0.4605480000000  0.4924750000000 1.0
C      1  0.4390510000000  0.4605360000000  0.5075500000000 1.0
C      1  0.5609500000000  0.5394690000000  0.5075170000000 1.0
C      1  0.5394630000000  0.4924910000000  0.5609550000000 1.0
C      1  0.4924730000000  0.4390310000000  0.4605610000000 1.0
C      1  0.4390390000000  0.5394520000000  0.5075250000000 1.0
C      1  0.4605450000000  0.5075470000000  0.5609560000000 1.0
C      1  0.5394530000000  0.5075200000000  0.4390400000000 1.0
C      1  0.4605390000000  0.4924420000000  0.4390490000000 1.0
C      1  0.5075220000000  0.5609440000000  0.4605230000000 1.0
C      1  0.4924600000000  0.5609670000000  0.5394400000000 1.0
C      1  0.5075450000000  0.4390580000000  0.5394760000000 1.0
C      1  0.5609620000000  0.4605530000000  0.5075420000000 1.0
C      1  0.4390500000000  0.4605310000000  0.4924830000000 1.0
C      1  0.5609490000000  0.5394640000000  0.4924500000000 1.0
C      1  0.5142080000000  0.5373530000000  0.4472290000000 1.0
C      1  0.5373760000000  0.4472520000000  0.5142310000000 1.0
C      1  0.4472420000000  0.5142210000000  0.5373660000000 1.0
C      1  0.4857850000000  0.4626140000000  0.4472540000000 1.0
C      1  0.5142260000000  0.4626510000000  0.5527690000000 1.0
C      1  0.4857810000000  0.5373820000000  0.5527480000000 1.0
C      1  0.4626260000000  0.5527570000000  0.5142030000000 1.0
C      1  0.5373590000000  0.5527590000000  0.4857640000000 1.0
C      1  0.4626390000000  0.4472320000000  0.4858020000000 1.0
C      1  0.5527630000000  0.4858020000000  0.5373690000000 1.0
C      1  0.4472410000000  0.4857640000000  0.4626400000000 1.0
C      1  0.5527540000000  0.5142130000000  0.4626250000000 1.0
C      1  0.5142150000000  0.5373860000000  0.5527460000000 1.0
C      1  0.5373740000000  0.4472430000000  0.4857970000000 1.0
C      1  0.4472370000000  0.5141980000000  0.4626310000000 1.0
C      1  0.4857920000000  0.4626470000000  0.5527710000000 1.0
C      1  0.5142190000000  0.4626180000000  0.4472520000000 1.0
C      1  0.4857740000000  0.5373490000000  0.4472310000000 1.0
C      1  0.4626240000000  0.5527480000000  0.4857690000000 1.0
C      1  0.5373610000000  0.5527680000000  0.5141980000000 1.0
C      1  0.4626410000000  0.4472410000000  0.5142360000000 1.0
C      1  0.5527580000000  0.4857790000000  0.4626340000000 1.0
C      1  0.4472460000000  0.4857870000000  0.5373750000000 1.0
C      1  0.5527590000000  0.5142360000000  0.5373600000000 1.0
C      1  0.4561150000000  0.4860560000000  0.5486680000000 1.0
C      1  0.4860370000000  0.5486450000000  0.4560950000000 1.0
C      1  0.5486660000000  0.4561120000000  0.4860570000000 1.0
C      1  0.5438910000000  0.5139750000000  0.5486540000000 1.0
C      1  0.4561050000000  0.5139320000000  0.4513380000000 1.0
C      1  0.5438890000000  0.4860380000000  0.4513410000000 1.0
C      1  0.5139580000000  0.4513280000000  0.4561240000000 1.0
C      1  0.4860570000000  0.4513510000000  0.5439060000000 1.0
C      1  0.5139490000000  0.5486770000000  0.5438740000000 1.0
C      1  0.4513320000000  0.5438790000000  0.4860360000000 1.0
C      1  0.5486550000000  0.5439020000000  0.5139370000000 1.0
C      1  0.4513460000000  0.4561070000000  0.5139700000000 1.0
C      1  0.4561090000000  0.4860250000000  0.4513460000000 1.0
C      1  0.4860420000000  0.5486720000000  0.5438760000000 1.0
C      1  0.5486680000000  0.4561210000000  0.5139640000000 1.0
C      1  0.5438850000000  0.5139440000000  0.4513320000000 1.0
C      1  0.4561110000000  0.5139620000000  0.5486590000000 1.0
C      1  0.5438950000000  0.4860680000000  0.5486620000000 1.0
C      1  0.5139630000000  0.4513550000000  0.5439050000000 1.0
C      1  0.4860510000000  0.4513230000000  0.4561260000000 1.0
C      1  0.5139430000000  0.5486490000000  0.4560940000000 1.0
C      1  0.4513340000000  0.5438880000000  0.5139430000000 1.0
C      1  0.5486540000000  0.5438930000000  0.4860300000000 1.0
C      1  0.4513450000000  0.4560980000000  0.4860630000000 1.0
C      1  0.5070380000000  0.4475010000000  0.5140690000000 1.0
C      1  0.4474940000000  0.5140480000000  0.5070280000000 1.0
C      1  0.5140490000000  0.5070150000000  0.4474920000000 1.0
C      1  0.4929640000000  0.5525080000000  0.5140370000000 1.0
C      1  0.5070210000000  0.5525010000000  0.4859300000000 1.0
C      1  0.4929770000000  0.4474900000000  0.4859640000000 1.0
C      1  0.5525070000000  0.4859570000000  0.5070300000000 1.0
C      1  0.4474970000000  0.4859370000000  0.4929780000000 1.0
C      1  0.5525020000000  0.5140580000000  0.4929630000000 1.0
C      1  0.4859450000000  0.4929520000000  0.4474980000000 1.0
C      1  0.5140570000000  0.4929890000000  0.5525060000000 1.0
C      1  0.4859490000000  0.5070440000000  0.5525030000000 1.0
C      1  0.5070360000000  0.4474920000000  0.4859630000000 1.0
C      1  0.4474930000000  0.5140430000000  0.4929700000000 1.0
C      1  0.5140550000000  0.5070480000000  0.5525020000000 1.0
C      1  0.4929620000000  0.5524990000000  0.4859310000000 1.0
C      1  0.5070230000000  0.5525100000000  0.5140360000000 1.0
C      1  0.4929790000000  0.4474990000000  0.5140700000000 1.0
C      1  0.5525060000000  0.4859520000000  0.4929720000000 1.0
C      1  0.4474980000000  0.4859420000000  0.5070370000000 1.0
C      1  0.5525030000000  0.5140630000000  0.5070220000000 1.0
C      1  0.4859510000000  0.4929850000000  0.5525080000000 1.0
C      1  0.5140510000000  0.4929560000000  0.4474970000000 1.0
C      1  0.4859430000000  0.5070110000000  0.4474940000000 1.0
C      1  0.5653520000000  0.5277880000000  0.5137050000000 1.0
C      1  0.5277760000000  0.5137420000000  0.5653490000000 1.0
C      1  0.5137100000000  0.5653650000000  0.5277530000000 1.0
C      1  0.4346500000000  0.4722210000000  0.5137310000000 1.0
C      1  0.5653580000000  0.4722310000000  0.4862870000000 1.0
C      1  0.4346400000000  0.5277600000000  0.4862780000000 1.0
C      1  0.4722320000000  0.4862990000000  0.5653610000000 1.0
C      1  0.5277720000000  0.4862660000000  0.4346480000000 1.0
C      1  0.4722200000000  0.5136930000000  0.4346430000000 1.0
C      1  0.4862930000000  0.4346520000000  0.5277950000000 1.0
C      1  0.5137250000000  0.4346380000000  0.4722450000000 1.0
C      1  0.4862710000000  0.5653440000000  0.4722060000000 1.0
C      1  0.5653500000000  0.5277790000000  0.4862690000000 1.0
C      1  0.5277680000000  0.5137010000000  0.4346390000000 1.0
C      1  0.5137070000000  0.5653480000000  0.4722050000000 1.0
C      1  0.4346480000000  0.4722120000000  0.4862950000000 1.0
C      1  0.5653600000000  0.4722400000000  0.5137220000000 1.0
C      1  0.4346420000000  0.5277690000000  0.5137130000000 1.0
C      1  0.4722240000000  0.4862580000000  0.4346510000000 1.0
C      1  0.5277800000000  0.4863070000000  0.5653570000000 1.0
C      1  0.4722280000000  0.5137340000000  0.5653520000000 1.0
C      1  0.4862900000000  0.4346350000000  0.4722470000000 1.0
C      1  0.5137290000000  0.4346560000000  0.5277940000000 1.0
C      1  0.4862750000000  0.5653620000000  0.5277550000000 1.0
END
