TITL C-114180-423-16 0.0118964877000879 1000000 -1795.17902170625 0 0 240 (C1) n - 1
REM
REM in /home/chem/mssmkc/work/GAP20/Larger-Clusters/Only-C240/New/BUILD-ONLY
REM
REM
REM
REM
REM
REM ./C.cell (daee87de7206da95283bc1c1416dbc6f)
REM
REM compiler GCC version 8.3.0
REM options -cpp -mtune=generic -march=x86-64 -g -O0
REM seed 1005528318 602708681 -916580954 2141061524 -1687996184 -954861383 1638470900 1508236696 1454315788 1061382458 -756246655 562031080 642156915 263467791 -1123417602 -1212637139 -798279565 -257572045 1445981615 -1429544299 204952246 108797054 671375703 -1269161852 1651929659 1598764667 -1227376726 1814732257 -1369596439 -1768802018 -1597369474 1143666882 188141521
REM
CELL 1.54180  100.00000  100.00000  100.00000   90.00000   90.00000   90.00000
LATT -1
SFAC C  
C      1  0.4580250000000  0.5285850000000  0.4669240000000 1.0
C      1  0.4647250000000  0.4535400000000  0.5255320000000 1.0
C      1  0.5258160000000  0.4666320000000  0.4576770000000 1.0
C      1  0.5432400000000  0.5245590000000  0.5337700000000 1.0
C      1  0.4561660000000  0.4749060000000  0.5336630000000 1.0
C      1  0.5470520000000  0.4790110000000  0.4660630000000 1.0
C      1  0.5402880000000  0.4582290000000  0.4764690000000 1.0
C      1  0.4666580000000  0.5497580000000  0.4761310000000 1.0
C      1  0.5335260000000  0.5452370000000  0.5240800000000 1.0
C      1  0.4775230000000  0.4670080000000  0.5427500000000 1.0
C      1  0.5225340000000  0.5339300000000  0.5440570000000 1.0
C      1  0.4763800000000  0.5393780000000  0.4558940000000 1.0
C      1  0.4670370000000  0.5287410000000  0.4563190000000 1.0
C      1  0.5293830000000  0.4567740000000  0.4672980000000 1.0
C      1  0.4546280000000  0.4636540000000  0.5251340000000 1.0
C      1  0.5328950000000  0.5236940000000  0.5440960000000 1.0
C      1  0.5362980000000  0.4767450000000  0.4565180000000 1.0
C      1  0.4674020000000  0.4768220000000  0.5424700000000 1.0
C      1  0.4759510000000  0.4555310000000  0.5342930000000 1.0
C      1  0.4768970000000  0.5491040000000  0.4664010000000 1.0
C      1  0.5232540000000  0.5446300000000  0.5340260000000 1.0
C      1  0.5489040000000  0.4692510000000  0.4763590000000 1.0
C      1  0.5437820000000  0.5350030000000  0.5236550000000 1.0
C      1  0.4564940000000  0.5397000000000  0.4756980000000 1.0
C      1  0.4832710000000  0.5592040000000  0.4931170000000 1.0
C      1  0.4926140000000  0.4827820000000  0.5568470000000 1.0
C      1  0.5598190000000  0.4937410000000  0.4817470000000 1.0
C      1  0.5177880000000  0.5580400000000  0.5081850000000 1.0
C      1  0.4797190000000  0.4412450000000  0.5095280000000 1.0
C      1  0.5144680000000  0.4388270000000  0.4938870000000 1.0
C      1  0.5095460000000  0.4808190000000  0.4449780000000 1.0
C      1  0.4947740000000  0.5113670000000  0.4392220000000 1.0
C      1  0.5075510000000  0.5174840000000  0.5551970000000 1.0
C      1  0.4400690000000  0.4878400000000  0.5182990000000 1.0
C      1  0.5582770000000  0.5097640000000  0.5193600000000 1.0
C      1  0.4399270000000  0.5006700000000  0.4831960000000 1.0
C      1  0.4933290000000  0.5592130000000  0.4833570000000 1.0
C      1  0.5598550000000  0.4844650000000  0.4926220000000 1.0
C      1  0.4822560000000  0.4921710000000  0.5567170000000 1.0
C      1  0.5075720000000  0.5575510000000  0.5179870000000 1.0
C      1  0.5033910000000  0.4387630000000  0.4846500000000 1.0
C      1  0.4899810000000  0.4410840000000  0.5189860000000 1.0
C      1  0.4402380000000  0.4772500000000  0.5088120000000 1.0
C      1  0.4398690000000  0.5110250000000  0.4927960000000 1.0
C      1  0.5587480000000  0.5198640000000  0.5094860000000 1.0
C      1  0.5208830000000  0.4889820000000  0.4415840000000 1.0
C      1  0.5192250000000  0.5094060000000  0.5595970000000 1.0
C      1  0.4757990000000  0.4979540000000  0.4367190000000 1.0
C      1  0.5159030000000  0.4904370000000  0.5292720000000 1.0
C      1  0.5356960000000  0.5186170000000  0.4977950000000 1.0
C      1  0.4988970000000  0.5245050000000  0.5244040000000 1.0
C      1  0.4763460000000  0.5061490000000  0.4607340000000 1.0
C      1  0.5251670000000  0.5099950000000  0.4675590000000 1.0
C      1  0.4843540000000  0.5050780000000  0.5270260000000 1.0
C      1  0.4600420000000  0.5186250000000  0.5017150000000 1.0
C      1  0.5201900000000  0.4753670000000  0.4901860000000 1.0
C      1  0.4707130000000  0.4829420000000  0.5002410000000 1.0
C      1  0.4956900000000  0.5212910000000  0.4738050000000 1.0
C      1  0.4974910000000  0.4737520000000  0.4820070000000 1.0
C      1  0.5104450000000  0.4720920000000  0.5163090000000 1.0
C      1  0.5262490000000  0.4890140000000  0.5189810000000 1.0
C      1  0.4948180000000  0.5131270000000  0.5318880000000 1.0
C      1  0.5239390000000  0.5263520000000  0.4965830000000 1.0
C      1  0.4719370000000  0.5085820000000  0.4750980000000 1.0
C      1  0.4759770000000  0.5111910000000  0.5173330000000 1.0
C      1  0.5345880000000  0.5061790000000  0.4766960000000 1.0
C      1  0.5034630000000  0.5142690000000  0.4635570000000 1.0
C      1  0.5055200000000  0.4812900000000  0.5262270000000 1.0
C      1  0.5004170000000  0.4828810000000  0.4716960000000 1.0
C      1  0.4723400000000  0.5269680000000  0.5011900000000 1.0
C      1  0.4759070000000  0.4716840000000  0.5065440000000 1.0
C      1  0.5069520000000  0.4698570000000  0.4917930000000 1.0
C      1  0.5244000000000  0.5417030000000  0.4563860000000 1.0
C      1  0.4546800000000  0.5307680000000  0.5326910000000 1.0
C      1  0.5426850000000  0.4563170000000  0.5244160000000 1.0
C      1  0.4747600000000  0.5384730000000  0.5436160000000 1.0
C      1  0.5293850000000  0.4649930000000  0.5437840000000 1.0
C      1  0.4748140000000  0.4626530000000  0.4594890000000 1.0
C      1  0.5456740000000  0.5309870000000  0.4638890000000 1.0
C      1  0.4530980000000  0.4707970000000  0.4682620000000 1.0
C      1  0.5489640000000  0.4774140000000  0.5342060000000 1.0
C      1  0.4630120000000  0.4509780000000  0.4783770000000 1.0
C      1  0.5350090000000  0.5508310000000  0.4763590000000 1.0
C      1  0.4659990000000  0.5504950000000  0.5237640000000 1.0
C      1  0.4551290000000  0.5415330000000  0.5234150000000 1.0
C      1  0.5340500000000  0.5315710000000  0.4563270000000 1.0
C      1  0.5323300000000  0.4551430000000  0.5341270000000 1.0
C      1  0.5453460000000  0.5408780000000  0.4751580000000 1.0
C      1  0.5509310000000  0.4676910000000  0.5240920000000 1.0
C      1  0.4530150000000  0.4610530000000  0.4785250000000 1.0
C      1  0.4643440000000  0.5284200000000  0.5426660000000 1.0
C      1  0.4639050000000  0.4714100000000  0.4590920000000 1.0
C      1  0.5389870000000  0.4759310000000  0.5442930000000 1.0
C      1  0.4736280000000  0.4516320000000  0.4686570000000 1.0
C      1  0.4757870000000  0.5489200000000  0.5339070000000 1.0
C      1  0.5247020000000  0.5516100000000  0.4664840000000 1.0
C      1  0.4504370000000  0.4984960000000  0.5367780000000 1.0
C      1  0.5449310000000  0.4524120000000  0.5002150000000 1.0
C      1  0.4999770000000  0.5428300000000  0.4517650000000 1.0
C      1  0.5507180000000  0.5029580000000  0.4587070000000 1.0
C      1  0.4486710000000  0.4946160000000  0.4623280000000 1.0
C      1  0.5494610000000  0.5013850000000  0.5389090000000 1.0
C      1  0.4584850000000  0.4470020000000  0.5024850000000 1.0
C      1  0.5391380000000  0.5518090000000  0.5010950000000 1.0
C      1  0.4615120000000  0.5538650000000  0.4997190000000 1.0
C      1  0.4992600000000  0.5406220000000  0.5490410000000 1.0
C      1  0.5027330000000  0.4616820000000  0.5461830000000 1.0
C      1  0.4998040000000  0.4610350000000  0.4560740000000 1.0
C      1  0.5414050000000  0.4994730000000  0.4483280000000 1.0
C      1  0.5000360000000  0.4507420000000  0.5378970000000 1.0
C      1  0.4512080000000  0.5440800000000  0.4992220000000 1.0
C      1  0.4615500000000  0.5016760000000  0.5447850000000 1.0
C      1  0.4576110000000  0.4946220000000  0.4515040000000 1.0
C      1  0.5402610000000  0.5005070000000  0.5493230000000 1.0
C      1  0.4980140000000  0.4492270000000  0.4640760000000 1.0
C      1  0.4999590000000  0.5506100000000  0.5390700000000 1.0
C      1  0.5004190000000  0.5527270000000  0.4620830000000 1.0
C      1  0.5491830000000  0.5419940000000  0.5005930000000 1.0
C      1  0.5534830000000  0.4636280000000  0.5001810000000 1.0
C      1  0.4485910000000  0.4566980000000  0.5024410000000 1.0
C      1  0.4811870000000  0.4620580000000  0.4956340000000 1.0
C      1  0.4905850000000  0.4830620000000  0.4594460000000 1.0
C      1  0.4737960000000  0.4934810000000  0.4773660000000 1.0
C      1  0.5267530000000  0.4425620000000  0.5152120000000 1.0
C      1  0.4789740000000  0.5245650000000  0.5134530000000 1.0
C      1  0.5164250000000  0.5288310000000  0.4852690000000 1.0
C      1  0.5157340000000  0.4760200000000  0.5596260000000 1.0
C      1  0.4848500000000  0.5254210000000  0.5604860000000 1.0
C      1  0.5126380000000  0.5219230000000  0.4512550000000 1.0
C      1  0.5244260000000  0.4757950000000  0.5132410000000 1.0
C      1  0.4470740000000  0.5209300000000  0.5262140000000 1.0
C      1  0.5480830000000  0.5135280000000  0.4777900000000 1.0
C      1  0.4837480000000  0.4719760000000  0.4848090000000 1.0
C      1  0.4747330000000  0.4831430000000  0.4864690000000 1.0
C      1  0.4778000000000  0.4910820000000  0.4623440000000 1.0
C      1  0.5232780000000  0.4457630000000  0.5286430000000 1.0
C      1  0.5040670000000  0.5279710000000  0.4821260000000 1.0
C      1  0.4887960000000  0.5318400000000  0.5188310000000 1.0
C      1  0.5290040000000  0.4725920000000  0.5006210000000 1.0
C      1  0.5476570000000  0.5227060000000  0.4895000000000 1.0
C      1  0.4463310000000  0.5233770000000  0.5120290000000 1.0
C      1  0.5258810000000  0.4859550000000  0.5613490000000 1.0
C      1  0.5270490000000  0.5187600000000  0.4545190000000 1.0
C      1  0.4749200000000  0.5151410000000  0.5589520000000 1.0
C      1  0.4432160000000  0.5079480000000  0.5289960000000 1.0
C      1  0.5393340000000  0.4488550000000  0.5127380000000 1.0
C      1  0.5124020000000  0.5365230000000  0.4507930000000 1.0
C      1  0.5511850000000  0.5170080000000  0.4643460000000 1.0
C      1  0.4459590000000  0.4827340000000  0.4703570000000 1.0
C      1  0.5539770000000  0.4902770000000  0.5312120000000 1.0
C      1  0.4659230000000  0.4448390000000  0.4906630000000 1.0
C      1  0.5316330000000  0.5555990000000  0.4893830000000 1.0
C      1  0.4695040000000  0.5561680000000  0.5114100000000 1.0
C      1  0.4859960000000  0.5362320000000  0.5519550000000 1.0
C      1  0.5160780000000  0.4658660000000  0.5501730000000 1.0
C      1  0.4876350000000  0.4682810000000  0.4563380000000 1.0
C      1  0.5315880000000  0.5091220000000  0.4444500000000 1.0
C      1  0.5096070000000  0.4436220000000  0.5302190000000 1.0
C      1  0.4482620000000  0.5379590000000  0.5114890000000 1.0
C      1  0.4654370000000  0.5151170000000  0.5488330000000 1.0
C      1  0.4669460000000  0.4842030000000  0.4540720000000 1.0
C      1  0.5366450000000  0.4871370000000  0.5527560000000 1.0
C      1  0.4860610000000  0.4460180000000  0.4715060000000 1.0
C      1  0.4886330000000  0.5541680000000  0.5311690000000 1.0
C      1  0.5119220000000  0.5563400000000  0.4699070000000 1.0
C      1  0.5505770000000  0.5365670000000  0.4875760000000 1.0
C      1  0.5559600000000  0.4716570000000  0.5115700000000 1.0
C      1  0.4460870000000  0.4639560000000  0.4905140000000 1.0
C      1  0.4876630000000  0.4483470000000  0.5313810000000 1.0
C      1  0.5341390000000  0.4871270000000  0.4473650000000 1.0
C      1  0.4502050000000  0.5357640000000  0.4876710000000 1.0
C      1  0.5081380000000  0.4432120000000  0.4718350000000 1.0
C      1  0.4891560000000  0.5551380000000  0.4700030000000 1.0
C      1  0.5115430000000  0.5522770000000  0.5311530000000 1.0
C      1  0.4719710000000  0.4906630000000  0.5457800000000 1.0
C      1  0.5314020000000  0.5116520000000  0.5521210000000 1.0
C      1  0.4660670000000  0.5044220000000  0.4442590000000 1.0
C      1  0.5515190000000  0.5329060000000  0.5117150000000 1.0
C      1  0.4462650000000  0.4650920000000  0.5136470000000 1.0
C      1  0.5554400000000  0.4716280000000  0.4887050000000 1.0
C      1  0.5382860000000  0.4499350000000  0.4879520000000 1.0
C      1  0.4480610000000  0.4859510000000  0.5305020000000 1.0
C      1  0.4880220000000  0.5352140000000  0.4488010000000 1.0
C      1  0.4667760000000  0.4453580000000  0.5140000000000 1.0
C      1  0.4697940000000  0.5559000000000  0.4885060000000 1.0
C      1  0.5308550000000  0.5531330000000  0.5124980000000 1.0
C      1  0.5537040000000  0.4915990000000  0.4680930000000 1.0
C      1  0.5514310000000  0.5131430000000  0.5314970000000 1.0
C      1  0.4465400000000  0.5053400000000  0.4713510000000 1.0
C      1  0.5103320000000  0.5317450000000  0.5512070000000 1.0
C      1  0.5119160000000  0.4685540000000  0.4523530000000 1.0
C      1  0.4914710000000  0.4719040000000  0.5464430000000 1.0
C      1  0.4512040000000  0.5205270000000  0.4889070000000 1.0
C      1  0.5024320000000  0.4677450000000  0.5054630000000 1.0
C      1  0.5124960000000  0.5040340000000  0.4675350000000 1.0
C      1  0.5333000000000  0.5041470000000  0.4997230000000 1.0
C      1  0.4643740000000  0.4932940000000  0.5059600000000 1.0
C      1  0.5209840000000  0.4878010000000  0.4834780000000 1.0
C      1  0.5214840000000  0.4465900000000  0.4729680000000 1.0
C      1  0.4821360000000  0.5195180000000  0.4792140000000 1.0
C      1  0.5106810000000  0.5249550000000  0.5177890000000 1.0
C      1  0.4829530000000  0.4919330000000  0.5324670000000 1.0
C      1  0.5142490000000  0.5012640000000  0.5368870000000 1.0
C      1  0.4731810000000  0.5164930000000  0.4504700000000 1.0
C      1  0.4859850000000  0.5216240000000  0.4442930000000 1.0
C      1  0.5258700000000  0.4432600000000  0.4861290000000 1.0
C      1  0.4664730000000  0.5062890000000  0.5077330000000 1.0
C      1  0.5044700000000  0.5090360000000  0.5412210000000 1.0
C      1  0.5111490000000  0.4915370000000  0.4738810000000 1.0
C      1  0.4927530000000  0.4818230000000  0.5327060000000 1.0
C      1  0.4887670000000  0.4671170000000  0.5075010000000 1.0
C      1  0.4793820000000  0.5273690000000  0.4897210000000 1.0
C      1  0.5165260000000  0.5286530000000  0.5075370000000 1.0
C      1  0.5306700000000  0.4977420000000  0.4872250000000 1.0
C      1  0.5299470000000  0.4997550000000  0.5118530000000 1.0
C      1  0.4563540000000  0.5158920000000  0.4749440000000 1.0
C      1  0.5594750000000  0.5070040000000  0.4853480000000 1.0
C      1  0.4831120000000  0.5591430000000  0.5077430000000 1.0
C      1  0.5053300000000  0.4855450000000  0.5622570000000 1.0
C      1  0.4373570000000  0.5020360000000  0.5172150000000 1.0
C      1  0.5589240000000  0.4949400000000  0.5183470000000 1.0
C      1  0.4403120000000  0.4862510000000  0.4832690000000 1.0
C      1  0.5181710000000  0.5594370000000  0.4935240000000 1.0
C      1  0.4802240000000  0.4453390000000  0.4949570000000 1.0
C      1  0.5147270000000  0.4388200000000  0.5080230000000 1.0
C      1  0.4964390000000  0.4870040000000  0.4462860000000 1.0
C      1  0.5088960000000  0.5126360000000  0.4403800000000 1.0
C      1  0.4947910000000  0.5155970000000  0.5628310000000 1.0
C      1  0.4843280000000  0.5048840000000  0.5620180000000 1.0
C      1  0.5079840000000  0.5598340000000  0.4834130000000 1.0
C      1  0.5594910000000  0.4850660000000  0.5076130000000 1.0
C      1  0.5195850000000  0.5031790000000  0.4393440000000 1.0
C      1  0.5160770000000  0.4961930000000  0.5635390000000 1.0
C      1  0.4892810000000  0.4979100000000  0.4392350000000 1.0
C      1  0.4929890000000  0.5582660000000  0.5179220000000 1.0
C      1  0.4894270000000  0.4408570000000  0.4846140000000 1.0
C      1  0.5041000000000  0.4389930000000  0.5179300000000 1.0
C      1  0.4403740000000  0.4766020000000  0.4938880000000 1.0
C      1  0.4377360000000  0.5119870000000  0.5067530000000 1.0
C      1  0.5596430000000  0.5163120000000  0.4959210000000 1.0
END
