TITL C-114179-1211-53 -29.0390110008989 1000000 -1658.32888811351 0 0 240 (C1) n - 1
REM
REM in /home/chem/mssmkc/work/GAP20/Larger-Clusters/Only-C240/New/BUILD-ONLY
REM
REM
REM
REM
REM
REM ./C.cell (daee87de7206da95283bc1c1416dbc6f)
REM
REM compiler GCC version 8.3.0
REM options -cpp -mtune=generic -march=x86-64 -g -O0
REM seed -2052009091 -1835343412 -814369345 908883251 1347379890 -1592121168 1282348258 2113001918 -772856122 -131823742 1888895982 -970644830 169389008 774067811 612695394 248446550 252220907 -1959717255 1809581047 2085714158 -1264794513 -1126579260 384548550 1041841331 -209581337 -1131594975 -1439164731 -654280146 -1654732888 1360518281 1670612139 -706507064 1660026857
REM
CELL 1.54180  100.00000  100.00000  100.00000   90.00000   90.00000   90.00000
LATT -1
SFAC C  
C      1  0.5574640000000  0.5188380000000  0.5135680000000 1.0
C      1  0.5277000000000  0.5146870000000  0.5587240000000 1.0
C      1  0.5239250000000  0.5551690000000  0.5286390000000 1.0
C      1  0.4468410000000  0.5213280000000  0.4827360000000 1.0
C      1  0.4446370000000  0.4778740000000  0.5140210000000 1.0
C      1  0.5537770000000  0.4782830000000  0.4820530000000 1.0
C      1  0.4757780000000  0.5146370000000  0.4416220000000 1.0
C      1  0.4734050000000  0.4863200000000  0.5586540000000 1.0
C      1  0.5192630000000  0.4824500000000  0.4407170000000 1.0
C      1  0.4853850000000  0.5559880000000  0.4753070000000 1.0
C      1  0.4845110000000  0.4466250000000  0.5289050000000 1.0
C      1  0.5145490000000  0.4439600000000  0.4726220000000 1.0
C      1  0.5536330000000  0.4764110000000  0.5147650000000 1.0
C      1  0.5281040000000  0.4866390000000  0.5574490000000 1.0
C      1  0.5142420000000  0.4444560000000  0.5276800000000 1.0
C      1  0.4454290000000  0.4791170000000  0.4832970000000 1.0
C      1  0.4432070000000  0.5198500000000  0.5151180000000 1.0
C      1  0.5557670000000  0.5201930000000  0.4818950000000 1.0
C      1  0.4781990000000  0.4853170000000  0.4388010000000 1.0
C      1  0.4740960000000  0.5148040000000  0.5597190000000 1.0
C      1  0.5262910000000  0.5249620000000  0.4396910000000 1.0
C      1  0.4798180000000  0.4423530000000  0.4729970000000 1.0
C      1  0.4779230000000  0.5548480000000  0.5290750000000 1.0
C      1  0.5147190000000  0.5573770000000  0.4752050000000 1.0
C      1  0.4588060000000  0.5328470000000  0.4620840000000 1.0
C      1  0.5282900000000  0.4669780000000  0.4557230000000 1.0
C      1  0.4623070000000  0.4590830000000  0.5355090000000 1.0
C      1  0.5533530000000  0.5379800000000  0.5292480000000 1.0
C      1  0.5477290000000  0.4614070000000  0.4659440000000 1.0
C      1  0.4500980000000  0.4633620000000  0.5314870000000 1.0
C      1  0.4670830000000  0.4702000000000  0.5433260000000 1.0
C      1  0.4625520000000  0.5301170000000  0.4493810000000 1.0
C      1  0.5358910000000  0.5312490000000  0.5448510000000 1.0
C      1  0.5355860000000  0.4562800000000  0.4624570000000 1.0
C      1  0.5428080000000  0.5416410000000  0.5386720000000 1.0
C      1  0.4698390000000  0.5405620000000  0.4674930000000 1.0
C      1  0.4485080000000  0.4614800000000  0.4666510000000 1.0
C      1  0.5361720000000  0.5410730000000  0.4572690000000 1.0
C      1  0.4590450000000  0.5418500000000  0.5397620000000 1.0
C      1  0.5429000000000  0.4666630000000  0.5371430000000 1.0
C      1  0.5420280000000  0.5324750000000  0.4673710000000 1.0
C      1  0.4479590000000  0.5386670000000  0.5308090000000 1.0
C      1  0.4657470000000  0.5312870000000  0.5459490000000 1.0
C      1  0.4696260000000  0.4653490000000  0.4557050000000 1.0
C      1  0.5394610000000  0.4695610000000  0.5498460000000 1.0
C      1  0.5320130000000  0.5525990000000  0.4629160000000 1.0
C      1  0.5309630000000  0.4594090000000  0.5336060000000 1.0
C      1  0.4603930000000  0.4562990000000  0.4625360000000 1.0
C      1  0.5086430000000  0.5193200000000  0.4517630000000 1.0
C      1  0.5122330000000  0.4566720000000  0.5077010000000 1.0
C      1  0.4562590000000  0.5060490000000  0.5214310000000 1.0
C      1  0.4938880000000  0.5145090000000  0.5465860000000 1.0
C      1  0.4922410000000  0.4900420000000  0.4573770000000 1.0
C      1  0.5075530000000  0.4857260000000  0.5472830000000 1.0
C      1  0.4838890000000  0.4554840000000  0.4942240000000 1.0
C      1  0.4830850000000  0.5442540000000  0.5085850000000 1.0
C      1  0.5164620000000  0.5443070000000  0.4940020000000 1.0
C      1  0.5386320000000  0.5054240000000  0.4853140000000 1.0
C      1  0.5398940000000  0.4935970000000  0.5132190000000 1.0
C      1  0.4591490000000  0.4925560000000  0.4779630000000 1.0
C      1  0.5062770000000  0.4918840000000  0.4577170000000 1.0
C      1  0.5190930000000  0.5449050000000  0.5078190000000 1.0
C      1  0.4593040000000  0.4937670000000  0.5159000000000 1.0
C      1  0.4939070000000  0.4861530000000  0.5472850000000 1.0
C      1  0.4952540000000  0.5174880000000  0.4522140000000 1.0
C      1  0.5076310000000  0.5147130000000  0.5463040000000 1.0
C      1  0.4860310000000  0.5435410000000  0.4948630000000 1.0
C      1  0.4856280000000  0.4563760000000  0.5077460000000 1.0
C      1  0.5124630000000  0.4568180000000  0.4937530000000 1.0
C      1  0.5401730000000  0.4931260000000  0.4783660000000 1.0
C      1  0.5438500000000  0.5053440000000  0.5199660000000 1.0
C      1  0.4619830000000  0.5045340000000  0.4849530000000 1.0
C      1  0.5083750000000  0.5444070000000  0.5492350000000 1.0
C      1  0.5487090000000  0.5431430000000  0.5064630000000 1.0
C      1  0.5521660000000  0.5080230000000  0.5464160000000 1.0
C      1  0.4925960000000  0.5461610000000  0.4497250000000 1.0
C      1  0.4939600000000  0.4578480000000  0.5524090000000 1.0
C      1  0.5036770000000  0.4506800000000  0.4490460000000 1.0
C      1  0.4556700000000  0.5450630000000  0.4939290000000 1.0
C      1  0.4571000000000  0.4546100000000  0.5069500000000 1.0
C      1  0.5423960000000  0.4537760000000  0.4914200000000 1.0
C      1  0.4537020000000  0.5048300000000  0.4528970000000 1.0
C      1  0.4491110000000  0.4936660000000  0.5463140000000 1.0
C      1  0.5447860000000  0.4901470000000  0.4497320000000 1.0
C      1  0.5084450000000  0.4568660000000  0.5525520000000 1.0
C      1  0.5419630000000  0.4536210000000  0.5057980000000 1.0
C      1  0.5512120000000  0.4935460000000  0.5447800000000 1.0
C      1  0.4889860000000  0.4516570000000  0.4509050000000 1.0
C      1  0.4936760000000  0.5442910000000  0.5494240000000 1.0
C      1  0.5070410000000  0.5479290000000  0.4501050000000 1.0
C      1  0.4554900000000  0.4546090000000  0.4927260000000 1.0
C      1  0.4521870000000  0.5433140000000  0.5076920000000 1.0
C      1  0.5463430000000  0.5459980000000  0.4925900000000 1.0
C      1  0.4533170000000  0.4904680000000  0.4503180000000 1.0
C      1  0.4488630000000  0.5083340000000  0.5479580000000 1.0
C      1  0.5444700000000  0.5043720000000  0.4520030000000 1.0
C      1  0.4739280000000  0.5295230000000  0.4421120000000 1.0
C      1  0.5292180000000  0.4462250000000  0.4714290000000 1.0
C      1  0.4439460000000  0.4752040000000  0.5288580000000 1.0
C      1  0.5274890000000  0.5293090000000  0.5567750000000 1.0
C      1  0.5204500000000  0.4679130000000  0.4437820000000 1.0
C      1  0.4737120000000  0.4719250000000  0.5563050000000 1.0
C      1  0.4700340000000  0.4482950000000  0.5276580000000 1.0
C      1  0.4709640000000  0.5526580000000  0.4755560000000 1.0
C      1  0.5379070000000  0.5520730000000  0.5293190000000 1.0
C      1  0.5536710000000  0.4733830000000  0.4674440000000 1.0
C      1  0.5587740000000  0.5249080000000  0.5276830000000 1.0
C      1  0.4484670000000  0.5234300000000  0.4683560000000 1.0
C      1  0.4841650000000  0.4731700000000  0.4391860000000 1.0
C      1  0.5296350000000  0.5572290000000  0.4754370000000 1.0
C      1  0.4422710000000  0.5257000000000  0.5294760000000 1.0
C      1  0.5286940000000  0.4720920000000  0.5579370000000 1.0
C      1  0.5288720000000  0.5375100000000  0.4443420000000 1.0
C      1  0.4745190000000  0.5294470000000  0.5575940000000 1.0
C      1  0.4639020000000  0.5521430000000  0.5301910000000 1.0
C      1  0.4657950000000  0.4459310000000  0.4710490000000 1.0
C      1  0.5286690000000  0.4469990000000  0.5262510000000 1.0
C      1  0.5526840000000  0.5224130000000  0.4677100000000 1.0
C      1  0.5533260000000  0.4746460000000  0.5293710000000 1.0
C      1  0.4441100000000  0.4740700000000  0.4688150000000 1.0
C      1  0.4678510000000  0.4854020000000  0.5226040000000 1.0
C      1  0.4863780000000  0.5214320000000  0.4635160000000 1.0
C      1  0.5163250000000  0.4686960000000  0.4856460000000 1.0
C      1  0.5305920000000  0.4837860000000  0.4751990000000 1.0
C      1  0.5351100000000  0.5153630000000  0.5236490000000 1.0
C      1  0.4706910000000  0.5133610000000  0.4785980000000 1.0
C      1  0.5160830000000  0.5207460000000  0.5362960000000 1.0
C      1  0.5127450000000  0.4833060000000  0.4670680000000 1.0
C      1  0.4859160000000  0.4815210000000  0.5364970000000 1.0
C      1  0.4815770000000  0.4676590000000  0.5161990000000 1.0
C      1  0.4820350000000  0.5330630000000  0.4857930000000 1.0
C      1  0.5230350000000  0.5334760000000  0.5161410000000 1.0
C      1  0.4655910000000  0.5155860000000  0.5250630000000 1.0
C      1  0.4862010000000  0.4812330000000  0.4662690000000 1.0
C      1  0.5211960000000  0.5349490000000  0.4837700000000 1.0
C      1  0.5308520000000  0.5144030000000  0.4783600000000 1.0
C      1  0.5311280000000  0.4857660000000  0.5207460000000 1.0
C      1  0.4681320000000  0.4826030000000  0.4745120000000 1.0
C      1  0.5156910000000  0.4799080000000  0.5369120000000 1.0
C      1  0.5153780000000  0.5233090000000  0.4636800000000 1.0
C      1  0.4851260000000  0.5201900000000  0.5369030000000 1.0
C      1  0.4784650000000  0.5330060000000  0.5168410000000 1.0
C      1  0.4829060000000  0.4677870000000  0.4858510000000 1.0
C      1  0.5175730000000  0.4669160000000  0.5159150000000 1.0
C      1  0.4452570000000  0.4916440000000  0.5107490000000 1.0
C      1  0.4888360000000  0.5113290000000  0.4416670000000 1.0
C      1  0.5095930000000  0.4464870000000  0.4852860000000 1.0
C      1  0.5544950000000  0.4923790000000  0.4819090000000 1.0
C      1  0.5573820000000  0.5046150000000  0.5142410000000 1.0
C      1  0.4472940000000  0.5074850000000  0.4872670000000 1.0
C      1  0.5153940000000  0.5074650000000  0.5568940000000 1.0
C      1  0.5070330000000  0.4887660000000  0.4424730000000 1.0
C      1  0.4858980000000  0.4934290000000  0.5574390000000 1.0
C      1  0.4920100000000  0.4460680000000  0.5164250000000 1.0
C      1  0.4934920000000  0.5541520000000  0.4873530000000 1.0
C      1  0.5188950000000  0.5561610000000  0.5160160000000 1.0
C      1  0.4427550000000  0.5058470000000  0.5152950000000 1.0
C      1  0.4924050000000  0.4849400000000  0.4424920000000 1.0
C      1  0.5077110000000  0.5546980000000  0.4873160000000 1.0
C      1  0.5542120000000  0.5068300000000  0.4865060000000 1.0
C      1  0.5542260000000  0.4900990000000  0.5098720000000 1.0
C      1  0.4450580000000  0.4931540000000  0.4826640000000 1.0
C      1  0.5154760000000  0.4933680000000  0.5569240000000 1.0
C      1  0.5197540000000  0.5137640000000  0.4432440000000 1.0
C      1  0.4862430000000  0.5074850000000  0.5575460000000 1.0
C      1  0.4829670000000  0.5557600000000  0.5164280000000 1.0
C      1  0.4779460000000  0.4441150000000  0.4876050000000 1.0
C      1  0.5059620000000  0.4458150000000  0.5159570000000 1.0
C      1  0.5531170000000  0.4815570000000  0.4559660000000 1.0
C      1  0.4843270000000  0.4640160000000  0.5594450000000 1.0
C      1  0.4619400000000  0.5537170000000  0.4856150000000 1.0
C      1  0.4425030000000  0.4857360000000  0.5378400000000 1.0
C      1  0.4461040000000  0.5123530000000  0.4607200000000 1.0
C      1  0.5591300000000  0.5169630000000  0.5392390000000 1.0
C      1  0.5118610000000  0.4576300000000  0.4409340000000 1.0
C      1  0.5163500000000  0.5369260000000  0.5577310000000 1.0
C      1  0.4840120000000  0.5392570000000  0.4420130000000 1.0
C      1  0.5485730000000  0.5480390000000  0.5195400000000 1.0
C      1  0.5362730000000  0.4454010000000  0.4831320000000 1.0
C      1  0.4641560000000  0.4467130000000  0.5152640000000 1.0
C      1  0.5530540000000  0.5117160000000  0.4592870000000 1.0
C      1  0.4856960000000  0.5371130000000  0.5582080000000 1.0
C      1  0.4631400000000  0.4458240000000  0.4852480000000 1.0
C      1  0.4421870000000  0.5176870000000  0.5409840000000 1.0
C      1  0.4455720000000  0.4816200000000  0.4568670000000 1.0
C      1  0.5577770000000  0.4854550000000  0.5365370000000 1.0
C      1  0.5168060000000  0.5440550000000  0.4420800000000 1.0
C      1  0.5179480000000  0.4633730000000  0.5594760000000 1.0
C      1  0.4800390000000  0.4616140000000  0.4466140000000 1.0
C      1  0.5363100000000  0.4456320000000  0.5151180000000 1.0
C      1  0.5389540000000  0.5546740000000  0.4854310000000 1.0
C      1  0.4527700000000  0.5484710000000  0.5207450000000 1.0
C      1  0.5083230000000  0.4549820000000  0.5368220000000 1.0
C      1  0.4541950000000  0.5279500000000  0.5073150000000 1.0
C      1  0.5284550000000  0.5049080000000  0.4529930000000 1.0
C      1  0.4899110000000  0.4443520000000  0.4636380000000 1.0
C      1  0.4870110000000  0.5452740000000  0.5360520000000 1.0
C      1  0.5078710000000  0.5472060000000  0.4657310000000 1.0
C      1  0.5467520000000  0.5293200000000  0.4902360000000 1.0
C      1  0.5424310000000  0.4691450000000  0.5065930000000 1.0
C      1  0.4565920000000  0.4700490000000  0.4914330000000 1.0
C      1  0.4646960000000  0.5084680000000  0.5493900000000 1.0
C      1  0.4692410000000  0.4901990000000  0.4497990000000 1.0
C      1  0.5356030000000  0.4933520000000  0.5459340000000 1.0
C      1  0.5149200000000  0.5457340000000  0.5357700000000 1.0
C      1  0.4566810000000  0.4701720000000  0.5073140000000 1.0
C      1  0.5290460000000  0.4895600000000  0.4500580000000 1.0
C      1  0.4923460000000  0.5467260000000  0.4656370000000 1.0
C      1  0.4929750000000  0.4568570000000  0.5366610000000 1.0
C      1  0.5044780000000  0.4439030000000  0.4625280000000 1.0
C      1  0.5425730000000  0.4697160000000  0.4908130000000 1.0
C      1  0.5468290000000  0.5276760000000  0.5055410000000 1.0
C      1  0.4565210000000  0.5290930000000  0.4919680000000 1.0
C      1  0.4647160000000  0.4931920000000  0.5480840000000 1.0
C      1  0.4693120000000  0.5058320000000  0.4528690000000 1.0
C      1  0.5364260000000  0.5086450000000  0.5480430000000 1.0
C      1  0.5336770000000  0.5251640000000  0.5139280000000 1.0
C      1  0.5310940000000  0.5180710000000  0.5370340000000 1.0
C      1  0.5157740000000  0.5330330000000  0.5286180000000 1.0
C      1  0.4711620000000  0.5244580000000  0.4873460000000 1.0
C      1  0.4698060000000  0.4745910000000  0.5141490000000 1.0
C      1  0.5292310000000  0.4736450000000  0.4846670000000 1.0
C      1  0.4758250000000  0.5124360000000  0.4656510000000 1.0
C      1  0.4709870000000  0.4840190000000  0.5365550000000 1.0
C      1  0.5261070000000  0.4805470000000  0.4619740000000 1.0
C      1  0.4841880000000  0.5342040000000  0.4701660000000 1.0
C      1  0.4889210000000  0.4701550000000  0.5285660000000 1.0
C      1  0.5067430000000  0.4749940000000  0.4768720000000 1.0
C      1  0.5287440000000  0.4746240000000  0.5125680000000 1.0
C      1  0.5268130000000  0.4879710000000  0.5336740000000 1.0
C      1  0.5170350000000  0.4664890000000  0.5314650000000 1.0
C      1  0.4698440000000  0.4730250000000  0.4844130000000 1.0
C      1  0.4671920000000  0.5254460000000  0.5155840000000 1.0
C      1  0.5340800000000  0.5284900000000  0.4811360000000 1.0
C      1  0.4725030000000  0.4793750000000  0.4610900000000 1.0
C      1  0.4701310000000  0.5177780000000  0.5382510000000 1.0
C      1  0.5239650000000  0.5123760000000  0.4664610000000 1.0
C      1  0.4924340000000  0.4740440000000  0.4768740000000 1.0
C      1  0.4857560000000  0.5324550000000  0.5292330000000 1.0
C      1  0.5138300000000  0.5343850000000  0.4715140000000 1.0
END
