TITL C-114180-423-19 4.1719382754986 1000000 -1668.27859041497 0 0 240 (Td) n - 1
REM
REM in /home/chem/mssmkc/work/GAP20/Larger-Clusters/Only-C240/New/BUILD-ONLY
REM
REM
REM
REM
REM
REM ./C.cell (daee87de7206da95283bc1c1416dbc6f)
REM
REM compiler GCC version 8.3.0
REM options -cpp -mtune=generic -march=x86-64 -g -O0
REM seed -302123226 2080601068 1000456450 -398019117 694689692 1711070925 -587797927 -1286990450 -585951696 -1049603109 -1211619037 -1858293474 -1814876479 -440422223 677518849 -1424359755 997067244 1998294429 -602542577 -792311967 1549756520 -1418759366 297569621 497545561 1166831630 -1422590748 828276317 375294163 -1259383302 1405801627 1478952204 -830602989 -317838127
REM
CELL 1.54180  100.00000  100.00000  100.00000   90.00000   90.00000   90.00000
LATT -1
SFAC C  
C      1  0.4587640000000  0.5511800000000  0.4799560000000 1.0
C      1  0.5511800000000  0.4799560000000  0.4587640000000 1.0
C      1  0.4799550000000  0.4587630000000  0.5511790000000 1.0
C      1  0.5412370000000  0.4488200000000  0.4799580000000 1.0
C      1  0.4587610000000  0.4488220000000  0.5200420000000 1.0
C      1  0.5412380000000  0.5511780000000  0.5200440000000 1.0
C      1  0.4488220000000  0.5200440000000  0.4587610000000 1.0
C      1  0.5511790000000  0.5200420000000  0.5412390000000 1.0
C      1  0.4488190000000  0.4799580000000  0.5412360000000 1.0
C      1  0.5200430000000  0.5412370000000  0.5511800000000 1.0
C      1  0.4799590000000  0.5412380000000  0.4488200000000 1.0
C      1  0.5200430000000  0.4587620000000  0.4488210000000 1.0
C      1  0.5511790000000  0.4587610000000  0.4799580000000 1.0
C      1  0.4799590000000  0.5511800000000  0.4587620000000 1.0
C      1  0.4587610000000  0.4799580000000  0.5511780000000 1.0
C      1  0.4488220000000  0.5412390000000  0.4799560000000 1.0
C      1  0.4488190000000  0.4587640000000  0.5200420000000 1.0
C      1  0.5511800000000  0.5412360000000  0.5200440000000 1.0
C      1  0.5200430000000  0.4488200000000  0.4587630000000 1.0
C      1  0.5200430000000  0.5511790000000  0.5412380000000 1.0
C      1  0.4799550000000  0.4488210000000  0.5412370000000 1.0
C      1  0.5412360000000  0.5200420000000  0.5511800000000 1.0
C      1  0.5412380000000  0.4799560000000  0.4488220000000 1.0
C      1  0.4587650000000  0.5200440000000  0.4488200000000 1.0
C      1  0.5195400000000  0.5619730000000  0.5024720000000 1.0
C      1  0.5619730000000  0.5024700000000  0.5195400000000 1.0
C      1  0.5024710000000  0.5195390000000  0.5619740000000 1.0
C      1  0.4804600000000  0.4380270000000  0.5024710000000 1.0
C      1  0.5195370000000  0.4380260000000  0.4975290000000 1.0
C      1  0.4804630000000  0.5619740000000  0.4975280000000 1.0
C      1  0.4380260000000  0.4975300000000  0.5195370000000 1.0
C      1  0.5619740000000  0.4975270000000  0.4804630000000 1.0
C      1  0.4380270000000  0.5024730000000  0.4804600000000 1.0
C      1  0.4975260000000  0.4804620000000  0.5619740000000 1.0
C      1  0.5024730000000  0.4804610000000  0.4380260000000 1.0
C      1  0.4975300000000  0.5195390000000  0.4380260000000 1.0
C      1  0.5619740000000  0.5195370000000  0.5024740000000 1.0
C      1  0.5024730000000  0.5619740000000  0.5195390000000 1.0
C      1  0.5195370000000  0.5024710000000  0.5619740000000 1.0
C      1  0.4380260000000  0.4804630000000  0.5024700000000 1.0
C      1  0.4380270000000  0.5195400000000  0.4975260000000 1.0
C      1  0.5619730000000  0.4804600000000  0.4975300000000 1.0
C      1  0.4975260000000  0.4380260000000  0.5195390000000 1.0
C      1  0.4975300000000  0.5619740000000  0.4804610000000 1.0
C      1  0.5024710000000  0.4380260000000  0.4804620000000 1.0
C      1  0.4804600000000  0.4975290000000  0.5619730000000 1.0
C      1  0.4804630000000  0.5024720000000  0.4380260000000 1.0
C      1  0.5195400000000  0.4975280000000  0.4380270000000 1.0
C      1  0.4673350000000  0.4562170000000  0.5088690000000 1.0
C      1  0.4562170000000  0.5088710000000  0.4673350000000 1.0
C      1  0.5088700000000  0.4673360000000  0.4562160000000 1.0
C      1  0.5326650000000  0.5437830000000  0.5088710000000 1.0
C      1  0.4673370000000  0.5437850000000  0.4911290000000 1.0
C      1  0.5326630000000  0.4562150000000  0.4911310000000 1.0
C      1  0.5437850000000  0.4911290000000  0.4673370000000 1.0
C      1  0.4562150000000  0.4911310000000  0.5326630000000 1.0
C      1  0.5437830000000  0.5088690000000  0.5326650000000 1.0
C      1  0.4911320000000  0.5326640000000  0.4562160000000 1.0
C      1  0.5088700000000  0.5326640000000  0.5437840000000 1.0
C      1  0.4911280000000  0.4673360000000  0.5437840000000 1.0
C      1  0.4562150000000  0.4673370000000  0.5088690000000 1.0
C      1  0.5088700000000  0.4562160000000  0.4673360000000 1.0
C      1  0.4673370000000  0.5088710000000  0.4562150000000 1.0
C      1  0.5437850000000  0.5326630000000  0.5088710000000 1.0
C      1  0.5437830000000  0.4673350000000  0.4911310000000 1.0
C      1  0.4562170000000  0.5326650000000  0.4911290000000 1.0
C      1  0.4911320000000  0.5437840000000  0.4673360000000 1.0
C      1  0.4911280000000  0.4562160000000  0.5326640000000 1.0
C      1  0.5088700000000  0.5437840000000  0.5326640000000 1.0
C      1  0.5326650000000  0.4911290000000  0.4562170000000 1.0
C      1  0.5326630000000  0.5088690000000  0.5437850000000 1.0
C      1  0.4673350000000  0.4911310000000  0.5437830000000 1.0
C      1  0.4661270000000  0.4458030000000  0.4853370000000 1.0
C      1  0.4458030000000  0.4853390000000  0.4661260000000 1.0
C      1  0.4853380000000  0.4661280000000  0.4458020000000 1.0
C      1  0.5338740000000  0.5541970000000  0.4853390000000 1.0
C      1  0.4661290000000  0.5541980000000  0.5146610000000 1.0
C      1  0.5338710000000  0.4458020000000  0.5146630000000 1.0
C      1  0.5541990000000  0.5146610000000  0.4661290000000 1.0
C      1  0.4458020000000  0.5146640000000  0.5338710000000 1.0
C      1  0.5541960000000  0.4853360000000  0.5338740000000 1.0
C      1  0.5146650000000  0.5338720000000  0.4458030000000 1.0
C      1  0.4853370000000  0.5338730000000  0.5541970000000 1.0
C      1  0.5146600000000  0.4661270000000  0.5541980000000 1.0
C      1  0.4458020000000  0.4661290000000  0.4853360000000 1.0
C      1  0.4853370000000  0.4458030000000  0.4661270000000 1.0
C      1  0.4661290000000  0.4853380000000  0.4458020000000 1.0
C      1  0.5541990000000  0.5338710000000  0.4853390000000 1.0
C      1  0.5541960000000  0.4661260000000  0.5146640000000 1.0
C      1  0.4458030000000  0.5338740000000  0.5146610000000 1.0
C      1  0.5146650000000  0.5541970000000  0.4661280000000 1.0
C      1  0.5146600000000  0.4458020000000  0.5338730000000 1.0
C      1  0.4853380000000  0.5541980000000  0.5338720000000 1.0
C      1  0.5338740000000  0.5146620000000  0.4458030000000 1.0
C      1  0.5338710000000  0.4853370000000  0.5541980000000 1.0
C      1  0.4661270000000  0.5146630000000  0.5541970000000 1.0
C      1  0.4858110000000  0.5244530000000  0.4310560000000 1.0
C      1  0.5244510000000  0.4310560000000  0.4858090000000 1.0
C      1  0.4310550000000  0.4858100000000  0.5244510000000 1.0
C      1  0.5141930000000  0.4755470000000  0.4310560000000 1.0
C      1  0.4858060000000  0.4755480000000  0.5689440000000 1.0
C      1  0.5141910000000  0.5244520000000  0.5689440000000 1.0
C      1  0.4755500000000  0.5689440000000  0.4858080000000 1.0
C      1  0.5244540000000  0.5689430000000  0.5141920000000 1.0
C      1  0.4755460000000  0.4310570000000  0.5141910000000 1.0
C      1  0.5689440000000  0.5141900000000  0.5244540000000 1.0
C      1  0.4310570000000  0.5141930000000  0.4755460000000 1.0
C      1  0.5689440000000  0.4858070000000  0.4755490000000 1.0
C      1  0.5244540000000  0.4858080000000  0.4310570000000 1.0
C      1  0.4310570000000  0.5244540000000  0.4858060000000 1.0
C      1  0.4858060000000  0.4310560000000  0.5244520000000 1.0
C      1  0.4755500000000  0.5141920000000  0.4310550000000 1.0
C      1  0.4755450000000  0.4858090000000  0.5689430000000 1.0
C      1  0.5244510000000  0.5141910000000  0.5689450000000 1.0
C      1  0.5689440000000  0.4755460000000  0.4858100000000 1.0
C      1  0.5689440000000  0.5244510000000  0.5141940000000 1.0
C      1  0.4310550000000  0.4755490000000  0.5141900000000 1.0
C      1  0.5141930000000  0.5689440000000  0.5244530000000 1.0
C      1  0.5141910000000  0.4310560000000  0.4755480000000 1.0
C      1  0.4858110000000  0.5689440000000  0.4755470000000 1.0
C      1  0.4498330000000  0.4596070000000  0.4969160000000 1.0
C      1  0.4596070000000  0.4969180000000  0.4498330000000 1.0
C      1  0.4969170000000  0.4498340000000  0.4596060000000 1.0
C      1  0.5501670000000  0.5403930000000  0.4969190000000 1.0
C      1  0.4498350000000  0.5403960000000  0.5030810000000 1.0
C      1  0.5501650000000  0.4596040000000  0.5030840000000 1.0
C      1  0.5403960000000  0.5030820000000  0.4498350000000 1.0
C      1  0.4596040000000  0.5030840000000  0.5501650000000 1.0
C      1  0.5403930000000  0.4969170000000  0.5501670000000 1.0
C      1  0.5030850000000  0.5501660000000  0.4596060000000 1.0
C      1  0.4969180000000  0.5501660000000  0.5403940000000 1.0
C      1  0.5030800000000  0.4498340000000  0.5403940000000 1.0
C      1  0.4596050000000  0.4498350000000  0.4969160000000 1.0
C      1  0.4969180000000  0.4596060000000  0.4498340000000 1.0
C      1  0.4498350000000  0.4969190000000  0.4596040000000 1.0
C      1  0.5403960000000  0.5501650000000  0.4969190000000 1.0
C      1  0.5403930000000  0.4498330000000  0.5030840000000 1.0
C      1  0.4596070000000  0.5501670000000  0.5030810000000 1.0
C      1  0.5030850000000  0.5403940000000  0.4498340000000 1.0
C      1  0.5030800000000  0.4596060000000  0.5501660000000 1.0
C      1  0.4969170000000  0.5403940000000  0.5501660000000 1.0
C      1  0.5501670000000  0.5030810000000  0.4596070000000 1.0
C      1  0.5501650000000  0.4969160000000  0.5403960000000 1.0
C      1  0.4498330000000  0.5030840000000  0.5403930000000 1.0
C      1  0.5365960000000  0.4531720000000  0.5265980000000 1.0
C      1  0.4531720000000  0.5265980000000  0.5365960000000 1.0
C      1  0.5265990000000  0.5365970000000  0.4531730000000 1.0
C      1  0.4634030000000  0.5468280000000  0.5265960000000 1.0
C      1  0.5365990000000  0.5468260000000  0.4734040000000 1.0
C      1  0.4634020000000  0.4531740000000  0.4734020000000 1.0
C      1  0.5468260000000  0.4734020000000  0.5365990000000 1.0
C      1  0.4531730000000  0.4734040000000  0.4634010000000 1.0
C      1  0.5468290000000  0.5265960000000  0.4634040000000 1.0
C      1  0.4734040000000  0.4634030000000  0.4531720000000 1.0
C      1  0.5265950000000  0.4634020000000  0.5468280000000 1.0
C      1  0.4734030000000  0.5365980000000  0.5468270000000 1.0
C      1  0.4531730000000  0.5365990000000  0.5265960000000 1.0
C      1  0.5265950000000  0.4531720000000  0.5365980000000 1.0
C      1  0.5365990000000  0.5265960000000  0.4531740000000 1.0
C      1  0.5468260000000  0.4634010000000  0.5265980000000 1.0
C      1  0.5468290000000  0.5365960000000  0.4734040000000 1.0
C      1  0.4531730000000  0.4634040000000  0.4734020000000 1.0
C      1  0.4734030000000  0.5468280000000  0.5365970000000 1.0
C      1  0.4734030000000  0.4531730000000  0.4634020000000 1.0
C      1  0.5265990000000  0.5468270000000  0.4634030000000 1.0
C      1  0.4634030000000  0.4734040000000  0.4531720000000 1.0
C      1  0.4634020000000  0.5265980000000  0.5468260000000 1.0
C      1  0.5365960000000  0.4734020000000  0.5468280000000 1.0
C      1  0.4784640000000  0.4389760000000  0.4884680000000 1.0
C      1  0.4389760000000  0.4884700000000  0.4784630000000 1.0
C      1  0.4884700000000  0.4784650000000  0.4389750000000 1.0
C      1  0.5215370000000  0.5610240000000  0.4884690000000 1.0
C      1  0.4784660000000  0.5610250000000  0.5115310000000 1.0
C      1  0.5215330000000  0.4389750000000  0.5115320000000 1.0
C      1  0.5610260000000  0.5115300000000  0.4784660000000 1.0
C      1  0.4389750000000  0.5115330000000  0.5215340000000 1.0
C      1  0.5610240000000  0.4884670000000  0.5215370000000 1.0
C      1  0.5115330000000  0.5215350000000  0.4389760000000 1.0
C      1  0.4884680000000  0.5215350000000  0.5610240000000 1.0
C      1  0.5115290000000  0.4784650000000  0.5610250000000 1.0
C      1  0.4389750000000  0.4784660000000  0.4884670000000 1.0
C      1  0.4884680000000  0.4389760000000  0.4784650000000 1.0
C      1  0.4784660000000  0.4884690000000  0.4389750000000 1.0
C      1  0.5610260000000  0.5215340000000  0.4884700000000 1.0
C      1  0.5610240000000  0.4784630000000  0.5115330000000 1.0
C      1  0.4389750000000  0.5215370000000  0.5115300000000 1.0
C      1  0.5115330000000  0.5610240000000  0.4784650000000 1.0
C      1  0.5115290000000  0.4389750000000  0.5215350000000 1.0
C      1  0.4884700000000  0.5610250000000  0.5215350000000 1.0
C      1  0.5215370000000  0.5115310000000  0.4389760000000 1.0
C      1  0.5215330000000  0.4884680000000  0.5610250000000 1.0
C      1  0.4784640000000  0.5115320000000  0.5610240000000 1.0
C      1  0.5347190000000  0.4373580000000  0.4758680000000 1.0
C      1  0.4373570000000  0.4758680000000  0.5347180000000 1.0
C      1  0.4758690000000  0.5347210000000  0.4373580000000 1.0
C      1  0.4652820000000  0.5626420000000  0.4758660000000 1.0
C      1  0.5347210000000  0.5626400000000  0.5241340000000 1.0
C      1  0.4652780000000  0.4373600000000  0.5241330000000 1.0
C      1  0.5626410000000  0.5241320000000  0.5347220000000 1.0
C      1  0.4373600000000  0.5241350000000  0.4652780000000 1.0
C      1  0.5626420000000  0.4758650000000  0.4652820000000 1.0
C      1  0.5241340000000  0.4652790000000  0.4373590000000 1.0
C      1  0.4758640000000  0.4652810000000  0.5626410000000 1.0
C      1  0.5241330000000  0.5347190000000  0.5626420000000 1.0
C      1  0.4373600000000  0.5347210000000  0.4758650000000 1.0
C      1  0.4758640000000  0.4373590000000  0.5347190000000 1.0
C      1  0.5347210000000  0.4758660000000  0.4373600000000 1.0
C      1  0.5626410000000  0.4652790000000  0.4758680000000 1.0
C      1  0.5626410000000  0.5347180000000  0.5241350000000 1.0
C      1  0.4373570000000  0.4652820000000  0.5241320000000 1.0
C      1  0.5241340000000  0.5626410000000  0.5347210000000 1.0
C      1  0.5241330000000  0.4373580000000  0.4652810000000 1.0
C      1  0.4758690000000  0.5626420000000  0.4652790000000 1.0
C      1  0.4652820000000  0.5241340000000  0.4373580000000 1.0
C      1  0.4652780000000  0.4758670000000  0.5626400000000 1.0
C      1  0.5347190000000  0.5241330000000  0.5626420000000 1.0
C      1  0.5188350000000  0.5473620000000  0.5090170000000 1.0
C      1  0.5473620000000  0.5090160000000  0.5188350000000 1.0
C      1  0.5090160000000  0.5188340000000  0.5473630000000 1.0
C      1  0.4811640000000  0.4526380000000  0.5090160000000 1.0
C      1  0.5188330000000  0.4526370000000  0.4909840000000 1.0
C      1  0.4811670000000  0.5473630000000  0.4909830000000 1.0
C      1  0.4526370000000  0.4909840000000  0.5188330000000 1.0
C      1  0.5473630000000  0.4909820000000  0.4811670000000 1.0
C      1  0.4526380000000  0.5090180000000  0.4811650000000 1.0
C      1  0.4909820000000  0.4811660000000  0.5473620000000 1.0
C      1  0.5090180000000  0.4811660000000  0.4526380000000 1.0
C      1  0.4909850000000  0.5188340000000  0.4526370000000 1.0
C      1  0.5473630000000  0.5188330000000  0.5090180000000 1.0
C      1  0.5090170000000  0.5473620000000  0.5188340000000 1.0
C      1  0.5188330000000  0.5090160000000  0.5473630000000 1.0
C      1  0.4526370000000  0.4811670000000  0.5090160000000 1.0
C      1  0.4526380000000  0.5188350000000  0.4909820000000 1.0
C      1  0.5473620000000  0.4811650000000  0.4909840000000 1.0
C      1  0.4909820000000  0.4526380000000  0.5188340000000 1.0
C      1  0.4909850000000  0.5473630000000  0.4811660000000 1.0
C      1  0.5090160000000  0.4526370000000  0.4811660000000 1.0
C      1  0.4811640000000  0.4909840000000  0.5473620000000 1.0
C      1  0.4811670000000  0.5090170000000  0.4526370000000 1.0
C      1  0.5188350000000  0.4909830000000  0.4526380000000 1.0
END
