TITL C-114179-1211-102 5.4689952841046 1000000 -1669.29685510062 0 0 240 (Th) n - 1
REM
REM in /home/chem/mssmkc/work/GAP20/Larger-Clusters/Only-C240/New/BUILD-ONLY
REM
REM
REM
REM
REM
REM ./C.cell (daee87de7206da95283bc1c1416dbc6f)
REM
REM compiler GCC version 8.3.0
REM options -cpp -mtune=generic -march=x86-64 -g -O0
REM seed -1754916239 -1071574261 1587507248 700925666 129925264 915809729 -1439658893 -466514203 1263733162 1890234812 -805673240 -2085441999 -45192692 1351379518 -497454233 -650907694 -1595905273 1289702527 264962069 -1524923072 -401844744 545922030 929756304 1419755289 -1803608060 2062523137 -766314435 -1408821848 -408813199 1928998927 69315545 -991214227 -357207398
REM
CELL 1.54180  100.00000  100.00000  100.00000   90.00000   90.00000   90.00000
LATT -1
SFAC C  
C      1  0.4826780000000  0.4417330000000  0.4760750000000 1.0
C      1  0.4417280000000  0.4761060000000  0.4826520000000 1.0
C      1  0.4761120000000  0.4826940000000  0.4417120000000 1.0
C      1  0.5173180000000  0.4417160000000  0.5238870000000 1.0
C      1  0.5173340000000  0.5582830000000  0.4761220000000 1.0
C      1  0.4826700000000  0.5582690000000  0.5239160000000 1.0
C      1  0.5582710000000  0.4760900000000  0.5173330000000 1.0
C      1  0.5582810000000  0.5239050000000  0.4826970000000 1.0
C      1  0.4417210000000  0.5238980000000  0.5173190000000 1.0
C      1  0.5238860000000  0.4826540000000  0.5582760000000 1.0
C      1  0.5239170000000  0.5173440000000  0.4417360000000 1.0
C      1  0.4760840000000  0.5173080000000  0.5582760000000 1.0
C      1  0.4826820000000  0.5582840000000  0.4761130000000 1.0
C      1  0.4417290000000  0.5239100000000  0.4826670000000 1.0
C      1  0.4761140000000  0.5173460000000  0.4417240000000 1.0
C      1  0.5173220000000  0.5582670000000  0.5239250000000 1.0
C      1  0.5173300000000  0.4417310000000  0.4760840000000 1.0
C      1  0.4826660000000  0.4417170000000  0.5238780000000 1.0
C      1  0.5582720000000  0.5238940000000  0.5173480000000 1.0
C      1  0.5582790000000  0.4761020000000  0.4826810000000 1.0
C      1  0.4417190000000  0.4760950000000  0.5173030000000 1.0
C      1  0.5238880000000  0.5173060000000  0.5582880000000 1.0
C      1  0.5239160000000  0.4826920000000  0.4417240000000 1.0
C      1  0.4760830000000  0.4826560000000  0.5582640000000 1.0
C      1  0.5480340000000  0.5411870000000  0.4715000000000 1.0
C      1  0.5411660000000  0.4714570000000  0.5480260000000 1.0
C      1  0.4714650000000  0.5480130000000  0.5411880000000 1.0
C      1  0.4519690000000  0.5411720000000  0.5285270000000 1.0
C      1  0.4519800000000  0.4588320000000  0.4714480000000 1.0
C      1  0.5480170000000  0.4588090000000  0.5285250000000 1.0
C      1  0.4588310000000  0.4714910000000  0.4519550000000 1.0
C      1  0.4588090000000  0.5285120000000  0.5480240000000 1.0
C      1  0.5411930000000  0.5285400000000  0.4519940000000 1.0
C      1  0.5285380000000  0.5480380000000  0.4588430000000 1.0
C      1  0.5285140000000  0.4519600000000  0.5411710000000 1.0
C      1  0.4714830000000  0.4519890000000  0.4587980000000 1.0
C      1  0.5480310000000  0.4588280000000  0.4714730000000 1.0
C      1  0.5411690000000  0.5285090000000  0.5480450000000 1.0
C      1  0.4714620000000  0.4519620000000  0.5411570000000 1.0
C      1  0.4519660000000  0.4588130000000  0.5285000000000 1.0
C      1  0.4519830000000  0.5411910000000  0.4714750000000 1.0
C      1  0.5480200000000  0.5411680000000  0.5285520000000 1.0
C      1  0.4588340000000  0.5285430000000  0.4519740000000 1.0
C      1  0.4588070000000  0.4714600000000  0.5480060000000 1.0
C      1  0.5411910000000  0.4714880000000  0.4519760000000 1.0
C      1  0.5285350000000  0.4519870000000  0.4588120000000 1.0
C      1  0.5285170000000  0.5480110000000  0.5412020000000 1.0
C      1  0.4714860000000  0.5480400000000  0.4588290000000 1.0
C      1  0.5358630000000  0.4656880000000  0.5079650000000 1.0
C      1  0.4656830000000  0.5079570000000  0.5358600000000 1.0
C      1  0.5079770000000  0.5358770000000  0.4657050000000 1.0
C      1  0.4641350000000  0.4656960000000  0.4920130000000 1.0
C      1  0.4641330000000  0.5343070000000  0.5079690000000 1.0
C      1  0.5358690000000  0.5343100000000  0.4920530000000 1.0
C      1  0.5343180000000  0.5079780000000  0.4641450000000 1.0
C      1  0.5342990000000  0.4920200000000  0.5358720000000 1.0
C      1  0.4657000000000  0.4920460000000  0.4641230000000 1.0
C      1  0.4920250000000  0.5358550000000  0.5343180000000 1.0
C      1  0.4920400000000  0.4641460000000  0.4656780000000 1.0
C      1  0.5079570000000  0.4641230000000  0.5342990000000 1.0
C      1  0.5358650000000  0.5343040000000  0.5079870000000 1.0
C      1  0.4656820000000  0.4920220000000  0.5358550000000 1.0
C      1  0.5079750000000  0.4641450000000  0.4656820000000 1.0
C      1  0.4641370000000  0.5343120000000  0.4920350000000 1.0
C      1  0.4641310000000  0.4656900000000  0.5079470000000 1.0
C      1  0.5358670000000  0.4656930000000  0.4920310000000 1.0
C      1  0.5343170000000  0.4920430000000  0.4641400000000 1.0
C      1  0.5343000000000  0.5079540000000  0.5358770000000 1.0
C      1  0.4657010000000  0.5079800000000  0.4641280000000 1.0
C      1  0.4920230000000  0.4641230000000  0.5342950000000 1.0
C      1  0.4920430000000  0.5358770000000  0.4657010000000 1.0
C      1  0.5079600000000  0.5358540000000  0.5343220000000 1.0
C      1  0.5068790000000  0.5338080000000  0.5508980000000 1.0
C      1  0.5338250000000  0.5508810000000  0.5069160000000 1.0
C      1  0.5508770000000  0.5068780000000  0.5338390000000 1.0
C      1  0.4931230000000  0.5338410000000  0.4491240000000 1.0
C      1  0.4930950000000  0.4661590000000  0.5508720000000 1.0
C      1  0.5069020000000  0.4661920000000  0.4491060000000 1.0
C      1  0.4661790000000  0.5508880000000  0.4931170000000 1.0
C      1  0.4661720000000  0.4491140000000  0.5068660000000 1.0
C      1  0.5338240000000  0.4491160000000  0.4931010000000 1.0
C      1  0.4491240000000  0.5069040000000  0.4661650000000 1.0
C      1  0.4491060000000  0.4931000000000  0.5338090000000 1.0
C      1  0.5508930000000  0.4931180000000  0.4661860000000 1.0
C      1  0.5068770000000  0.4661590000000  0.5508760000000 1.0
C      1  0.5338210000000  0.4491120000000  0.5068830000000 1.0
C      1  0.5508760000000  0.4930960000000  0.5338350000000 1.0
C      1  0.4931210000000  0.4661920000000  0.4491020000000 1.0
C      1  0.4930980000000  0.5338080000000  0.5508940000000 1.0
C      1  0.5069050000000  0.5338410000000  0.4491280000000 1.0
C      1  0.4661750000000  0.4491190000000  0.4930840000000 1.0
C      1  0.4661760000000  0.5508840000000  0.5068990000000 1.0
C      1  0.5338280000000  0.5508860000000  0.4931340000000 1.0
C      1  0.4491230000000  0.4931220000000  0.4661610000000 1.0
C      1  0.4491070000000  0.5068820000000  0.5338140000000 1.0
C      1  0.5508940000000  0.5069000000000  0.4661910000000 1.0
C      1  0.5310550000000  0.4435340000000  0.5193710000000 1.0
C      1  0.4435340000000  0.5193740000000  0.5310540000000 1.0
C      1  0.5193970000000  0.5310800000000  0.4435560000000 1.0
C      1  0.4689410000000  0.4435490000000  0.4805920000000 1.0
C      1  0.4689350000000  0.5564530000000  0.5193930000000 1.0
C      1  0.5310690000000  0.5564640000000  0.4806440000000 1.0
C      1  0.5564670000000  0.5193900000000  0.4689590000000 1.0
C      1  0.5564500000000  0.4806060000000  0.5310700000000 1.0
C      1  0.4435480000000  0.4806300000000  0.4689180000000 1.0
C      1  0.4806050000000  0.5310440000000  0.5564640000000 1.0
C      1  0.4806310000000  0.4689570000000  0.4435260000000 1.0
C      1  0.5193670000000  0.4689190000000  0.5564530000000 1.0
C      1  0.5310590000000  0.5564510000000  0.5194080000000 1.0
C      1  0.4435330000000  0.4806100000000  0.5310410000000 1.0
C      1  0.5193950000000  0.4689560000000  0.4435360000000 1.0
C      1  0.4689450000000  0.5564660000000  0.4806290000000 1.0
C      1  0.4689310000000  0.4435360000000  0.5193560000000 1.0
C      1  0.5310650000000  0.4435470000000  0.4806070000000 1.0
C      1  0.5564660000000  0.4806260000000  0.4689460000000 1.0
C      1  0.5564520000000  0.5193700000000  0.5310820000000 1.0
C      1  0.4435500000000  0.5193940000000  0.4689300000000 1.0
C      1  0.4806030000000  0.4689200000000  0.5564440000000 1.0
C      1  0.4806330000000  0.5310810000000  0.4435470000000 1.0
C      1  0.5193690000000  0.5310430000000  0.5564740000000 1.0
C      1  0.4494510000000  0.5306130000000  0.5379180000000 1.0
C      1  0.5306380000000  0.5379360000000  0.4494790000000 1.0
C      1  0.5379110000000  0.4494480000000  0.5306170000000 1.0
C      1  0.5505520000000  0.5306340000000  0.4621020000000 1.0
C      1  0.5505300000000  0.4693620000000  0.5379230000000 1.0
C      1  0.4494670000000  0.4693910000000  0.4620570000000 1.0
C      1  0.4693650000000  0.5379050000000  0.5505460000000 1.0
C      1  0.4693880000000  0.4620970000000  0.4494390000000 1.0
C      1  0.5306090000000  0.4620620000000  0.5505360000000 1.0
C      1  0.4620850000000  0.4494700000000  0.4693500000000 1.0
C      1  0.4620730000000  0.5505320000000  0.5306310000000 1.0
C      1  0.5379300000000  0.5505500000000  0.4694020000000 1.0
C      1  0.4494480000000  0.4693660000000  0.5378980000000 1.0
C      1  0.5306350000000  0.4620950000000  0.4494540000000 1.0
C      1  0.5379150000000  0.5505300000000  0.5306500000000 1.0
C      1  0.5505490000000  0.4693870000000  0.4620820000000 1.0
C      1  0.5505330000000  0.5306090000000  0.5379430000000 1.0
C      1  0.4494700000000  0.5306380000000  0.4620770000000 1.0
C      1  0.4693620000000  0.4620640000000  0.5505210000000 1.0
C      1  0.4693910000000  0.5379380000000  0.4494640000000 1.0
C      1  0.5306120000000  0.5379030000000  0.5505610000000 1.0
C      1  0.4620890000000  0.5505520000000  0.4693830000000 1.0
C      1  0.4620700000000  0.4494500000000  0.5305980000000 1.0
C      1  0.5379270000000  0.4494680000000  0.4693690000000 1.0
C      1  0.4644900000000  0.4846820000000  0.4499660000000 1.0
C      1  0.4846720000000  0.4499920000000  0.4644580000000 1.0
C      1  0.4499820000000  0.4644850000000  0.4846410000000 1.0
C      1  0.5355090000000  0.4846470000000  0.5500240000000 1.0
C      1  0.5355350000000  0.5153500000000  0.4499940000000 1.0
C      1  0.4644660000000  0.5153200000000  0.5500170000000 1.0
C      1  0.5153240000000  0.4499670000000  0.5355090000000 1.0
C      1  0.5153460000000  0.5500310000000  0.4644980000000 1.0
C      1  0.4846580000000  0.5500090000000  0.5355340000000 1.0
C      1  0.5500150000000  0.4644710000000  0.5153360000000 1.0
C      1  0.5500260000000  0.5355250000000  0.4846890000000 1.0
C      1  0.4499770000000  0.5355190000000  0.5153340000000 1.0
C      1  0.4644910000000  0.5153530000000  0.4499760000000 1.0
C      1  0.4846760000000  0.5500330000000  0.4644910000000 1.0
C      1  0.4499850000000  0.5355290000000  0.4846640000000 1.0
C      1  0.5355100000000  0.5153180000000  0.5500340000000 1.0
C      1  0.5355340000000  0.4846800000000  0.4499830000000 1.0
C      1  0.4644650000000  0.4846500000000  0.5500060000000 1.0
C      1  0.5153280000000  0.5500080000000  0.5355420000000 1.0
C      1  0.5153420000000  0.4499910000000  0.4644660000000 1.0
C      1  0.4846540000000  0.4499690000000  0.5355020000000 1.0
C      1  0.5500180000000  0.5355150000000  0.5153590000000 1.0
C      1  0.5500230000000  0.4644810000000  0.4846660000000 1.0
C      1  0.4499740000000  0.4644750000000  0.5153110000000 1.0
C      1  0.5592640000000  0.5143250000000  0.4928190000000 1.0
C      1  0.5143100000000  0.4927790000000  0.5592630000000 1.0
C      1  0.4927980000000  0.5592570000000  0.5143430000000 1.0
C      1  0.4407370000000  0.5143250000000  0.5071900000000 1.0
C      1  0.4407400000000  0.4856790000000  0.4927800000000 1.0
C      1  0.5592590000000  0.4856700000000  0.5072110000000 1.0
C      1  0.4856900000000  0.4928190000000  0.4407330000000 1.0
C      1  0.4856600000000  0.5071820000000  0.5592600000000 1.0
C      1  0.5143400000000  0.5072190000000  0.4407450000000 1.0
C      1  0.5072060000000  0.5592660000000  0.4856960000000 1.0
C      1  0.5071950000000  0.4407340000000  0.5143080000000 1.0
C      1  0.4928010000000  0.4407440000000  0.4856540000000 1.0
C      1  0.5592630000000  0.4856750000000  0.4928100000000 1.0
C      1  0.5143100000000  0.5071810000000  0.5592670000000 1.0
C      1  0.4927940000000  0.4407340000000  0.5143040000000 1.0
C      1  0.4407360000000  0.4856750000000  0.5071810000000 1.0
C      1  0.4407410000000  0.5143300000000  0.4927890000000 1.0
C      1  0.5592600000000  0.5143210000000  0.5072200000000 1.0
C      1  0.4856900000000  0.5072210000000  0.4407370000000 1.0
C      1  0.4856600000000  0.4927810000000  0.5592550000000 1.0
C      1  0.5143400000000  0.4928180000000  0.4407400000000 1.0
C      1  0.5072020000000  0.4407430000000  0.4856570000000 1.0
C      1  0.5071990000000  0.5592560000000  0.5143460000000 1.0
C      1  0.4928050000000  0.5592660000000  0.4856920000000 1.0
C      1  0.5464250000000  0.4929770000000  0.4922690000000 1.0
C      1  0.4929640000000  0.4922450000000  0.5464190000000 1.0
C      1  0.4922630000000  0.5464260000000  0.4929890000000 1.0
C      1  0.4535750000000  0.4929750000000  0.5077260000000 1.0
C      1  0.4535790000000  0.5070280000000  0.4922500000000 1.0
C      1  0.5464210000000  0.5070200000000  0.5077540000000 1.0
C      1  0.5070360000000  0.4922750000000  0.4535760000000 1.0
C      1  0.5070130000000  0.5077250000000  0.5464270000000 1.0
C      1  0.4929880000000  0.5077560000000  0.4535780000000 1.0
C      1  0.5077400000000  0.5464200000000  0.5070410000000 1.0
C      1  0.5077400000000  0.4535790000000  0.4929630000000 1.0
C      1  0.4922560000000  0.4535750000000  0.5070070000000 1.0
C      1  0.5464250000000  0.5070250000000  0.4922740000000 1.0
C      1  0.4929640000000  0.5077250000000  0.5464240000000 1.0
C      1  0.4922600000000  0.4535800000000  0.4929590000000 1.0
C      1  0.4535750000000  0.5070230000000  0.5077310000000 1.0
C      1  0.4535790000000  0.4929800000000  0.4922460000000 1.0
C      1  0.5464210000000  0.4929720000000  0.5077500000000 1.0
C      1  0.5070360000000  0.5077550000000  0.4535810000000 1.0
C      1  0.5070120000000  0.4922440000000  0.5464220000000 1.0
C      1  0.4929870000000  0.4922750000000  0.4535730000000 1.0
C      1  0.5077370000000  0.4535740000000  0.5070110000000 1.0
C      1  0.5077440000000  0.5464250000000  0.4929930000000 1.0
C      1  0.4922600000000  0.5464210000000  0.5070370000000 1.0
C      1  0.4741070000000  0.4841980000000  0.4745490000000 1.0
C      1  0.4841940000000  0.4745700000000  0.4740890000000 1.0
C      1  0.4745630000000  0.4741080000000  0.4841740000000 1.0
C      1  0.5258920000000  0.4841790000000  0.5254410000000 1.0
C      1  0.5259060000000  0.5158190000000  0.4745720000000 1.0
C      1  0.4740960000000  0.5158040000000  0.5254380000000 1.0
C      1  0.5158040000000  0.4745510000000  0.5258940000000 1.0
C      1  0.5158190000000  0.5254470000000  0.4741140000000 1.0
C      1  0.4841830000000  0.5254320000000  0.5259030000000 1.0
C      1  0.5254350000000  0.4740950000000  0.5158090000000 1.0
C      1  0.5254440000000  0.5259030000000  0.4842040000000 1.0
C      1  0.4745570000000  0.5258940000000  0.5158130000000 1.0
C      1  0.4741080000000  0.5158210000000  0.4745590000000 1.0
C      1  0.4841960000000  0.5254490000000  0.4741060000000 1.0
C      1  0.4745650000000  0.5259050000000  0.4841910000000 1.0
C      1  0.5258930000000  0.5158020000000  0.5254510000000 1.0
C      1  0.5259040000000  0.4841960000000  0.4745620000000 1.0
C      1  0.4740940000000  0.4841810000000  0.5254280000000 1.0
C      1  0.5158060000000  0.5254300000000  0.5259110000000 1.0
C      1  0.5158170000000  0.4745680000000  0.4740970000000 1.0
C      1  0.4841810000000  0.4745530000000  0.5258860000000 1.0
C      1  0.5254360000000  0.5258920000000  0.5158260000000 1.0
C      1  0.5254430000000  0.4741060000000  0.4841870000000 1.0
C      1  0.4745560000000  0.4740970000000  0.5157960000000 1.0
END
