TITL C-1379267-1329-75 -8.22756933315282e-08 1000000 -3137.91241442309 0 0 440 (Cs) n - 1
REM
REM in /nfs/bkarasulu/CARBON/AIRSS/Generating-Clusters/GAP-ML-2020/Higher-Symm/Selected-Sizes/TryA-Only_Ih-Symm/Larger-Clusters/Try2-MINAMP_6A
REM
REM
REM
REM
REM
REM ./C.cell (31579ac4e95a012ec27f3239692ae8a5)
REM
REM compiler GCC version 9.2.1 20190827 (Red Hat 9.2.1-1)
REM options -cpp -mtune=generic -march=x86-64 -g -O0 -fpre-include=/usr/include/finclude/math-vector-fortran.h
REM seed 526832397 2121143131 -1244660037 685820502 886146094 -2071990039 -1381864376 2019415005 687285268 1302735829 -1812960200 -1180051201 -2065394366 -1863560265 -383887742 -759474002 -1280114560 1436168575 1097973836 2029021523 -196101002 -147105053 -273744128 -1918553294 1257410878 -741179211 -2078762810 -1224701841 1426481756 -2034308298 -907499297 -1009109140 1388817959
REM
CELL 1.54180  100.00000  100.00000  100.00000   90.00000   90.00000   90.00000
LATT -1
SFAC C  
C      1  0.4656630000000  0.4646360000000  0.4838680000000 1.0
C      1  0.4645300000000  0.4839060000000  0.4658850000000 1.0
C      1  0.4834870000000  0.4656020000000  0.4643430000000 1.0
C      1  0.5344960000000  0.5357900000000  0.4838840000000 1.0
C      1  0.4653350000000  0.5360370000000  0.5167370000000 1.0
C      1  0.5346760000000  0.4642340000000  0.5166830000000 1.0
C      1  0.5358460000000  0.5167450000000  0.4656330000000 1.0
C      1  0.4644820000000  0.5165090000000  0.5346310000000 1.0
C      1  0.5355540000000  0.4837610000000  0.5346430000000 1.0
C      1  0.5163690000000  0.5347330000000  0.4646990000000 1.0
C      1  0.4836510000000  0.5346530000000  0.5356890000000 1.0
C      1  0.5163870000000  0.4656170000000  0.5357060000000 1.0
C      1  0.4653560000000  0.4642340000000  0.5166830000000 1.0
C      1  0.4644780000000  0.4837620000000  0.5346430000000 1.0
C      1  0.4836440000000  0.4656170000000  0.5357060000000 1.0
C      1  0.5346970000000  0.5360370000000  0.5167370000000 1.0
C      1  0.4655360000000  0.5357900000000  0.4838840000000 1.0
C      1  0.5343680000000  0.4646360000000  0.4838680000000 1.0
C      1  0.5355500000000  0.5165090000000  0.5346310000000 1.0
C      1  0.4641860000000  0.5167450000000  0.4656330000000 1.0
C      1  0.5355020000000  0.4839050000000  0.4658850000000 1.0
C      1  0.5163810000000  0.5346530000000  0.5356890000000 1.0
C      1  0.4836630000000  0.5347330000000  0.4646990000000 1.0
C      1  0.5165440000000  0.4656020000000  0.4643430000000 1.0
C      1  0.4927690000000  0.5711000000000  0.4603580000000 1.0
C      1  0.5703930000000  0.4601990000000  0.4932650000000 1.0
C      1  0.4602980000000  0.4928790000000  0.5709650000000 1.0
C      1  0.5073760000000  0.4299340000000  0.4600010000000 1.0
C      1  0.4927030000000  0.4296140000000  0.5397380000000 1.0
C      1  0.5073390000000  0.5706530000000  0.5397800000000 1.0
C      1  0.4296060000000  0.5398450000000  0.4931380000000 1.0
C      1  0.5705200000000  0.5400220000000  0.5078360000000 1.0
C      1  0.4295760000000  0.4601590000000  0.5079140000000 1.0
C      1  0.5397340000000  0.5073870000000  0.5709610000000 1.0
C      1  0.4600630000000  0.5081070000000  0.4297830000000 1.0
C      1  0.5397770000000  0.4934530000000  0.4298430000000 1.0
C      1  0.4926930000000  0.5706530000000  0.5397790000000 1.0
C      1  0.5704560000000  0.4601590000000  0.5079130000000 1.0
C      1  0.4602550000000  0.4934530000000  0.4298430000000 1.0
C      1  0.5073280000000  0.4296140000000  0.5397380000000 1.0
C      1  0.4926550000000  0.4299340000000  0.4600010000000 1.0
C      1  0.5072640000000  0.5711000000000  0.4603580000000 1.0
C      1  0.4295120000000  0.5400230000000  0.5078360000000 1.0
C      1  0.5704260000000  0.5398450000000  0.4931380000000 1.0
C      1  0.4296380000000  0.4601990000000  0.4932650000000 1.0
C      1  0.5399690000000  0.5081080000000  0.4297830000000 1.0
C      1  0.4602980000000  0.5073870000000  0.5709610000000 1.0
C      1  0.5397340000000  0.4928780000000  0.5709640000000 1.0
C      1  0.4853450000000  0.4249480000000  0.5282980000000 1.0
C      1  0.4249700000000  0.5283530000000  0.4857960000000 1.0
C      1  0.5283520000000  0.4860160000000  0.4251720000000 1.0
C      1  0.5147410000000  0.5753470000000  0.5283740000000 1.0
C      1  0.4852930000000  0.5754050000000  0.4718090000000 1.0
C      1  0.5147830000000  0.4254050000000  0.4715210000000 1.0
C      1  0.5748300000000  0.4716440000000  0.4857770000000 1.0
C      1  0.4251230000000  0.4717180000000  0.5152780000000 1.0
C      1  0.5749660000000  0.5284920000000  0.5152570000000 1.0
C      1  0.4716140000000  0.5154710000000  0.4253310000000 1.0
C      1  0.5282720000000  0.5148690000000  0.5752580000000 1.0
C      1  0.4717620000000  0.4853970000000  0.5752620000000 1.0
C      1  0.4852480000000  0.4254050000000  0.4715210000000 1.0
C      1  0.4250660000000  0.5284920000000  0.5152570000000 1.0
C      1  0.5282700000000  0.4853970000000  0.5752620000000 1.0
C      1  0.5147390000000  0.5754050000000  0.4718090000000 1.0
C      1  0.4852910000000  0.5753470000000  0.5283730000000 1.0
C      1  0.5146860000000  0.4249480000000  0.5282980000000 1.0
C      1  0.5749080000000  0.4717180000000  0.5152780000000 1.0
C      1  0.4252020000000  0.4716440000000  0.4857770000000 1.0
C      1  0.5750620000000  0.5283530000000  0.4857960000000 1.0
C      1  0.4717600000000  0.5148690000000  0.5752580000000 1.0
C      1  0.5284180000000  0.5154710000000  0.4253310000000 1.0
C      1  0.4716800000000  0.4860160000000  0.4251720000000 1.0
C      1  0.4516270000000  0.4363820000000  0.4575080000000 1.0
C      1  0.4407980000000  0.4526710000000  0.4493110000000 1.0
C      1  0.4513650000000  0.4491370000000  0.4407910000000 1.0
C      1  0.5512670000000  0.5600390000000  0.4519430000000 1.0
C      1  0.4483490000000  0.5596560000000  0.5490420000000 1.0
C      1  0.5516540000000  0.4405680000000  0.5491000000000 1.0
C      1  0.5596230000000  0.5492690000000  0.4486230000000 1.0
C      1  0.4370480000000  0.5410400000000  0.5470330000000 1.0
C      1  0.5629270000000  0.4592110000000  0.5470510000000 1.0
C      1  0.5409600000000  0.5470680000000  0.4373890000000 1.0
C      1  0.4516590000000  0.5513490000000  0.5598390000000 1.0
C      1  0.5483440000000  0.4488940000000  0.5598870000000 1.0
C      1  0.4483770000000  0.4405680000000  0.5491010000000 1.0
C      1  0.4371040000000  0.4592120000000  0.5470510000000 1.0
C      1  0.4516870000000  0.4488940000000  0.5598870000000 1.0
C      1  0.5516830000000  0.5596550000000  0.5490420000000 1.0
C      1  0.4487650000000  0.5600390000000  0.4519420000000 1.0
C      1  0.5484060000000  0.4363800000000  0.4575050000000 1.0
C      1  0.5629850000000  0.5410400000000  0.5470340000000 1.0
C      1  0.4404090000000  0.5492690000000  0.4486230000000 1.0
C      1  0.5592330000000  0.4526720000000  0.4493110000000 1.0
C      1  0.5483730000000  0.5513480000000  0.5598390000000 1.0
C      1  0.4590720000000  0.5470680000000  0.4373890000000 1.0
C      1  0.5486660000000  0.4491380000000  0.4407910000000 1.0
C      1  0.4859230000000  0.4374260000000  0.4501500000000 1.0
C      1  0.4370920000000  0.4505590000000  0.4862920000000 1.0
C      1  0.4509260000000  0.4864790000000  0.4376880000000 1.0
C      1  0.5140220000000  0.5636920000000  0.4506110000000 1.0
C      1  0.4859520000000  0.5627840000000  0.5492780000000 1.0
C      1  0.5140740000000  0.4374740000000  0.5492440000000 1.0
C      1  0.5626660000000  0.5492780000000  0.4861380000000 1.0
C      1  0.4369610000000  0.5501160000000  0.5142580000000 1.0
C      1  0.5630020000000  0.4501160000000  0.5143550000000 1.0
C      1  0.5500660000000  0.5144470000000  0.4373140000000 1.0
C      1  0.4505280000000  0.5141300000000  0.5635480000000 1.0
C      1  0.5495060000000  0.4861330000000  0.5635580000000 1.0
C      1  0.4859570000000  0.4374740000000  0.5492440000000 1.0
C      1  0.4370290000000  0.4501160000000  0.5143550000000 1.0
C      1  0.4505260000000  0.4861340000000  0.5635580000000 1.0
C      1  0.5140800000000  0.5627840000000  0.5492780000000 1.0
C      1  0.4860100000000  0.5636920000000  0.4506110000000 1.0
C      1  0.5141090000000  0.4374260000000  0.4501500000000 1.0
C      1  0.5630710000000  0.5501160000000  0.5142590000000 1.0
C      1  0.4373660000000  0.5492780000000  0.4861380000000 1.0
C      1  0.5629400000000  0.4505590000000  0.4862920000000 1.0
C      1  0.5495040000000  0.5141290000000  0.5635480000000 1.0
C      1  0.4499660000000  0.5144470000000  0.4373130000000 1.0
C      1  0.5491060000000  0.4864800000000  0.4376880000000 1.0
C      1  0.5257240000000  0.5558910000000  0.4523250000000 1.0
C      1  0.5552040000000  0.4503740000000  0.5261900000000 1.0
C      1  0.4521370000000  0.5258570000000  0.5557550000000 1.0
C      1  0.4739070000000  0.4450420000000  0.4506660000000 1.0
C      1  0.5261770000000  0.4451020000000  0.5484480000000 1.0
C      1  0.4738460000000  0.5551600000000  0.5484460000000 1.0
C      1  0.4447460000000  0.5499540000000  0.5261230000000 1.0
C      1  0.5550230000000  0.5483620000000  0.4740540000000 1.0
C      1  0.4448140000000  0.4520150000000  0.4744220000000 1.0
C      1  0.5478900000000  0.4744050000000  0.5557680000000 1.0
C      1  0.4520930000000  0.4744710000000  0.4452520000000 1.0
C      1  0.5499140000000  0.5262690000000  0.4451510000000 1.0
C      1  0.5261860000000  0.5551600000000  0.5484460000000 1.0
C      1  0.5552170000000  0.4520150000000  0.4744210000000 1.0
C      1  0.4501180000000  0.5262690000000  0.4451510000000 1.0
C      1  0.4738540000000  0.4451020000000  0.5484480000000 1.0
C      1  0.5261240000000  0.4450420000000  0.4506680000000 1.0
C      1  0.4743080000000  0.5558910000000  0.4523250000000 1.0
C      1  0.4450100000000  0.5483620000000  0.4740540000000 1.0
C      1  0.5552860000000  0.5499540000000  0.5261230000000 1.0
C      1  0.4448270000000  0.4503750000000  0.5261900000000 1.0
C      1  0.5479380000000  0.4744720000000  0.4452520000000 1.0
C      1  0.4521410000000  0.4744050000000  0.5557680000000 1.0
C      1  0.5478960000000  0.5258570000000  0.5557550000000 1.0
C      1  0.4392230000000  0.4931600000000  0.5594640000000 1.0
C      1  0.4930480000000  0.5595950000000  0.4393210000000 1.0
C      1  0.5588640000000  0.4391330000000  0.4930410000000 1.0
C      1  0.5608100000000  0.5071010000000  0.5594640000000 1.0
C      1  0.4392050000000  0.5069550000000  0.4415970000000 1.0
C      1  0.5606760000000  0.4929550000000  0.4416240000000 1.0
C      1  0.5070080000000  0.4417220000000  0.4391370000000 1.0
C      1  0.4929960000000  0.4414930000000  0.5604230000000 1.0
C      1  0.5070370000000  0.5587630000000  0.5604530000000 1.0
C      1  0.4412770000000  0.5607500000000  0.4928020000000 1.0
C      1  0.5588220000000  0.5609110000000  0.5068090000000 1.0
C      1  0.4411590000000  0.4391820000000  0.5070070000000 1.0
C      1  0.4393560000000  0.4929550000000  0.4416240000000 1.0
C      1  0.4929950000000  0.5587630000000  0.5604530000000 1.0
C      1  0.5588720000000  0.4391820000000  0.5070070000000 1.0
C      1  0.5608270000000  0.5069550000000  0.4415970000000 1.0
C      1  0.4392220000000  0.5071020000000  0.5594640000000 1.0
C      1  0.5608090000000  0.4931600000000  0.5594640000000 1.0
C      1  0.5070350000000  0.4414930000000  0.5604220000000 1.0
C      1  0.4930240000000  0.4417220000000  0.4391370000000 1.0
C      1  0.5069850000000  0.5595950000000  0.4393210000000 1.0
C      1  0.4412100000000  0.5609120000000  0.5068080000000 1.0
C      1  0.5587550000000  0.5607500000000  0.4928020000000 1.0
C      1  0.4411670000000  0.4391330000000  0.4930420000000 1.0
C      1  0.5140260000000  0.4868780000000  0.5464160000000 1.0
C      1  0.4866910000000  0.5466690000000  0.5142830000000 1.0
C      1  0.5464060000000  0.5143250000000  0.4870150000000 1.0
C      1  0.4860060000000  0.5133940000000  0.5464100000000 1.0
C      1  0.5140930000000  0.5135450000000  0.4540870000000 1.0
C      1  0.4859510000000  0.4870280000000  0.4538620000000 1.0
C      1  0.5133250000000  0.4536760000000  0.5142690000000 1.0
C      1  0.4868210000000  0.4539870000000  0.4860970000000 1.0
C      1  0.5132780000000  0.5465420000000  0.4862310000000 1.0
C      1  0.4538740000000  0.4861960000000  0.4871140000000 1.0
C      1  0.5461720000000  0.4860360000000  0.5135040000000 1.0
C      1  0.4538550000000  0.5142260000000  0.5134820000000 1.0
C      1  0.5140810000000  0.4870280000000  0.4538620000000 1.0
C      1  0.4867540000000  0.5465430000000  0.4862310000000 1.0
C      1  0.5461770000000  0.5142260000000  0.5134820000000 1.0
C      1  0.4859390000000  0.5135450000000  0.4540870000000 1.0
C      1  0.5140260000000  0.5133940000000  0.5464100000000 1.0
C      1  0.4860050000000  0.4868780000000  0.5464160000000 1.0
C      1  0.5132100000000  0.4539870000000  0.4860970000000 1.0
C      1  0.4867070000000  0.4536760000000  0.5142690000000 1.0
C      1  0.5133410000000  0.5466690000000  0.5142830000000 1.0
C      1  0.4538590000000  0.4860360000000  0.5135040000000 1.0
C      1  0.5461570000000  0.4861960000000  0.4871140000000 1.0
C      1  0.4536250000000  0.5143250000000  0.4870150000000 1.0
C      1  0.4614830000000  0.5592980000000  0.5534940000000 1.0
C      1  0.5591990000000  0.5536300000000  0.4617790000000 1.0
C      1  0.5540420000000  0.4618670000000  0.5577430000000 1.0
C      1  0.5385140000000  0.4409500000000  0.5535360000000 1.0
C      1  0.4607180000000  0.4406480000000  0.4482040000000 1.0
C      1  0.5382960000000  0.5578040000000  0.4462230000000 1.0
C      1  0.4421850000000  0.4462000000000  0.4618490000000 1.0
C      1  0.5594850000000  0.4484760000000  0.5394170000000 1.0
C      1  0.4404890000000  0.5517660000000  0.5393740000000 1.0
C      1  0.4459550000000  0.5383830000000  0.5577180000000 1.0
C      1  0.5517440000000  0.5395090000000  0.4408580000000 1.0
C      1  0.4469220000000  0.4621830000000  0.4410130000000 1.0
C      1  0.4617360000000  0.5578040000000  0.4462230000000 1.0
C      1  0.5595430000000  0.5517650000000  0.5393750000000 1.0
C      1  0.5531090000000  0.4621830000000  0.4410130000000 1.0
C      1  0.5393140000000  0.4406470000000  0.4482040000000 1.0
C      1  0.4615170000000  0.4409510000000  0.5535370000000 1.0
C      1  0.5385490000000  0.5592980000000  0.5534940000000 1.0
C      1  0.4405460000000  0.4484760000000  0.5394170000000 1.0
C      1  0.5578470000000  0.4461990000000  0.4618490000000 1.0
C      1  0.4408340000000  0.5536300000000  0.4617790000000 1.0
C      1  0.4482890000000  0.5395090000000  0.4408580000000 1.0
C      1  0.5540770000000  0.5383830000000  0.5577190000000 1.0
C      1  0.4459890000000  0.4618670000000  0.5577430000000 1.0
C      1  0.4813940000000  0.5370990000000  0.5623840000000 1.0
C      1  0.5369560000000  0.5624920000000  0.4813920000000 1.0
C      1  0.5623910000000  0.4818490000000  0.5376120000000 1.0
C      1  0.5186330000000  0.4631630000000  0.5623930000000 1.0
C      1  0.4814810000000  0.4635810000000  0.4375600000000 1.0
C      1  0.5182720000000  0.5377450000000  0.4378910000000 1.0
C      1  0.4629790000000  0.4378990000000  0.4819090000000 1.0
C      1  0.5369610000000  0.4374570000000  0.5185130000000 1.0
C      1  0.4630480000000  0.5628310000000  0.5183950000000 1.0
C      1  0.4376410000000  0.5184140000000  0.5376080000000 1.0
C      1  0.5626630000000  0.5184300000000  0.4634770000000 1.0
C      1  0.4378200000000  0.4814410000000  0.4634010000000 1.0
C      1  0.4817600000000  0.5377450000000  0.4378910000000 1.0
C      1  0.5369850000000  0.5628310000000  0.5183960000000 1.0
C      1  0.5622120000000  0.4814420000000  0.4634010000000 1.0
C      1  0.5185510000000  0.4635810000000  0.4375610000000 1.0
C      1  0.4813990000000  0.4631630000000  0.5623930000000 1.0
C      1  0.5186380000000  0.5370990000000  0.5623840000000 1.0
C      1  0.4630700000000  0.4374570000000  0.5185130000000 1.0
C      1  0.5370520000000  0.4378990000000  0.4819090000000 1.0
C      1  0.4630760000000  0.5624920000000  0.4813920000000 1.0
C      1  0.4373690000000  0.5184300000000  0.4634760000000 1.0
C      1  0.5623910000000  0.5184130000000  0.5376080000000 1.0
C      1  0.4376410000000  0.4818490000000  0.5376120000000 1.0
C      1  0.5071350000000  0.5421430000000  0.5260020000000 1.0
C      1  0.5420010000000  0.5261890000000  0.5074330000000 1.0
C      1  0.5258540000000  0.5072490000000  0.5421230000000 1.0
C      1  0.4928960000000  0.4581420000000  0.5260160000000 1.0
C      1  0.5071690000000  0.4583150000000  0.4741490000000 1.0
C      1  0.4929020000000  0.5422460000000  0.4743970000000 1.0
C      1  0.4580470000000  0.4740860000000  0.5074180000000 1.0
C      1  0.5418270000000  0.4743050000000  0.4931640000000 1.0
C      1  0.4580620000000  0.5261310000000  0.4931600000000 1.0
C      1  0.4741770000000  0.4930210000000  0.5421280000000 1.0
C      1  0.5258900000000  0.4931540000000  0.4583430000000 1.0
C      1  0.4740260000000  0.5074350000000  0.4583100000000 1.0
C      1  0.5071300000000  0.5422460000000  0.4743970000000 1.0
C      1  0.5419700000000  0.5261300000000  0.4931600000000 1.0
C      1  0.5260060000000  0.5074350000000  0.4583110000000 1.0
C      1  0.4928620000000  0.4583150000000  0.4741490000000 1.0
C      1  0.5071350000000  0.4581420000000  0.5260160000000 1.0
C      1  0.4928970000000  0.5421430000000  0.5260020000000 1.0
C      1  0.4582040000000  0.4743050000000  0.4931640000000 1.0
C      1  0.5419850000000  0.4740860000000  0.5074180000000 1.0
C      1  0.4580310000000  0.5261890000000  0.5074330000000 1.0
C      1  0.4741420000000  0.4931540000000  0.4583430000000 1.0
C      1  0.5258550000000  0.4930210000000  0.5421280000000 1.0
C      1  0.4741780000000  0.5072490000000  0.5421230000000 1.0
C      1  0.4826140000000  0.5076490000000  0.4202040000000 1.0
C      1  0.5069630000000  0.4201820000000  0.4824520000000 1.0
C      1  0.4200760000000  0.4826760000000  0.5073800000000 1.0
C      1  0.5173790000000  0.4937650000000  0.4200570000000 1.0
C      1  0.4827630000000  0.4931690000000  0.5802500000000 1.0
C      1  0.5172690000000  0.5071010000000  0.5802480000000 1.0
C      1  0.4930550000000  0.5804210000000  0.4827980000000 1.0
C      1  0.5069630000000  0.5805190000000  0.5174120000000 1.0
C      1  0.4930800000000  0.4197860000000  0.5172930000000 1.0
C      1  0.5800760000000  0.5174600000000  0.5074730000000 1.0
C      1  0.4198450000000  0.5173900000000  0.4935890000000 1.0
C      1  0.5799860000000  0.4826390000000  0.4934750000000 1.0
C      1  0.4827630000000  0.5071010000000  0.5802490000000 1.0
C      1  0.5069510000000  0.4197860000000  0.5172930000000 1.0
C      1  0.4200460000000  0.4826400000000  0.4934750000000 1.0
C      1  0.5172680000000  0.4931690000000  0.5802500000000 1.0
C      1  0.4826530000000  0.4937650000000  0.4200570000000 1.0
C      1  0.5174180000000  0.5076490000000  0.4202040000000 1.0
C      1  0.4930690000000  0.5805190000000  0.5174120000000 1.0
C      1  0.5069770000000  0.5804200000000  0.4827980000000 1.0
C      1  0.4930680000000  0.4201820000000  0.4824520000000 1.0
C      1  0.5801870000000  0.5173900000000  0.4935890000000 1.0
C      1  0.4199550000000  0.5174610000000  0.5074730000000 1.0
C      1  0.5799550000000  0.4826750000000  0.5073790000000 1.0
C      1  0.5230710000000  0.5409040000000  0.5485890000000 1.0
C      1  0.5410900000000  0.5493470000000  0.5229060000000 1.0
C      1  0.5483570000000  0.5224650000000  0.5414000000000 1.0
C      1  0.4769630000000  0.4593610000000  0.5485980000000 1.0
C      1  0.5230820000000  0.4592840000000  0.4511060000000 1.0
C      1  0.4777410000000  0.5415380000000  0.4519100000000 1.0
C      1  0.4590060000000  0.4509840000000  0.5228930000000 1.0
C      1  0.5409650000000  0.4517460000000  0.4778020000000 1.0
C      1  0.4592780000000  0.5486190000000  0.4771210000000 1.0
C      1  0.4516770000000  0.4778060000000  0.5414140000000 1.0
C      1  0.5483350000000  0.4773330000000  0.4595610000000 1.0
C      1  0.4508290000000  0.5229790000000  0.4593220000000 1.0
C      1  0.5222910000000  0.5415380000000  0.4519100000000 1.0
C      1  0.5407540000000  0.5486180000000  0.4771220000000 1.0
C      1  0.5492030000000  0.5229790000000  0.4593220000000 1.0
C      1  0.4769500000000  0.4592840000000  0.4511050000000 1.0
C      1  0.5230690000000  0.4593610000000  0.5485980000000 1.0
C      1  0.4769610000000  0.5409040000000  0.5485890000000 1.0
C      1  0.4590660000000  0.4517460000000  0.4778020000000 1.0
C      1  0.5410250000000  0.4509840000000  0.5228930000000 1.0
C      1  0.4589420000000  0.5493470000000  0.5229060000000 1.0
C      1  0.4516970000000  0.4773320000000  0.4595610000000 1.0
C      1  0.5483550000000  0.4778050000000  0.5414140000000 1.0
C      1  0.4516750000000  0.5224650000000  0.5414000000000 1.0
C      1  0.5242780000000  0.4586970000000  0.5072770000000 1.0
C      1  0.4591410000000  0.5071590000000  0.5242150000000 1.0
C      1  0.5070360000000  0.5243100000000  0.4593350000000 1.0
C      1  0.4757010000000  0.5416750000000  0.5073190000000 1.0
C      1  0.5242200000000  0.5415230000000  0.4932420000000 1.0
C      1  0.4760140000000  0.4591110000000  0.4932080000000 1.0
C      1  0.5408980000000  0.4931150000000  0.5242280000000 1.0
C      1  0.4588790000000  0.4932540000000  0.4762030000000 1.0
C      1  0.5414090000000  0.5073390000000  0.4760360000000 1.0
C      1  0.4929460000000  0.4759440000000  0.4586830000000 1.0
C      1  0.5070450000000  0.4759440000000  0.5413620000000 1.0
C      1  0.4929880000000  0.5243260000000  0.5413480000000 1.0
C      1  0.5240170000000  0.4591110000000  0.4932080000000 1.0
C      1  0.4586230000000  0.5073390000000  0.4760360000000 1.0
C      1  0.5070440000000  0.5243260000000  0.5413480000000 1.0
C      1  0.4758120000000  0.5415240000000  0.4932420000000 1.0
C      1  0.5243320000000  0.5416750000000  0.5073190000000 1.0
C      1  0.4757530000000  0.4586970000000  0.5072770000000 1.0
C      1  0.5411530000000  0.4932540000000  0.4762030000000 1.0
C      1  0.4591340000000  0.4931150000000  0.5242280000000 1.0
C      1  0.5408910000000  0.5071580000000  0.5242150000000 1.0
C      1  0.4929870000000  0.4759440000000  0.5413620000000 1.0
C      1  0.5070860000000  0.4759440000000  0.4586840000000 1.0
C      1  0.4929960000000  0.5243100000000  0.4593350000000 1.0
C      1  0.5194300000000  0.5252690000000  0.5699230000000 1.0
C      1  0.5251020000000  0.5702250000000  0.5193360000000 1.0
C      1  0.5698380000000  0.5193520000000  0.5256660000000 1.0
C      1  0.4806060000000  0.4749970000000  0.5699300000000 1.0
C      1  0.5193740000000  0.4755460000000  0.4302440000000 1.0
C      1  0.4807870000000  0.5258190000000  0.4304580000000 1.0
C      1  0.4749940000000  0.4301100000000  0.5193070000000 1.0
C      1  0.5251980000000  0.4303860000000  0.4807340000000 1.0
C      1  0.4749050000000  0.5700530000000  0.4806440000000 1.0
C      1  0.4301970000000  0.4808890000000  0.5256650000000 1.0
C      1  0.5696590000000  0.4805320000000  0.4752900000000 1.0
C      1  0.4300340000000  0.5193190000000  0.4753970000000 1.0
C      1  0.5192450000000  0.5258190000000  0.4304580000000 1.0
C      1  0.5251270000000  0.5700530000000  0.4806450000000 1.0
C      1  0.5699980000000  0.5193190000000  0.4753970000000 1.0
C      1  0.4806580000000  0.4755460000000  0.4302440000000 1.0
C      1  0.5194250000000  0.4749960000000  0.5699290000000 1.0
C      1  0.4806020000000  0.5252690000000  0.5699230000000 1.0
C      1  0.4748330000000  0.4303860000000  0.4807340000000 1.0
C      1  0.5250370000000  0.4301100000000  0.5193070000000 1.0
C      1  0.4749300000000  0.5702250000000  0.5193360000000 1.0
C      1  0.4303730000000  0.4805320000000  0.4752900000000 1.0
C      1  0.5698350000000  0.4808880000000  0.5256640000000 1.0
C      1  0.4301940000000  0.5193530000000  0.5256660000000 1.0
C      1  0.5577080000000  0.4924400000000  0.5079290000000 1.0
C      1  0.4923460000000  0.5077100000000  0.5579240000000 1.0
C      1  0.5075900000000  0.5580830000000  0.4924970000000 1.0
C      1  0.4423140000000  0.5078130000000  0.5079350000000 1.0
C      1  0.5578060000000  0.5078010000000  0.4927920000000 1.0
C      1  0.4423220000000  0.4924750000000  0.4927800000000 1.0
C      1  0.5076850000000  0.4925630000000  0.5579270000000 1.0
C      1  0.4923510000000  0.4928650000000  0.4424300000000 1.0
C      1  0.5077010000000  0.5080170000000  0.4425350000000 1.0
C      1  0.4924390000000  0.4424080000000  0.4924210000000 1.0
C      1  0.5075760000000  0.4422650000000  0.5077780000000 1.0
C      1  0.4924440000000  0.5581210000000  0.5078430000000 1.0
C      1  0.5577100000000  0.4924740000000  0.4927800000000 1.0
C      1  0.4923300000000  0.5080170000000  0.4425350000000 1.0
C      1  0.5075880000000  0.5581210000000  0.5078430000000 1.0
C      1  0.4422250000000  0.5078010000000  0.4927920000000 1.0
C      1  0.5577180000000  0.5078120000000  0.5079360000000 1.0
C      1  0.4423240000000  0.4924400000000  0.5079290000000 1.0
C      1  0.5076810000000  0.4928650000000  0.4424300000000 1.0
C      1  0.4923460000000  0.4925630000000  0.5579270000000 1.0
C      1  0.5076850000000  0.5077100000000  0.5579240000000 1.0
C      1  0.4924550000000  0.4422650000000  0.5077780000000 1.0
C      1  0.5075920000000  0.4424080000000  0.4924210000000 1.0
C      1  0.4924420000000  0.5580830000000  0.4924970000000 1.0
C      1  0.5451750000000  0.5659980000000  0.5071750000000 1.0
C      1  0.5660340000000  0.5074150000000  0.5457510000000 1.0
C      1  0.5073040000000  0.5451250000000  0.5656710000000 1.0
C      1  0.4548050000000  0.4341000000000  0.5074620000000 1.0
C      1  0.5450970000000  0.4340780000000  0.4929050000000 1.0
C      1  0.4549740000000  0.5659270000000  0.4926100000000 1.0
C      1  0.4339980000000  0.4928460000000  0.5457510000000 1.0
C      1  0.5657590000000  0.4926650000000  0.4553530000000 1.0
C      1  0.4341870000000  0.5072340000000  0.4552760000000 1.0
C      1  0.4927290000000  0.4551260000000  0.5656670000000 1.0
C      1  0.5073190000000  0.4554570000000  0.4342560000000 1.0
C      1  0.4927340000000  0.5458660000000  0.4341670000000 1.0
C      1  0.5450580000000  0.5659270000000  0.4926100000000 1.0
C      1  0.5658450000000  0.5072340000000  0.4552760000000 1.0
C      1  0.5072980000000  0.5458660000000  0.4341670000000 1.0
C      1  0.4549340000000  0.4340780000000  0.4929060000000 1.0
C      1  0.5452260000000  0.4341000000000  0.5074610000000 1.0
C      1  0.4548580000000  0.5659980000000  0.5071750000000 1.0
C      1  0.4342730000000  0.4926650000000  0.4553530000000 1.0
C      1  0.5660340000000  0.4928450000000  0.5457510000000 1.0
C      1  0.4339980000000  0.5074160000000  0.5457510000000 1.0
C      1  0.4927130000000  0.4554570000000  0.4342560000000 1.0
C      1  0.5073020000000  0.4551260000000  0.5656670000000 1.0
C      1  0.4927280000000  0.5451250000000  0.5656710000000 1.0
C      1  0.4921930000000  0.5156860000000  0.4287560000000 1.0
C      1  0.5150710000000  0.4285460000000  0.4921400000000 1.0
C      1  0.4285320000000  0.4922770000000  0.5155140000000 1.0
C      1  0.5078460000000  0.4855250000000  0.4285210000000 1.0
C      1  0.4921740000000  0.4850060000000  0.5716670000000 1.0
C      1  0.5078590000000  0.5152650000000  0.5716650000000 1.0
C      1  0.4849080000000  0.5718470000000  0.4922280000000 1.0
C      1  0.5150720000000  0.5719680000000  0.5078820000000 1.0
C      1  0.4849900000000  0.4283900000000  0.5077860000000 1.0
C      1  0.5715300000000  0.5079250000000  0.5155520000000 1.0
C      1  0.4283480000000  0.5078320000000  0.4854000000000 1.0
C      1  0.5715210000000  0.4921500000000  0.4852880000000 1.0
C      1  0.4921730000000  0.5152650000000  0.5716650000000 1.0
C      1  0.5150410000000  0.4283900000000  0.5077860000000 1.0
C      1  0.4285100000000  0.4921500000000  0.4852880000000 1.0
C      1  0.5078580000000  0.4850060000000  0.5716670000000 1.0
C      1  0.4921860000000  0.4855250000000  0.4285210000000 1.0
C      1  0.5078390000000  0.5156860000000  0.4287560000000 1.0
C      1  0.4849600000000  0.5719680000000  0.5078820000000 1.0
C      1  0.5151240000000  0.5718470000000  0.4922280000000 1.0
C      1  0.4849600000000  0.4285470000000  0.4921410000000 1.0
C      1  0.5716840000000  0.5078320000000  0.4854000000000 1.0
C      1  0.4285020000000  0.5079250000000  0.5155520000000 1.0
C      1  0.5715000000000  0.4922760000000  0.5155140000000 1.0
C      1  0.5286080000000  0.5287020000000  0.4717560000000 1.0
C      1  0.5285300000000  0.4714880000000  0.5286500000000 1.0
C      1  0.4715000000000  0.5287840000000  0.5286480000000 1.0
C      1  0.5284410000000  0.4717050000000  0.4716680000000 1.0
C      1  0.4714240000000  0.5287020000000  0.4717560000000 1.0
C      1  0.4715010000000  0.4714890000000  0.5286500000000 1.0
C      1  0.4715900000000  0.4717050000000  0.4716680000000 1.0
C      1  0.5285320000000  0.5287840000000  0.5286480000000 1.0
END
