TITL C-1379267-1329-163 1.56593274525554e-08 1000000 -3700.42324415334 0 0 520 (Cs) n - 1
REM
REM in /nfs/bkarasulu/CARBON/AIRSS/Generating-Clusters/GAP-ML-2020/Higher-Symm/Selected-Sizes/TryA-Only_Ih-Symm/Larger-Clusters/Try2-MINAMP_6A
REM
REM
REM
REM
REM
REM ./C.cell (31579ac4e95a012ec27f3239692ae8a5)
REM
REM compiler GCC version 9.2.1 20190827 (Red Hat 9.2.1-1)
REM options -cpp -mtune=generic -march=x86-64 -g -O0 -fpre-include=/usr/include/finclude/math-vector-fortran.h
REM seed 1911116793 -105349926 -2121404090 473254005 -972431473 1501447575 -1081684582 1557551033 -1076606592 1700625889 -398352627 1455312373 -610990637 -966059955 702348910 2052200959 -154774583 -1166437948 1558113127 -1909094365 -706885722 -1166121731 -77694522 42673490 1988350153 -832191368 691155052 -943490348 430629076 -926543185 89184339 1940476845 -1718209110
REM
CELL 1.54180  100.00000  100.00000  100.00000   90.00000   90.00000   90.00000
LATT -1
SFAC C  
C      1  0.5421940000000  0.4996310000000  0.5725290000000 1.0
C      1  0.5721440000000  0.5422980000000  0.4983930000000 1.0
C      1  0.4984940000000  0.5722450000000  0.5420860000000 1.0
C      1  0.4578970000000  0.5008290000000  0.5719120000000 1.0
C      1  0.4576150000000  0.4995450000000  0.4272630000000 1.0
C      1  0.5418450000000  0.5007690000000  0.4278560000000 1.0
C      1  0.4289010000000  0.4571850000000  0.4970810000000 1.0
C      1  0.4279390000000  0.5422820000000  0.5016780000000 1.0
C      1  0.5709240000000  0.4572960000000  0.5027170000000 1.0
C      1  0.5017920000000  0.4285410000000  0.5424480000000 1.0
C      1  0.5015320000000  0.5718190000000  0.4575250000000 1.0
C      1  0.4980790000000  0.4284730000000  0.4574100000000 1.0
C      1  0.4984000000000  0.5422980000000  0.5721350000000 1.0
C      1  0.5420950000000  0.5722450000000  0.4984860000000 1.0
C      1  0.5725360000000  0.4996310000000  0.5421870000000 1.0
C      1  0.5027240000000  0.4572960000000  0.5709160000000 1.0
C      1  0.4970910000000  0.4571850000000  0.4288930000000 1.0
C      1  0.5016880000000  0.5422810000000  0.4279310000000 1.0
C      1  0.4574180000000  0.4284730000000  0.4980700000000 1.0
C      1  0.5424560000000  0.4285410000000  0.5017850000000 1.0
C      1  0.4575330000000  0.5718190000000  0.5015230000000 1.0
C      1  0.4278630000000  0.5007700000000  0.5418350000000 1.0
C      1  0.5719210000000  0.5008290000000  0.4578900000000 1.0
C      1  0.4272720000000  0.4995450000000  0.4576050000000 1.0
C      1  0.4528980000000  0.4913000000000  0.4712270000000 1.0
C      1  0.4710390000000  0.4527010000000  0.4900400000000 1.0
C      1  0.4901000000000  0.4715940000000  0.4524610000000 1.0
C      1  0.5468810000000  0.5093380000000  0.4715100000000 1.0
C      1  0.5468990000000  0.4914290000000  0.5285340000000 1.0
C      1  0.4532370000000  0.5089590000000  0.5281090000000 1.0
C      1  0.5282850000000  0.5468270000000  0.4907400000000 1.0
C      1  0.5288120000000  0.4527660000000  0.5097950000000 1.0
C      1  0.4715570000000  0.5468950000000  0.5090360000000 1.0
C      1  0.5090110000000  0.5282960000000  0.4530470000000 1.0
C      1  0.5097050000000  0.4717160000000  0.5473490000000 1.0
C      1  0.4904420000000  0.5285720000000  0.5469480000000 1.0
C      1  0.4900480000000  0.4527010000000  0.4710310000000 1.0
C      1  0.4524700000000  0.4715940000000  0.4900900000000 1.0
C      1  0.4712360000000  0.4913000000000  0.4528900000000 1.0
C      1  0.5090450000000  0.5468950000000  0.4715490000000 1.0
C      1  0.4907480000000  0.5468280000000  0.5282760000000 1.0
C      1  0.5098030000000  0.4527660000000  0.5288040000000 1.0
C      1  0.5469570000000  0.5285710000000  0.4904350000000 1.0
C      1  0.4530560000000  0.5282970000000  0.5090010000000 1.0
C      1  0.5473570000000  0.4717160000000  0.5096980000000 1.0
C      1  0.5281180000000  0.5089590000000  0.4532300000000 1.0
C      1  0.4715180000000  0.5093380000000  0.5468720000000 1.0
C      1  0.5285410000000  0.4914290000000  0.5468910000000 1.0
C      1  0.4820060000000  0.4441460000000  0.5730230000000 1.0
C      1  0.5726630000000  0.4802910000000  0.4448050000000 1.0
C      1  0.4442710000000  0.5733140000000  0.4810580000000 1.0
C      1  0.5185850000000  0.5558740000000  0.5731560000000 1.0
C      1  0.5178360000000  0.4440770000000  0.4268200000000 1.0
C      1  0.4813480000000  0.5558120000000  0.4266030000000 1.0
C      1  0.4267070000000  0.5199210000000  0.4444130000000 1.0
C      1  0.4271530000000  0.4802190000000  0.5549810000000 1.0
C      1  0.5731600000000  0.5199440000000  0.5554430000000 1.0
C      1  0.5554150000000  0.4267410000000  0.4809140000000 1.0
C      1  0.5554590000000  0.5734310000000  0.5188050000000 1.0
C      1  0.4444590000000  0.4266880000000  0.5189410000000 1.0
C      1  0.4448120000000  0.4802910000000  0.5726540000000 1.0
C      1  0.4810680000000  0.5733140000000  0.4442620000000 1.0
C      1  0.5730310000000  0.4441460000000  0.4820000000000 1.0
C      1  0.5554500000000  0.5199440000000  0.5731520000000 1.0
C      1  0.4444230000000  0.5199210000000  0.4266970000000 1.0
C      1  0.5549910000000  0.4802190000000  0.4271460000000 1.0
C      1  0.5189500000000  0.4266880000000  0.4444510000000 1.0
C      1  0.4809210000000  0.4267410000000  0.5554070000000 1.0
C      1  0.5188120000000  0.5734310000000  0.5554510000000 1.0
C      1  0.4266120000000  0.5558120000000  0.4813370000000 1.0
C      1  0.5731650000000  0.5558740000000  0.5185770000000 1.0
C      1  0.4268280000000  0.4440770000000  0.5178270000000 1.0
C      1  0.5040610000000  0.4856520000000  0.4609150000000 1.0
C      1  0.4609580000000  0.5045890000000  0.4854890000000 1.0
C      1  0.4859660000000  0.4613620000000  0.5040350000000 1.0
C      1  0.4954490000000  0.5144310000000  0.4609290000000 1.0
C      1  0.4956970000000  0.4857880000000  0.5389100000000 1.0
C      1  0.5042970000000  0.5145770000000  0.5389150000000 1.0
C      1  0.5388190000000  0.4956750000000  0.4857790000000 1.0
C      1  0.5388770000000  0.5047410000000  0.5142300000000 1.0
C      1  0.4610440000000  0.4955620000000  0.5139520000000 1.0
C      1  0.5142140000000  0.5390930000000  0.5043040000000 1.0
C      1  0.5138740000000  0.4613870000000  0.4957960000000 1.0
C      1  0.4855890000000  0.5390320000000  0.4954830000000 1.0
C      1  0.4854990000000  0.5045890000000  0.4609500000000 1.0
C      1  0.5040430000000  0.4613620000000  0.4859580000000 1.0
C      1  0.4609230000000  0.4856520000000  0.5040520000000 1.0
C      1  0.5139610000000  0.4955620000000  0.4610360000000 1.0
C      1  0.4857870000000  0.4956750000000  0.5388100000000 1.0
C      1  0.5142370000000  0.5047410000000  0.5388690000000 1.0
C      1  0.4954910000000  0.5390320000000  0.4855810000000 1.0
C      1  0.5043120000000  0.5390930000000  0.5142050000000 1.0
C      1  0.4958040000000  0.4613870000000  0.5138650000000 1.0
C      1  0.5389240000000  0.5145770000000  0.5042890000000 1.0
C      1  0.4609370000000  0.5144310000000  0.4954390000000 1.0
C      1  0.5389190000000  0.4857880000000  0.4956900000000 1.0
C      1  0.5328510000000  0.5501690000000  0.5143720000000 1.0
C      1  0.5143180000000  0.5332420000000  0.5499110000000 1.0
C      1  0.5498880000000  0.5151150000000  0.5327980000000 1.0
C      1  0.4674970000000  0.4505960000000  0.5145610000000 1.0
C      1  0.4669330000000  0.5500670000000  0.4853900000000 1.0
C      1  0.5323660000000  0.4506350000000  0.4852820000000 1.0
C      1  0.4856680000000  0.4669710000000  0.5498200000000 1.0
C      1  0.4854320000000  0.5331360000000  0.4498930000000 1.0
C      1  0.5141670000000  0.4668870000000  0.4500000000000 1.0
C      1  0.4501110000000  0.4853590000000  0.5326040000000 1.0
C      1  0.4498980000000  0.5149990000000  0.4669690000000 1.0
C      1  0.5497200000000  0.4854380000000  0.4671830000000 1.0
C      1  0.5499190000000  0.5332420000000  0.5143100000000 1.0
C      1  0.5328060000000  0.5151150000000  0.5498800000000 1.0
C      1  0.5143800000000  0.5501690000000  0.5328420000000 1.0
C      1  0.4500080000000  0.4668870000000  0.5141580000000 1.0
C      1  0.5498280000000  0.4669710000000  0.4856610000000 1.0
C      1  0.4499020000000  0.5331360000000  0.4854220000000 1.0
C      1  0.4671910000000  0.4854380000000  0.5497110000000 1.0
C      1  0.5326130000000  0.4853590000000  0.4501030000000 1.0
C      1  0.4669780000000  0.5149990000000  0.4498880000000 1.0
C      1  0.4852900000000  0.4506350000000  0.5323570000000 1.0
C      1  0.5145700000000  0.4505960000000  0.4674890000000 1.0
C      1  0.4853990000000  0.5500670000000  0.4669240000000 1.0
C      1  0.4629260000000  0.4383180000000  0.4525060000000 1.0
C      1  0.4482950000000  0.4677020000000  0.4390780000000 1.0
C      1  0.4449140000000  0.4500220000000  0.4619170000000 1.0
C      1  0.5374490000000  0.5567550000000  0.4529760000000 1.0
C      1  0.5369220000000  0.4384460000000  0.5473270000000 1.0
C      1  0.4634380000000  0.5583170000000  0.5472340000000 1.0
C      1  0.5471830000000  0.5359950000000  0.4414520000000 1.0
C      1  0.5515100000000  0.4678440000000  0.5607110000000 1.0
C      1  0.4485740000000  0.5351280000000  0.5593060000000 1.0
C      1  0.5593280000000  0.5511010000000  0.4642430000000 1.0
C      1  0.5549180000000  0.4501600000000  0.5378940000000 1.0
C      1  0.4429560000000  0.5465580000000  0.5374400000000 1.0
C      1  0.4390870000000  0.4677020000000  0.4482850000000 1.0
C      1  0.4619260000000  0.4500220000000  0.4449060000000 1.0
C      1  0.4525150000000  0.4383180000000  0.4629170000000 1.0
C      1  0.5593160000000  0.5351280000000  0.4485670000000 1.0
C      1  0.4414600000000  0.5359960000000  0.5471730000000 1.0
C      1  0.5607180000000  0.4678440000000  0.5515030000000 1.0
C      1  0.5374500000000  0.5465580000000  0.4429480000000 1.0
C      1  0.4642500000000  0.5511020000000  0.5593190000000 1.0
C      1  0.5379010000000  0.4501600000000  0.5549110000000 1.0
C      1  0.5472440000000  0.5583170000000  0.4634300000000 1.0
C      1  0.4529840000000  0.5567560000000  0.5374400000000 1.0
C      1  0.5473350000000  0.4384460000000  0.5369150000000 1.0
C      1  0.5452230000000  0.4782200000000  0.5341770000000 1.0
C      1  0.5334300000000  0.5449230000000  0.4773380000000 1.0
C      1  0.4768990000000  0.5340450000000  0.5453020000000 1.0
C      1  0.4550310000000  0.5223310000000  0.5333370000000 1.0
C      1  0.4545780000000  0.4780870000000  0.4656000000000 1.0
C      1  0.5452630000000  0.5227960000000  0.4658360000000 1.0
C      1  0.4679590000000  0.4588110000000  0.4777440000000 1.0
C      1  0.4663930000000  0.5448340000000  0.5224610000000 1.0
C      1  0.5318720000000  0.4589220000000  0.5220680000000 1.0
C      1  0.5232600000000  0.4671120000000  0.5447380000000 1.0
C      1  0.5224650000000  0.5333780000000  0.4550350000000 1.0
C      1  0.4765460000000  0.4669850000000  0.4550620000000 1.0
C      1  0.4773460000000  0.5449240000000  0.5334210000000 1.0
C      1  0.5453110000000  0.5340440000000  0.4768920000000 1.0
C      1  0.5341840000000  0.4782200000000  0.5452150000000 1.0
C      1  0.5220760000000  0.4589220000000  0.5318640000000 1.0
C      1  0.4777530000000  0.4588110000000  0.4679500000000 1.0
C      1  0.5224710000000  0.5448340000000  0.4663850000000 1.0
C      1  0.4550710000000  0.4669850000000  0.4765370000000 1.0
C      1  0.5447460000000  0.4671120000000  0.5232530000000 1.0
C      1  0.4550440000000  0.5333780000000  0.5224560000000 1.0
C      1  0.4658430000000  0.5227960000000  0.5452540000000 1.0
C      1  0.5333460000000  0.5223310000000  0.4550240000000 1.0
C      1  0.4656090000000  0.4780870000000  0.4545690000000 1.0
C      1  0.4904000000000  0.5759850000000  0.5310060000000 1.0
C      1  0.5312570000000  0.4910460000000  0.5761440000000 1.0
C      1  0.5756250000000  0.5310930000000  0.4902300000000 1.0
C      1  0.5093460000000  0.4246310000000  0.5309080000000 1.0
C      1  0.5095710000000  0.5756260000000  0.4685760000000 1.0
C      1  0.4905310000000  0.4245730000000  0.4689560000000 1.0
C      1  0.4688810000000  0.5092170000000  0.5755070000000 1.0
C      1  0.4685270000000  0.4909270000000  0.4236370000000 1.0
C      1  0.5308440000000  0.5089380000000  0.4240220000000 1.0
C      1  0.4251420000000  0.4682650000000  0.4890820000000 1.0
C      1  0.4242080000000  0.5310770000000  0.5095760000000 1.0
C      1  0.5746730000000  0.4683940000000  0.5106910000000 1.0
C      1  0.5761510000000  0.4910460000000  0.5312500000000 1.0
C      1  0.4902370000000  0.5310930000000  0.5756160000000 1.0
C      1  0.5310150000000  0.5759850000000  0.4903920000000 1.0
C      1  0.4240300000000  0.5089380000000  0.5308340000000 1.0
C      1  0.5755160000000  0.5092160000000  0.4688740000000 1.0
C      1  0.4236460000000  0.4909270000000  0.4685180000000 1.0
C      1  0.5106980000000  0.4683940000000  0.5746650000000 1.0
C      1  0.4890910000000  0.4682640000000  0.4251340000000 1.0
C      1  0.5095860000000  0.5310770000000  0.4242000000000 1.0
C      1  0.4689650000000  0.4245730000000  0.4905220000000 1.0
C      1  0.5309160000000  0.4246310000000  0.5093390000000 1.0
C      1  0.4685840000000  0.5756260000000  0.5095610000000 1.0
C      1  0.4855750000000  0.4365780000000  0.5030070000000 1.0
C      1  0.5026680000000  0.4854230000000  0.4361260000000 1.0
C      1  0.4361250000000  0.5032320000000  0.4854030000000 1.0
C      1  0.5142140000000  0.5639420000000  0.5030070000000 1.0
C      1  0.5142950000000  0.4365960000000  0.4968470000000 1.0
C      1  0.4855350000000  0.5639010000000  0.4967380000000 1.0
C      1  0.4967050000000  0.5143280000000  0.4360390000000 1.0
C      1  0.4971070000000  0.4855690000000  0.5636840000000 1.0
C      1  0.5030450000000  0.5144670000000  0.5637900000000 1.0
C      1  0.5636970000000  0.4967290000000  0.4857810000000 1.0
C      1  0.5636930000000  0.5033550000000  0.5143380000000 1.0
C      1  0.4361600000000  0.4965820000000  0.5139390000000 1.0
C      1  0.4361350000000  0.4854230000000  0.5026590000000 1.0
C      1  0.4854130000000  0.5032320000000  0.4361170000000 1.0
C      1  0.5030150000000  0.4365780000000  0.4855670000000 1.0
C      1  0.5637980000000  0.5144670000000  0.5030380000000 1.0
C      1  0.4360480000000  0.5143290000000  0.4966960000000 1.0
C      1  0.5636920000000  0.4855690000000  0.4971000000000 1.0
C      1  0.5139490000000  0.4965820000000  0.4361520000000 1.0
C      1  0.4857890000000  0.4967290000000  0.5636880000000 1.0
C      1  0.5143450000000  0.5033550000000  0.5636840000000 1.0
C      1  0.4967460000000  0.5639000000000  0.4855260000000 1.0
C      1  0.5030160000000  0.5639420000000  0.5142060000000 1.0
C      1  0.4968550000000  0.4365960000000  0.5142870000000 1.0
C      1  0.5045970000000  0.5506050000000  0.4847210000000 1.0
C      1  0.4847620000000  0.5047650000000  0.5504050000000 1.0
C      1  0.5504090000000  0.4848690000000  0.5048760000000 1.0
C      1  0.4949660000000  0.4497190000000  0.4845620000000 1.0
C      1  0.4951840000000  0.5506200000000  0.5150810000000 1.0
C      1  0.5048900000000  0.4497500000000  0.5152780000000 1.0
C      1  0.5152300000000  0.4955900000000  0.5503740000000 1.0
C      1  0.5149050000000  0.5045660000000  0.4494270000000 1.0
C      1  0.4845440000000  0.4954630000000  0.4494180000000 1.0
C      1  0.4493410000000  0.5151380000000  0.5045270000000 1.0
C      1  0.4494060000000  0.4847450000000  0.4948860000000 1.0
C      1  0.5504900000000  0.5153800000000  0.4951270000000 1.0
C      1  0.5504140000000  0.5047650000000  0.4847550000000 1.0
C      1  0.5048840000000  0.4848690000000  0.5504010000000 1.0
C      1  0.4847300000000  0.5506050000000  0.5045880000000 1.0
C      1  0.4494260000000  0.4954630000000  0.4845340000000 1.0
C      1  0.5503820000000  0.4955900000000  0.5152220000000 1.0
C      1  0.4494350000000  0.5045660000000  0.5148960000000 1.0
C      1  0.4951340000000  0.5153800000000  0.5504810000000 1.0
C      1  0.5045360000000  0.5151380000000  0.4493320000000 1.0
C      1  0.4948960000000  0.4847450000000  0.4493970000000 1.0
C      1  0.5152860000000  0.4497500000000  0.5048820000000 1.0
C      1  0.4845700000000  0.4497190000000  0.4949580000000 1.0
C      1  0.5150890000000  0.5506200000000  0.4951750000000 1.0
C      1  0.4997580000000  0.5391360000000  0.4505290000000 1.0
C      1  0.4506780000000  0.4996110000000  0.5388340000000 1.0
C      1  0.5374950000000  0.4528320000000  0.4987510000000 1.0
C      1  0.4994540000000  0.4603130000000  0.4506450000000 1.0
C      1  0.4999370000000  0.5393040000000  0.5493620000000 1.0
C      1  0.5003770000000  0.4604160000000  0.5491760000000 1.0
C      1  0.5493970000000  0.5010720000000  0.5391230000000 1.0
C      1  0.5492010000000  0.4997090000000  0.4609010000000 1.0
C      1  0.4503950000000  0.5009500000000  0.4606480000000 1.0
C      1  0.4607840000000  0.5494030000000  0.4997310000000 1.0
C      1  0.4623580000000  0.4527620000000  0.5010840000000 1.0
C      1  0.5390410000000  0.5495080000000  0.5000210000000 1.0
C      1  0.5388430000000  0.4996110000000  0.4506710000000 1.0
C      1  0.4987580000000  0.4528320000000  0.5374870000000 1.0
C      1  0.4505380000000  0.5391370000000  0.4997490000000 1.0
C      1  0.4606580000000  0.5009500000000  0.4503860000000 1.0
C      1  0.5391300000000  0.5010720000000  0.5493890000000 1.0
C      1  0.4609090000000  0.4997100000000  0.5491920000000 1.0
C      1  0.5000290000000  0.5495080000000  0.5390320000000 1.0
C      1  0.4997400000000  0.5494020000000  0.4607760000000 1.0
C      1  0.5010930000000  0.4527620000000  0.4623500000000 1.0
C      1  0.5491850000000  0.4604160000000  0.5003690000000 1.0
C      1  0.4506540000000  0.4603130000000  0.4994450000000 1.0
C      1  0.5493710000000  0.5393040000000  0.4999290000000 1.0
C      1  0.5053050000000  0.4241560000000  0.5166670000000 1.0
C      1  0.5164350000000  0.5050580000000  0.4235730000000 1.0
C      1  0.4234850000000  0.5166800000000  0.5053690000000 1.0
C      1  0.4943750000000  0.5765090000000  0.5166320000000 1.0
C      1  0.4945760000000  0.4241240000000  0.4831990000000 1.0
C      1  0.5054170000000  0.5764110000000  0.4829590000000 1.0
C      1  0.4829330000000  0.4945110000000  0.4235840000000 1.0
C      1  0.4832610000000  0.5052600000000  0.5762410000000 1.0
C      1  0.5168490000000  0.4946330000000  0.5762170000000 1.0
C      1  0.5760130000000  0.4827860000000  0.5060420000000 1.0
C      1  0.5763920000000  0.5167500000000  0.4943720000000 1.0
C      1  0.4237940000000  0.4826550000000  0.4937130000000 1.0
C      1  0.4235810000000  0.5050590000000  0.5164250000000 1.0
C      1  0.5053790000000  0.5166800000000  0.4234760000000 1.0
C      1  0.5166750000000  0.4241560000000  0.5052970000000 1.0
C      1  0.5762260000000  0.4946330000000  0.5168420000000 1.0
C      1  0.4235930000000  0.4945110000000  0.4829230000000 1.0
C      1  0.5762500000000  0.5052600000000  0.4832540000000 1.0
C      1  0.4937230000000  0.4826550000000  0.4237860000000 1.0
C      1  0.5060490000000  0.4827870000000  0.5760050000000 1.0
C      1  0.4943790000000  0.5167500000000  0.5763830000000 1.0
C      1  0.4829670000000  0.5764110000000  0.5054080000000 1.0
C      1  0.5166410000000  0.5765090000000  0.4943660000000 1.0
C      1  0.4832070000000  0.4241240000000  0.4945670000000 1.0
C      1  0.4377820000000  0.5143690000000  0.4752220000000 1.0
C      1  0.4753520000000  0.4382480000000  0.5138500000000 1.0
C      1  0.5135610000000  0.4750930000000  0.4379690000000 1.0
C      1  0.5618240000000  0.4856410000000  0.4755550000000 1.0
C      1  0.5620100000000  0.5144510000000  0.5245550000000 1.0
C      1  0.4380120000000  0.4855670000000  0.5242290000000 1.0
C      1  0.5245370000000  0.5622220000000  0.5139480000000 1.0
C      1  0.5245210000000  0.4382720000000  0.4860030000000 1.0
C      1  0.4752310000000  0.5621260000000  0.4857810000000 1.0
C      1  0.4859170000000  0.5248270000000  0.4378060000000 1.0
C      1  0.4862550000000  0.4751960000000  0.5618440000000 1.0
C      1  0.5138840000000  0.5249310000000  0.5620100000000 1.0
C      1  0.5138590000000  0.4382480000000  0.4753440000000 1.0
C      1  0.4379770000000  0.4750940000000  0.5135520000000 1.0
C      1  0.4752310000000  0.5143690000000  0.4377730000000 1.0
C      1  0.4857900000000  0.5621260000000  0.4752220000000 1.0
C      1  0.5139560000000  0.5622220000000  0.5245280000000 1.0
C      1  0.4860100000000  0.4382720000000  0.5245120000000 1.0
C      1  0.5620190000000  0.5249310000000  0.5138770000000 1.0
C      1  0.4378150000000  0.5248280000000  0.4859080000000 1.0
C      1  0.5618530000000  0.4751960000000  0.4862480000000 1.0
C      1  0.5242390000000  0.4855660000000  0.4380040000000 1.0
C      1  0.4755620000000  0.4856420000000  0.5618150000000 1.0
C      1  0.5245620000000  0.5144520000000  0.5620020000000 1.0
C      1  0.4399990000000  0.5075760000000  0.5478630000000 1.0
C      1  0.5518630000000  0.4357400000000  0.5113510000000 1.0
C      1  0.5086900000000  0.5483600000000  0.4400130000000 1.0
C      1  0.5601420000000  0.4935520000000  0.5481060000000 1.0
C      1  0.5598490000000  0.5075740000000  0.4514440000000 1.0
C      1  0.4396480000000  0.4934410000000  0.4516630000000 1.0
C      1  0.4513430000000  0.5598060000000  0.5086490000000 1.0
C      1  0.4479950000000  0.4356400000000  0.4884870000000 1.0
C      1  0.5480760000000  0.5600690000000  0.4917570000000 1.0
C      1  0.4895990000000  0.4499850000000  0.4410210000000 1.0
C      1  0.4917530000000  0.5485820000000  0.5599890000000 1.0
C      1  0.5102360000000  0.4500960000000  0.5588010000000 1.0
C      1  0.5113590000000  0.4357400000000  0.5518550000000 1.0
C      1  0.4400220000000  0.5483600000000  0.5086800000000 1.0
C      1  0.5478720000000  0.5075750000000  0.4399910000000 1.0
C      1  0.4917640000000  0.5600690000000  0.5480670000000 1.0
C      1  0.5086590000000  0.5598060000000  0.4513350000000 1.0
C      1  0.4884960000000  0.4356400000000  0.4479870000000 1.0
C      1  0.5588090000000  0.4500960000000  0.5102290000000 1.0
C      1  0.4410290000000  0.4499850000000  0.4895900000000 1.0
C      1  0.5599980000000  0.5485820000000  0.4917460000000 1.0
C      1  0.4516730000000  0.4934410000000  0.4396390000000 1.0
C      1  0.5481130000000  0.4935520000000  0.5601340000000 1.0
C      1  0.4514520000000  0.5075750000000  0.5598400000000 1.0
C      1  0.5306560000000  0.5744780000000  0.5205280000000 1.0
C      1  0.5203860000000  0.5311270000000  0.5742640000000 1.0
C      1  0.5742760000000  0.5211790000000  0.5305680000000 1.0
C      1  0.4692110000000  0.4261870000000  0.5204810000000 1.0
C      1  0.4690440000000  0.5743090000000  0.4792050000000 1.0
C      1  0.5306720000000  0.4262100000000  0.4793800000000 1.0
C      1  0.4800710000000  0.4687360000000  0.5740360000000 1.0
C      1  0.4795500000000  0.5311070000000  0.4255550000000 1.0
C      1  0.5197570000000  0.4686630000000  0.4257730000000 1.0
C      1  0.4258780000000  0.4786250000000  0.5301840000000 1.0
C      1  0.4255260000000  0.5211760000000  0.4692870000000 1.0
C      1  0.5739450000000  0.4786700000000  0.4696100000000 1.0
C      1  0.5742720000000  0.5311270000000  0.5203790000000 1.0
C      1  0.5305750000000  0.5211800000000  0.5742680000000 1.0
C      1  0.5205360000000  0.5744780000000  0.5306470000000 1.0
C      1  0.4257810000000  0.4686630000000  0.5197480000000 1.0
C      1  0.5740450000000  0.4687360000000  0.4800640000000 1.0
C      1  0.4255640000000  0.5311070000000  0.4795400000000 1.0
C      1  0.4696170000000  0.4786700000000  0.5739360000000 1.0
C      1  0.5301940000000  0.4786240000000  0.4258700000000 1.0
C      1  0.4692970000000  0.5211760000000  0.4255170000000 1.0
C      1  0.4793870000000  0.4262100000000  0.5306630000000 1.0
C      1  0.5204890000000  0.4261860000000  0.4692030000000 1.0
C      1  0.4792150000000  0.5743090000000  0.4690350000000 1.0
C      1  0.5416190000000  0.5601050000000  0.4770200000000 1.0
C      1  0.4770250000000  0.5426880000000  0.5601160000000 1.0
C      1  0.5603770000000  0.4790670000000  0.5425410000000 1.0
C      1  0.4538150000000  0.4320650000000  0.4754640000000 1.0
C      1  0.4579250000000  0.5598010000000  0.5234520000000 1.0
C      1  0.5460490000000  0.4321720000000  0.5243800000000 1.0
C      1  0.5248730000000  0.4574200000000  0.5585630000000 1.0
C      1  0.5234640000000  0.5416620000000  0.4400200000000 1.0
C      1  0.4749430000000  0.4572950000000  0.4412470000000 1.0
C      1  0.4398070000000  0.5224120000000  0.5415030000000 1.0
C      1  0.4394090000000  0.4789440000000  0.4572260000000 1.0
C      1  0.5601130000000  0.5224070000000  0.4570850000000 1.0
C      1  0.5601250000000  0.5426870000000  0.4770180000000 1.0
C      1  0.5425480000000  0.4790670000000  0.5603700000000 1.0
C      1  0.4770280000000  0.5601050000000  0.5416100000000 1.0
C      1  0.4412550000000  0.4572950000000  0.4749340000000 1.0
C      1  0.5585700000000  0.4574190000000  0.5248660000000 1.0
C      1  0.4400280000000  0.5416630000000  0.5234540000000 1.0
C      1  0.4570920000000  0.5224070000000  0.5601040000000 1.0
C      1  0.5415130000000  0.5224110000000  0.4397990000000 1.0
C      1  0.4572350000000  0.4789430000000  0.4394000000000 1.0
C      1  0.5243870000000  0.4321720000000  0.5460420000000 1.0
C      1  0.4754730000000  0.4320650000000  0.4538070000000 1.0
C      1  0.5234610000000  0.5598010000000  0.4579170000000 1.0
C      1  0.4868940000000  0.5434310000000  0.4249470000000 1.0
C      1  0.4251850000000  0.4859170000000  0.5426940000000 1.0
C      1  0.5430980000000  0.4256670000000  0.4868140000000 1.0
C      1  0.5120070000000  0.4563140000000  0.4255250000000 1.0
C      1  0.5131400000000  0.5434680000000  0.5750200000000 1.0
C      1  0.4878200000000  0.4563940000000  0.5742980000000 1.0
C      1  0.5752660000000  0.5143680000000  0.5431050000000 1.0
C      1  0.5746360000000  0.4859760000000  0.4570920000000 1.0
C      1  0.4245790000000  0.5143120000000  0.4567340000000 1.0
C      1  0.4566350000000  0.5748360000000  0.4866470000000 1.0
C      1  0.4567810000000  0.4256210000000  0.5130480000000 1.0
C      1  0.5430780000000  0.5751610000000  0.5132700000000 1.0
C      1  0.5427040000000  0.4859160000000  0.4251770000000 1.0
C      1  0.4868220000000  0.4256670000000  0.5430900000000 1.0
C      1  0.4249560000000  0.5434320000000  0.4868840000000 1.0
C      1  0.4567440000000  0.5143120000000  0.4245700000000 1.0
C      1  0.5431120000000  0.5143680000000  0.5752590000000 1.0
C      1  0.4570990000000  0.4859760000000  0.5746270000000 1.0
C      1  0.5132780000000  0.5751610000000  0.5430700000000 1.0
C      1  0.4866570000000  0.5748350000000  0.4566260000000 1.0
C      1  0.5130560000000  0.4256210000000  0.4567730000000 1.0
C      1  0.5743070000000  0.4563930000000  0.4878130000000 1.0
C      1  0.4255330000000  0.4563140000000  0.5119970000000 1.0
C      1  0.5750290000000  0.5434670000000  0.5131330000000 1.0
C      1  0.5710220000000  0.4780810000000  0.5330180000000 1.0
C      1  0.5323230000000  0.5710080000000  0.4773980000000 1.0
C      1  0.4772340000000  0.5323420000000  0.5704690000000 1.0
C      1  0.4289180000000  0.5219890000000  0.5322120000000 1.0
C      1  0.4287700000000  0.4779530000000  0.4667480000000 1.0
C      1  0.5704630000000  0.5222710000000  0.4673830000000 1.0
C      1  0.4665960000000  0.4257920000000  0.4767670000000 1.0
C      1  0.4673290000000  0.5707790000000  0.5226660000000 1.0
C      1  0.5332790000000  0.4258770000000  0.5230910000000 1.0
C      1  0.5239310000000  0.4673240000000  0.5699790000000 1.0
C      1  0.5226710000000  0.5321810000000  0.4290940000000 1.0
C      1  0.4758590000000  0.4671940000000  0.4298190000000 1.0
C      1  0.4774060000000  0.5710090000000  0.5323140000000 1.0
C      1  0.5704780000000  0.5323420000000  0.4772270000000 1.0
C      1  0.5330250000000  0.4780810000000  0.5710140000000 1.0
C      1  0.5230990000000  0.4258770000000  0.5332720000000 1.0
C      1  0.4767760000000  0.4257920000000  0.4665880000000 1.0
C      1  0.5226760000000  0.5707790000000  0.4673210000000 1.0
C      1  0.4298270000000  0.4671940000000  0.4758500000000 1.0
C      1  0.5699870000000  0.4673240000000  0.5239240000000 1.0
C      1  0.4291030000000  0.5321810000000  0.5226610000000 1.0
C      1  0.4673900000000  0.5222710000000  0.5704540000000 1.0
C      1  0.5322220000000  0.5219880000000  0.4289100000000 1.0
C      1  0.4667570000000  0.4779530000000  0.4287610000000 1.0
C      1  0.5101560000000  0.4999820000000  0.5888380000000 1.0
C      1  0.5889660000000  0.5100280000000  0.4999630000000 1.0
C      1  0.4998800000000  0.5891280000000  0.5099950000000 1.0
C      1  0.4900010000000  0.4993590000000  0.5886940000000 1.0
C      1  0.4896340000000  0.4999120000000  0.4109900000000 1.0
C      1  0.5097020000000  0.4992440000000  0.4111340000000 1.0
C      1  0.4110960000000  0.4891510000000  0.4994840000000 1.0
C      1  0.4109080000000  0.5099750000000  0.4997950000000 1.0
C      1  0.5887000000000  0.4892700000000  0.5002250000000 1.0
C      1  0.4998920000000  0.4113390000000  0.5101620000000 1.0
C      1  0.4996910000000  0.5890110000000  0.4895390000000 1.0
C      1  0.5000070000000  0.4113220000000  0.4897200000000 1.0
C      1  0.4999700000000  0.5100280000000  0.5889580000000 1.0
C      1  0.5100030000000  0.5891280000000  0.4998720000000 1.0
C      1  0.5888460000000  0.4999820000000  0.5101490000000 1.0
C      1  0.5002320000000  0.4892700000000  0.5886920000000 1.0
C      1  0.4994940000000  0.4891510000000  0.4110880000000 1.0
C      1  0.4998050000000  0.5099750000000  0.4109000000000 1.0
C      1  0.4897280000000  0.4113220000000  0.4999990000000 1.0
C      1  0.5101700000000  0.4113390000000  0.4998840000000 1.0
C      1  0.4895480000000  0.5890110000000  0.4996820000000 1.0
C      1  0.4111420000000  0.4992440000000  0.5096920000000 1.0
C      1  0.5887030000000  0.4993580000000  0.4899950000000 1.0
C      1  0.4109980000000  0.4999120000000  0.4896240000000 1.0
C      1  0.4746920000000  0.4859750000000  0.5360920000000 1.0
C      1  0.5362040000000  0.4747150000000  0.4860510000000 1.0
C      1  0.4858290000000  0.5364740000000  0.4744590000000 1.0
C      1  0.5252970000000  0.5144940000000  0.5362300000000 1.0
C      1  0.5250930000000  0.4859100000000  0.4637190000000 1.0
C      1  0.4744680000000  0.5143780000000  0.4635340000000 1.0
C      1  0.4635300000000  0.5256040000000  0.4858220000000 1.0
C      1  0.4636270000000  0.4746360000000  0.5137530000000 1.0
C      1  0.5362870000000  0.5257300000000  0.5139070000000 1.0
C      1  0.5136780000000  0.4640680000000  0.4746960000000 1.0
C      1  0.5139620000000  0.5365700000000  0.5253220000000 1.0
C      1  0.4861670000000  0.4641100000000  0.5251340000000 1.0
C      1  0.4860580000000  0.4747160000000  0.5361950000000 1.0
C      1  0.4744680000000  0.5364740000000  0.4858200000000 1.0
C      1  0.5361010000000  0.4859740000000  0.4746840000000 1.0
C      1  0.5139150000000  0.5257300000000  0.5362790000000 1.0
C      1  0.4858320000000  0.5256040000000  0.4635210000000 1.0
C      1  0.5137620000000  0.4746350000000  0.4636190000000 1.0
C      1  0.5251420000000  0.4641100000000  0.4861590000000 1.0
C      1  0.4747040000000  0.4640690000000  0.5136700000000 1.0
C      1  0.5253300000000  0.5365700000000  0.5139540000000 1.0
C      1  0.4635430000000  0.5143780000000  0.4744590000000 1.0
C      1  0.5362380000000  0.5144940000000  0.5252890000000 1.0
C      1  0.4637270000000  0.4859110000000  0.5250840000000 1.0
C      1  0.4510620000000  0.5291380000000  0.4610510000000 1.0
C      1  0.4613380000000  0.4515770000000  0.5285340000000 1.0
C      1  0.5284590000000  0.4612000000000  0.4511880000000 1.0
C      1  0.5485770000000  0.4713090000000  0.4612570000000 1.0
C      1  0.5487180000000  0.5292630000000  0.5387040000000 1.0
C      1  0.4512690000000  0.4712720000000  0.5385610000000 1.0
C      1  0.5387170000000  0.5491160000000  0.5285870000000 1.0
C      1  0.5385280000000  0.4516040000000  0.4713170000000 1.0
C      1  0.4610700000000  0.5489980000000  0.4711700000000 1.0
C      1  0.4711970000000  0.5391480000000  0.4510090000000 1.0
C      1  0.4713950000000  0.4612620000000  0.5486400000000 1.0
C      1  0.5285620000000  0.5392650000000  0.5487740000000 1.0
C      1  0.5285430000000  0.4515760000000  0.4613300000000 1.0
C      1  0.4511960000000  0.4612000000000  0.5284500000000 1.0
C      1  0.4610600000000  0.5291380000000  0.4510520000000 1.0
C      1  0.4711790000000  0.5489980000000  0.4610610000000 1.0
C      1  0.5285950000000  0.5491160000000  0.5387090000000 1.0
C      1  0.4713240000000  0.4516040000000  0.5385190000000 1.0
C      1  0.5487820000000  0.5392650000000  0.5285550000000 1.0
C      1  0.4510180000000  0.5391480000000  0.4711880000000 1.0
C      1  0.5486490000000  0.4612610000000  0.4713870000000 1.0
C      1  0.5385710000000  0.4712710000000  0.4512620000000 1.0
C      1  0.4612650000000  0.4713090000000  0.5485680000000 1.0
C      1  0.5387110000000  0.5292630000000  0.5487100000000 1.0
C      1  0.5199480000000  0.5670100000000  0.5666670000000 1.0
C      1  0.5665660000000  0.5211730000000  0.5665590000000 1.0
C      1  0.4801470000000  0.4330230000000  0.5666750000000 1.0
C      1  0.4798640000000  0.5669900000000  0.4329980000000 1.0
C      1  0.5197110000000  0.4329590000000  0.4331750000000 1.0
C      1  0.4336860000000  0.4788700000000  0.5661220000000 1.0
C      1  0.4333070000000  0.5211830000000  0.4332980000000 1.0
C      1  0.5661310000000  0.4788690000000  0.4336790000000 1.0
C      1  0.4330070000000  0.5669910000000  0.4798540000000 1.0
C      1  0.5666840000000  0.4330230000000  0.4801400000000 1.0
C      1  0.5666750000000  0.5670100000000  0.5199410000000 1.0
C      1  0.4331830000000  0.4329600000000  0.5197020000000 1.0
C      1  0.4527800000000  0.5466690000000  0.5655380000000 1.0
C      1  0.5655480000000  0.5466690000000  0.4527720000000 1.0
C      1  0.5506600000000  0.4562360000000  0.5506530000000 1.0
C      1  0.4491630000000  0.4560990000000  0.4491540000000 1.0
END
