TITL C-1379267-1329-242 -6.01725695686326e-07 1000000 -4201.91381577911 0 0 600 (Th) n - 1
REM
REM in /nfs/bkarasulu/CARBON/AIRSS/Generating-Clusters/GAP-ML-2020/Higher-Symm/Selected-Sizes/TryA-Only_Ih-Symm/Larger-Clusters/Try2-MINAMP_6A
REM
REM
REM
REM
REM
REM ./C.cell (31579ac4e95a012ec27f3239692ae8a5)
REM
REM compiler GCC version 9.2.1 20190827 (Red Hat 9.2.1-1)
REM options -cpp -mtune=generic -march=x86-64 -g -O0 -fpre-include=/usr/include/finclude/math-vector-fortran.h
REM seed -322066066 -868109416 1338870603 -536840934 784432316 1525872555 1813837298 -2079166451 -73891087 746652723 1638539852 -1689357203 1583321583 1695733582 -1076798934 -500512524 -1144671932 588392967 800097230 83000066 -57363387 -2047381977 -1920206869 -1407162098 205770534 -146254683 -1051441015 1653534189 1141033625 1621537239 1515103988 -227469759 1708381347
REM
CELL 1.54180  100.00000  100.00000  100.00000   90.00000   90.00000   90.00000
LATT -1
SFAC C  
C      1  0.5273570000000  0.4344290000000  0.5710230000000 1.0
C      1  0.4344290000000  0.5710230000000  0.5273570000000 1.0
C      1  0.5710230000000  0.5273570000000  0.4344290000000 1.0
C      1  0.4726430000000  0.4344290000000  0.4289770000000 1.0
C      1  0.4726430000000  0.5655710000000  0.5710230000000 1.0
C      1  0.5273570000000  0.5655710000000  0.4289770000000 1.0
C      1  0.5655710000000  0.5710230000000  0.4726430000000 1.0
C      1  0.5655710000000  0.4289770000000  0.5273570000000 1.0
C      1  0.4344290000000  0.4289770000000  0.4726430000000 1.0
C      1  0.4289770000000  0.5273570000000  0.5655710000000 1.0
C      1  0.4289770000000  0.4726430000000  0.4344290000000 1.0
C      1  0.5710230000000  0.4726430000000  0.5655710000000 1.0
C      1  0.5273570000000  0.5655710000000  0.5710230000000 1.0
C      1  0.4344290000000  0.4289770000000  0.5273570000000 1.0
C      1  0.5710230000000  0.4726430000000  0.4344290000000 1.0
C      1  0.4726430000000  0.5655710000000  0.4289770000000 1.0
C      1  0.4726430000000  0.4344290000000  0.5710230000000 1.0
C      1  0.5273570000000  0.4344290000000  0.4289770000000 1.0
C      1  0.5655710000000  0.4289770000000  0.4726430000000 1.0
C      1  0.5655710000000  0.5710230000000  0.5273570000000 1.0
C      1  0.4344290000000  0.5710230000000  0.4726430000000 1.0
C      1  0.4289770000000  0.4726430000000  0.5655710000000 1.0
C      1  0.4289770000000  0.5273570000000  0.4344290000000 1.0
C      1  0.5710230000000  0.5273570000000  0.5655710000000 1.0
C      1  0.5429200000000  0.5370570000000  0.4696340000000 1.0
C      1  0.5370570000000  0.4696340000000  0.5429200000000 1.0
C      1  0.4696340000000  0.5429200000000  0.5370570000000 1.0
C      1  0.4570800000000  0.5370570000000  0.5303660000000 1.0
C      1  0.4570800000000  0.4629430000000  0.4696340000000 1.0
C      1  0.5429200000000  0.4629430000000  0.5303660000000 1.0
C      1  0.4629430000000  0.4696340000000  0.4570800000000 1.0
C      1  0.4629430000000  0.5303660000000  0.5429200000000 1.0
C      1  0.5370570000000  0.5303660000000  0.4570800000000 1.0
C      1  0.5303660000000  0.5429200000000  0.4629430000000 1.0
C      1  0.5303660000000  0.4570800000000  0.5370570000000 1.0
C      1  0.4696340000000  0.4570800000000  0.4629430000000 1.0
C      1  0.5429200000000  0.4629430000000  0.4696340000000 1.0
C      1  0.5370570000000  0.5303660000000  0.5429200000000 1.0
C      1  0.4696340000000  0.4570800000000  0.5370570000000 1.0
C      1  0.4570800000000  0.4629430000000  0.5303660000000 1.0
C      1  0.4570800000000  0.5370570000000  0.4696340000000 1.0
C      1  0.5429200000000  0.5370570000000  0.5303660000000 1.0
C      1  0.4629430000000  0.5303660000000  0.4570800000000 1.0
C      1  0.4629430000000  0.4696340000000  0.5429200000000 1.0
C      1  0.5370570000000  0.4696340000000  0.4570800000000 1.0
C      1  0.5303660000000  0.4570800000000  0.4629430000000 1.0
C      1  0.5303660000000  0.5429200000000  0.5370570000000 1.0
C      1  0.4696340000000  0.5429200000000  0.4629430000000 1.0
C      1  0.5304820000000  0.4918100000000  0.5717600000000 1.0
C      1  0.4918100000000  0.5717600000000  0.5304820000000 1.0
C      1  0.5717600000000  0.5304820000000  0.4918100000000 1.0
C      1  0.4695180000000  0.4918100000000  0.4282400000000 1.0
C      1  0.4695180000000  0.5081900000000  0.5717600000000 1.0
C      1  0.5304820000000  0.5081900000000  0.4282400000000 1.0
C      1  0.5081900000000  0.5717600000000  0.4695180000000 1.0
C      1  0.5081900000000  0.4282400000000  0.5304820000000 1.0
C      1  0.4918100000000  0.4282400000000  0.4695180000000 1.0
C      1  0.4282400000000  0.5304820000000  0.5081900000000 1.0
C      1  0.4282400000000  0.4695180000000  0.4918100000000 1.0
C      1  0.5717600000000  0.4695180000000  0.5081900000000 1.0
C      1  0.5304820000000  0.5081900000000  0.5717600000000 1.0
C      1  0.4918100000000  0.4282400000000  0.5304820000000 1.0
C      1  0.5717600000000  0.4695180000000  0.4918100000000 1.0
C      1  0.4695180000000  0.5081900000000  0.4282400000000 1.0
C      1  0.4695180000000  0.4918100000000  0.5717600000000 1.0
C      1  0.5304820000000  0.4918100000000  0.4282400000000 1.0
C      1  0.5081900000000  0.4282400000000  0.4695180000000 1.0
C      1  0.5081900000000  0.5717600000000  0.5304820000000 1.0
C      1  0.4918100000000  0.5717600000000  0.4695180000000 1.0
C      1  0.4282400000000  0.4695180000000  0.5081900000000 1.0
C      1  0.4282400000000  0.5304820000000  0.4918100000000 1.0
C      1  0.5717600000000  0.5304820000000  0.5081900000000 1.0
C      1  0.4429610000000  0.5672190000000  0.5383470000000 1.0
C      1  0.5672190000000  0.5383470000000  0.4429610000000 1.0
C      1  0.5383470000000  0.4429610000000  0.5672190000000 1.0
C      1  0.5570390000000  0.5672190000000  0.4616530000000 1.0
C      1  0.5570390000000  0.4327810000000  0.5383470000000 1.0
C      1  0.4429610000000  0.4327810000000  0.4616530000000 1.0
C      1  0.4327810000000  0.5383470000000  0.5570390000000 1.0
C      1  0.4327810000000  0.4616530000000  0.4429610000000 1.0
C      1  0.5672190000000  0.4616530000000  0.5570390000000 1.0
C      1  0.4616530000000  0.4429610000000  0.4327810000000 1.0
C      1  0.4616530000000  0.5570390000000  0.5672190000000 1.0
C      1  0.5383470000000  0.5570390000000  0.4327810000000 1.0
C      1  0.4429610000000  0.4327810000000  0.5383470000000 1.0
C      1  0.5672190000000  0.4616530000000  0.4429610000000 1.0
C      1  0.5383470000000  0.5570390000000  0.5672190000000 1.0
C      1  0.5570390000000  0.4327810000000  0.4616530000000 1.0
C      1  0.5570390000000  0.5672190000000  0.5383470000000 1.0
C      1  0.4429610000000  0.5672190000000  0.4616530000000 1.0
C      1  0.4327810000000  0.4616530000000  0.5570390000000 1.0
C      1  0.4327810000000  0.5383470000000  0.4429610000000 1.0
C      1  0.5672190000000  0.5383470000000  0.5570390000000 1.0
C      1  0.4616530000000  0.5570390000000  0.4327810000000 1.0
C      1  0.4616530000000  0.4429610000000  0.5672190000000 1.0
C      1  0.5383470000000  0.4429610000000  0.4327810000000 1.0
C      1  0.5549470000000  0.5446820000000  0.5279930000000 1.0
C      1  0.5446820000000  0.5279930000000  0.5549470000000 1.0
C      1  0.5279930000000  0.5549470000000  0.5446820000000 1.0
C      1  0.4450530000000  0.5446820000000  0.4720070000000 1.0
C      1  0.4450530000000  0.4553180000000  0.5279930000000 1.0
C      1  0.5549470000000  0.4553180000000  0.4720070000000 1.0
C      1  0.4553180000000  0.5279930000000  0.4450530000000 1.0
C      1  0.4553180000000  0.4720070000000  0.5549470000000 1.0
C      1  0.5446820000000  0.4720070000000  0.4450530000000 1.0
C      1  0.4720070000000  0.5549470000000  0.4553180000000 1.0
C      1  0.4720070000000  0.4450530000000  0.5446820000000 1.0
C      1  0.5279930000000  0.4450530000000  0.4553180000000 1.0
C      1  0.5549470000000  0.4553180000000  0.5279930000000 1.0
C      1  0.5446820000000  0.4720070000000  0.5549470000000 1.0
C      1  0.5279930000000  0.4450530000000  0.5446820000000 1.0
C      1  0.4450530000000  0.4553180000000  0.4720070000000 1.0
C      1  0.4450530000000  0.5446820000000  0.5279930000000 1.0
C      1  0.5549470000000  0.5446820000000  0.4720070000000 1.0
C      1  0.4553180000000  0.4720070000000  0.4450530000000 1.0
C      1  0.4553180000000  0.5279930000000  0.5549470000000 1.0
C      1  0.5446820000000  0.5279930000000  0.4450530000000 1.0
C      1  0.4720070000000  0.4450530000000  0.4553180000000 1.0
C      1  0.4720070000000  0.5549470000000  0.5446820000000 1.0
C      1  0.5279930000000  0.5549470000000  0.4553180000000 1.0
C      1  0.4227940000000  0.4930430000000  0.5518560000000 1.0
C      1  0.4930430000000  0.5518560000000  0.4227940000000 1.0
C      1  0.5518560000000  0.4227940000000  0.4930430000000 1.0
C      1  0.5772060000000  0.4930430000000  0.4481440000000 1.0
C      1  0.5772060000000  0.5069570000000  0.5518560000000 1.0
C      1  0.4227940000000  0.5069570000000  0.4481440000000 1.0
C      1  0.5069570000000  0.5518560000000  0.5772060000000 1.0
C      1  0.5069570000000  0.4481440000000  0.4227940000000 1.0
C      1  0.4930430000000  0.4481440000000  0.5772060000000 1.0
C      1  0.4481440000000  0.4227940000000  0.5069570000000 1.0
C      1  0.4481440000000  0.5772060000000  0.4930430000000 1.0
C      1  0.5518560000000  0.5772060000000  0.5069570000000 1.0
C      1  0.4227940000000  0.5069570000000  0.5518560000000 1.0
C      1  0.4930430000000  0.4481440000000  0.4227940000000 1.0
C      1  0.5518560000000  0.5772060000000  0.4930430000000 1.0
C      1  0.5772060000000  0.5069570000000  0.4481440000000 1.0
C      1  0.5772060000000  0.4930430000000  0.5518560000000 1.0
C      1  0.4227940000000  0.4930430000000  0.4481440000000 1.0
C      1  0.5069570000000  0.4481440000000  0.5772060000000 1.0
C      1  0.5069570000000  0.5518560000000  0.4227940000000 1.0
C      1  0.4930430000000  0.5518560000000  0.5772060000000 1.0
C      1  0.4481440000000  0.5772060000000  0.5069570000000 1.0
C      1  0.4481440000000  0.4227940000000  0.4930430000000 1.0
C      1  0.5518560000000  0.4227940000000  0.5069570000000 1.0
C      1  0.5417410000000  0.4594910000000  0.4922870000000 1.0
C      1  0.4594910000000  0.4922870000000  0.5417410000000 1.0
C      1  0.4922870000000  0.5417410000000  0.4594910000000 1.0
C      1  0.4582590000000  0.4594910000000  0.5077130000000 1.0
C      1  0.4582590000000  0.5405090000000  0.4922870000000 1.0
C      1  0.5417410000000  0.5405090000000  0.5077130000000 1.0
C      1  0.5405090000000  0.4922870000000  0.4582590000000 1.0
C      1  0.5405090000000  0.5077130000000  0.5417410000000 1.0
C      1  0.4594910000000  0.5077130000000  0.4582590000000 1.0
C      1  0.5077130000000  0.5417410000000  0.5405090000000 1.0
C      1  0.5077130000000  0.4582590000000  0.4594910000000 1.0
C      1  0.4922870000000  0.4582590000000  0.5405090000000 1.0
C      1  0.5417410000000  0.5405090000000  0.4922870000000 1.0
C      1  0.4594910000000  0.5077130000000  0.5417410000000 1.0
C      1  0.4922870000000  0.4582590000000  0.4594910000000 1.0
C      1  0.4582590000000  0.5405090000000  0.5077130000000 1.0
C      1  0.4582590000000  0.4594910000000  0.4922870000000 1.0
C      1  0.5417410000000  0.4594910000000  0.5077130000000 1.0
C      1  0.5405090000000  0.5077130000000  0.4582590000000 1.0
C      1  0.5405090000000  0.4922870000000  0.5417410000000 1.0
C      1  0.4594910000000  0.4922870000000  0.4582590000000 1.0
C      1  0.5077130000000  0.4582590000000  0.5405090000000 1.0
C      1  0.5077130000000  0.5417410000000  0.4594910000000 1.0
C      1  0.4922870000000  0.5417410000000  0.5405090000000 1.0
C      1  0.5411830000000  0.5155210000000  0.5164400000000 1.0
C      1  0.5155210000000  0.5164400000000  0.5411830000000 1.0
C      1  0.5164400000000  0.5411830000000  0.5155210000000 1.0
C      1  0.4588170000000  0.5155210000000  0.4835600000000 1.0
C      1  0.4588170000000  0.4844790000000  0.5164400000000 1.0
C      1  0.5411830000000  0.4844790000000  0.4835600000000 1.0
C      1  0.4844790000000  0.5164400000000  0.4588170000000 1.0
C      1  0.4844790000000  0.4835600000000  0.5411830000000 1.0
C      1  0.5155210000000  0.4835600000000  0.4588170000000 1.0
C      1  0.4835600000000  0.5411830000000  0.4844790000000 1.0
C      1  0.4835600000000  0.4588170000000  0.5155210000000 1.0
C      1  0.5164400000000  0.4588170000000  0.4844790000000 1.0
C      1  0.5411830000000  0.4844790000000  0.5164400000000 1.0
C      1  0.5155210000000  0.4835600000000  0.5411830000000 1.0
C      1  0.5164400000000  0.4588170000000  0.5155210000000 1.0
C      1  0.4588170000000  0.4844790000000  0.4835600000000 1.0
C      1  0.4588170000000  0.5155210000000  0.5164400000000 1.0
C      1  0.5411830000000  0.5155210000000  0.4835600000000 1.0
C      1  0.4844790000000  0.4835600000000  0.4588170000000 1.0
C      1  0.4844790000000  0.5164400000000  0.5411830000000 1.0
C      1  0.5155210000000  0.5164400000000  0.4588170000000 1.0
C      1  0.4835600000000  0.4588170000000  0.4844790000000 1.0
C      1  0.4835600000000  0.5411830000000  0.5155210000000 1.0
C      1  0.5164400000000  0.5411830000000  0.4844790000000 1.0
C      1  0.4927050000000  0.4540820000000  0.4451260000000 1.0
C      1  0.4540820000000  0.4451260000000  0.4927050000000 1.0
C      1  0.4451260000000  0.4927050000000  0.4540820000000 1.0
C      1  0.5072950000000  0.4540820000000  0.5548740000000 1.0
C      1  0.5072950000000  0.5459180000000  0.4451260000000 1.0
C      1  0.4927050000000  0.5459180000000  0.5548740000000 1.0
C      1  0.5459180000000  0.4451260000000  0.5072950000000 1.0
C      1  0.5459180000000  0.5548740000000  0.4927050000000 1.0
C      1  0.4540820000000  0.5548740000000  0.5072950000000 1.0
C      1  0.5548740000000  0.4927050000000  0.5459180000000 1.0
C      1  0.5548740000000  0.5072950000000  0.4540820000000 1.0
C      1  0.4451260000000  0.5072950000000  0.5459180000000 1.0
C      1  0.4927050000000  0.5459180000000  0.4451260000000 1.0
C      1  0.4540820000000  0.5548740000000  0.4927050000000 1.0
C      1  0.4451260000000  0.5072950000000  0.4540820000000 1.0
C      1  0.5072950000000  0.5459180000000  0.5548740000000 1.0
C      1  0.5072950000000  0.4540820000000  0.4451260000000 1.0
C      1  0.4927050000000  0.4540820000000  0.5548740000000 1.0
C      1  0.5459180000000  0.5548740000000  0.5072950000000 1.0
C      1  0.5459180000000  0.4451260000000  0.4927050000000 1.0
C      1  0.4540820000000  0.4451260000000  0.5072950000000 1.0
C      1  0.5548740000000  0.5072950000000  0.5459180000000 1.0
C      1  0.5548740000000  0.4927050000000  0.4540820000000 1.0
C      1  0.4451260000000  0.4927050000000  0.5459180000000 1.0
C      1  0.4864110000000  0.5640440000000  0.5741880000000 1.0
C      1  0.5640440000000  0.5741880000000  0.4864110000000 1.0
C      1  0.5741880000000  0.4864110000000  0.5640440000000 1.0
C      1  0.5135890000000  0.5640440000000  0.4258120000000 1.0
C      1  0.5135890000000  0.4359560000000  0.5741880000000 1.0
C      1  0.4864110000000  0.4359560000000  0.4258120000000 1.0
C      1  0.4359560000000  0.5741880000000  0.5135890000000 1.0
C      1  0.4359560000000  0.4258120000000  0.4864110000000 1.0
C      1  0.5640440000000  0.4258120000000  0.5135890000000 1.0
C      1  0.4258120000000  0.4864110000000  0.4359560000000 1.0
C      1  0.4258120000000  0.5135890000000  0.5640440000000 1.0
C      1  0.5741880000000  0.5135890000000  0.4359560000000 1.0
C      1  0.4864110000000  0.4359560000000  0.5741880000000 1.0
C      1  0.5640440000000  0.4258120000000  0.4864110000000 1.0
C      1  0.5741880000000  0.5135890000000  0.5640440000000 1.0
C      1  0.5135890000000  0.4359560000000  0.4258120000000 1.0
C      1  0.5135890000000  0.5640440000000  0.5741880000000 1.0
C      1  0.4864110000000  0.5640440000000  0.4258120000000 1.0
C      1  0.4359560000000  0.4258120000000  0.5135890000000 1.0
C      1  0.4359560000000  0.5741880000000  0.4864110000000 1.0
C      1  0.5640440000000  0.5741880000000  0.5135890000000 1.0
C      1  0.4258120000000  0.5135890000000  0.4359560000000 1.0
C      1  0.4258120000000  0.4864110000000  0.5640440000000 1.0
C      1  0.5741880000000  0.4864110000000  0.4359560000000 1.0
C      1  0.5152580000000  0.5753740000000  0.4470370000000 1.0
C      1  0.5753740000000  0.4470370000000  0.5152580000000 1.0
C      1  0.4470370000000  0.5152580000000  0.5753740000000 1.0
C      1  0.4847420000000  0.5753740000000  0.5529630000000 1.0
C      1  0.4847420000000  0.4246260000000  0.4470370000000 1.0
C      1  0.5152580000000  0.4246260000000  0.5529630000000 1.0
C      1  0.4246260000000  0.4470370000000  0.4847420000000 1.0
C      1  0.4246260000000  0.5529630000000  0.5152580000000 1.0
C      1  0.5753740000000  0.5529630000000  0.4847420000000 1.0
C      1  0.5529630000000  0.5152580000000  0.4246260000000 1.0
C      1  0.5529630000000  0.4847420000000  0.5753740000000 1.0
C      1  0.4470370000000  0.4847420000000  0.4246260000000 1.0
C      1  0.5152580000000  0.4246260000000  0.4470370000000 1.0
C      1  0.5753740000000  0.5529630000000  0.5152580000000 1.0
C      1  0.4470370000000  0.4847420000000  0.5753740000000 1.0
C      1  0.4847420000000  0.4246260000000  0.5529630000000 1.0
C      1  0.4847420000000  0.5753740000000  0.4470370000000 1.0
C      1  0.5152580000000  0.5753740000000  0.5529630000000 1.0
C      1  0.4246260000000  0.5529630000000  0.4847420000000 1.0
C      1  0.4246260000000  0.4470370000000  0.5152580000000 1.0
C      1  0.5753740000000  0.4470370000000  0.4847420000000 1.0
C      1  0.5529630000000  0.4847420000000  0.4246260000000 1.0
C      1  0.5529630000000  0.5152580000000  0.5753740000000 1.0
C      1  0.4470370000000  0.5152580000000  0.4246260000000 1.0
C      1  0.4672380000000  0.4680830000000  0.4283270000000 1.0
C      1  0.4680830000000  0.4283270000000  0.4672380000000 1.0
C      1  0.4283270000000  0.4672380000000  0.4680830000000 1.0
C      1  0.5327620000000  0.4680830000000  0.5716730000000 1.0
C      1  0.5327620000000  0.5319170000000  0.4283270000000 1.0
C      1  0.4672380000000  0.5319170000000  0.5716730000000 1.0
C      1  0.5319170000000  0.4283270000000  0.5327620000000 1.0
C      1  0.5319170000000  0.5716730000000  0.4672380000000 1.0
C      1  0.4680830000000  0.5716730000000  0.5327620000000 1.0
C      1  0.5716730000000  0.4672380000000  0.5319170000000 1.0
C      1  0.5716730000000  0.5327620000000  0.4680830000000 1.0
C      1  0.4283270000000  0.5327620000000  0.5319170000000 1.0
C      1  0.4672380000000  0.5319170000000  0.4283270000000 1.0
C      1  0.4680830000000  0.5716730000000  0.4672380000000 1.0
C      1  0.4283270000000  0.5327620000000  0.4680830000000 1.0
C      1  0.5327620000000  0.5319170000000  0.5716730000000 1.0
C      1  0.5327620000000  0.4680830000000  0.4283270000000 1.0
C      1  0.4672380000000  0.4680830000000  0.5716730000000 1.0
C      1  0.5319170000000  0.5716730000000  0.5327620000000 1.0
C      1  0.5319170000000  0.4283270000000  0.4672380000000 1.0
C      1  0.4680830000000  0.4283270000000  0.5327620000000 1.0
C      1  0.5716730000000  0.5327620000000  0.5319170000000 1.0
C      1  0.5716730000000  0.4672380000000  0.4680830000000 1.0
C      1  0.4283270000000  0.4672380000000  0.5319170000000 1.0
C      1  0.4929680000000  0.5817130000000  0.4577470000000 1.0
C      1  0.5817130000000  0.4577470000000  0.4929680000000 1.0
C      1  0.4577470000000  0.4929680000000  0.5817130000000 1.0
C      1  0.5070320000000  0.5817130000000  0.5422530000000 1.0
C      1  0.5070320000000  0.4182870000000  0.4577470000000 1.0
C      1  0.4929680000000  0.4182870000000  0.5422530000000 1.0
C      1  0.4182870000000  0.4577470000000  0.5070320000000 1.0
C      1  0.4182870000000  0.5422530000000  0.4929680000000 1.0
C      1  0.5817130000000  0.5422530000000  0.5070320000000 1.0
C      1  0.5422530000000  0.4929680000000  0.4182870000000 1.0
C      1  0.5422530000000  0.5070320000000  0.5817130000000 1.0
C      1  0.4577470000000  0.5070320000000  0.4182870000000 1.0
C      1  0.4929680000000  0.4182870000000  0.4577470000000 1.0
C      1  0.5817130000000  0.5422530000000  0.4929680000000 1.0
C      1  0.4577470000000  0.5070320000000  0.5817130000000 1.0
C      1  0.5070320000000  0.4182870000000  0.5422530000000 1.0
C      1  0.5070320000000  0.5817130000000  0.4577470000000 1.0
C      1  0.4929680000000  0.5817130000000  0.5422530000000 1.0
C      1  0.4182870000000  0.5422530000000  0.5070320000000 1.0
C      1  0.4182870000000  0.4577470000000  0.4929680000000 1.0
C      1  0.5817130000000  0.4577470000000  0.5070320000000 1.0
C      1  0.5422530000000  0.5070320000000  0.4182870000000 1.0
C      1  0.5422530000000  0.4929680000000  0.5817130000000 1.0
C      1  0.4577470000000  0.4929680000000  0.4182870000000 1.0
C      1  0.4624440000000  0.4368170000000  0.5530160000000 1.0
C      1  0.4368170000000  0.5530160000000  0.4624440000000 1.0
C      1  0.5530160000000  0.4624440000000  0.4368170000000 1.0
C      1  0.5375560000000  0.4368170000000  0.4469840000000 1.0
C      1  0.5375560000000  0.5631830000000  0.5530160000000 1.0
C      1  0.4624440000000  0.5631830000000  0.4469840000000 1.0
C      1  0.5631830000000  0.5530160000000  0.5375560000000 1.0
C      1  0.5631830000000  0.4469840000000  0.4624440000000 1.0
C      1  0.4368170000000  0.4469840000000  0.5375560000000 1.0
C      1  0.4469840000000  0.4624440000000  0.5631830000000 1.0
C      1  0.4469840000000  0.5375560000000  0.4368170000000 1.0
C      1  0.5530160000000  0.5375560000000  0.5631830000000 1.0
C      1  0.4624440000000  0.5631830000000  0.5530160000000 1.0
C      1  0.4368170000000  0.4469840000000  0.4624440000000 1.0
C      1  0.5530160000000  0.5375560000000  0.4368170000000 1.0
C      1  0.5375560000000  0.5631830000000  0.4469840000000 1.0
C      1  0.5375560000000  0.4368170000000  0.5530160000000 1.0
C      1  0.4624440000000  0.4368170000000  0.4469840000000 1.0
C      1  0.5631830000000  0.4469840000000  0.5375560000000 1.0
C      1  0.5631830000000  0.5530160000000  0.4624440000000 1.0
C      1  0.4368170000000  0.5530160000000  0.5375560000000 1.0
C      1  0.4469840000000  0.5375560000000  0.5631830000000 1.0
C      1  0.4469840000000  0.4624440000000  0.4368170000000 1.0
C      1  0.5530160000000  0.4624440000000  0.5631830000000 1.0
C      1  0.4562830000000  0.5699710000000  0.4587450000000 1.0
C      1  0.5699710000000  0.4587450000000  0.4562830000000 1.0
C      1  0.4587450000000  0.4562830000000  0.5699710000000 1.0
C      1  0.5437170000000  0.5699710000000  0.5412550000000 1.0
C      1  0.5437170000000  0.4300290000000  0.4587450000000 1.0
C      1  0.4562830000000  0.4300290000000  0.5412550000000 1.0
C      1  0.4300290000000  0.4587450000000  0.5437170000000 1.0
C      1  0.4300290000000  0.5412550000000  0.4562830000000 1.0
C      1  0.5699710000000  0.5412550000000  0.5437170000000 1.0
C      1  0.5412550000000  0.4562830000000  0.4300290000000 1.0
C      1  0.5412550000000  0.5437170000000  0.5699710000000 1.0
C      1  0.4587450000000  0.5437170000000  0.4300290000000 1.0
C      1  0.4562830000000  0.4300290000000  0.4587450000000 1.0
C      1  0.5699710000000  0.5412550000000  0.4562830000000 1.0
C      1  0.4587450000000  0.5437170000000  0.5699710000000 1.0
C      1  0.5437170000000  0.4300290000000  0.5412550000000 1.0
C      1  0.5437170000000  0.5699710000000  0.4587450000000 1.0
C      1  0.4562830000000  0.5699710000000  0.5412550000000 1.0
C      1  0.4300290000000  0.5412550000000  0.5437170000000 1.0
C      1  0.4300290000000  0.4587450000000  0.4562830000000 1.0
C      1  0.5699710000000  0.4587450000000  0.5437170000000 1.0
C      1  0.5412550000000  0.5437170000000  0.4300290000000 1.0
C      1  0.5412550000000  0.4562830000000  0.5699710000000 1.0
C      1  0.4587450000000  0.4562830000000  0.4300290000000 1.0
C      1  0.4625690000000  0.4926410000000  0.5272400000000 1.0
C      1  0.4926410000000  0.5272400000000  0.4625690000000 1.0
C      1  0.5272400000000  0.4625690000000  0.4926410000000 1.0
C      1  0.5374310000000  0.4926410000000  0.4727600000000 1.0
C      1  0.5374310000000  0.5073590000000  0.5272400000000 1.0
C      1  0.4625690000000  0.5073590000000  0.4727600000000 1.0
C      1  0.5073590000000  0.5272400000000  0.5374310000000 1.0
C      1  0.5073590000000  0.4727600000000  0.4625690000000 1.0
C      1  0.4926410000000  0.4727600000000  0.5374310000000 1.0
C      1  0.4727600000000  0.4625690000000  0.5073590000000 1.0
C      1  0.4727600000000  0.5374310000000  0.4926410000000 1.0
C      1  0.5272400000000  0.5374310000000  0.5073590000000 1.0
C      1  0.4625690000000  0.5073590000000  0.5272400000000 1.0
C      1  0.4926410000000  0.4727600000000  0.4625690000000 1.0
C      1  0.5272400000000  0.5374310000000  0.4926410000000 1.0
C      1  0.5374310000000  0.5073590000000  0.4727600000000 1.0
C      1  0.5374310000000  0.4926410000000  0.5272400000000 1.0
C      1  0.4625690000000  0.4926410000000  0.4727600000000 1.0
C      1  0.5073590000000  0.4727600000000  0.5374310000000 1.0
C      1  0.5073590000000  0.5272400000000  0.4625690000000 1.0
C      1  0.4926410000000  0.5272400000000  0.5374310000000 1.0
C      1  0.4727600000000  0.5374310000000  0.5073590000000 1.0
C      1  0.4727600000000  0.4625690000000  0.4926410000000 1.0
C      1  0.5272400000000  0.4625690000000  0.5073590000000 1.0
C      1  0.5282680000000  0.5736820000000  0.4407240000000 1.0
C      1  0.5736820000000  0.4407240000000  0.5282680000000 1.0
C      1  0.4407240000000  0.5282680000000  0.5736820000000 1.0
C      1  0.4717320000000  0.5736820000000  0.5592760000000 1.0
C      1  0.4717320000000  0.4263180000000  0.4407240000000 1.0
C      1  0.5282680000000  0.4263180000000  0.5592760000000 1.0
C      1  0.4263180000000  0.4407240000000  0.4717320000000 1.0
C      1  0.4263180000000  0.5592760000000  0.5282680000000 1.0
C      1  0.5736820000000  0.5592760000000  0.4717320000000 1.0
C      1  0.5592760000000  0.5282680000000  0.4263180000000 1.0
C      1  0.5592760000000  0.4717320000000  0.5736820000000 1.0
C      1  0.4407240000000  0.4717320000000  0.4263180000000 1.0
C      1  0.5282680000000  0.4263180000000  0.4407240000000 1.0
C      1  0.5736820000000  0.5592760000000  0.5282680000000 1.0
C      1  0.4407240000000  0.4717320000000  0.5736820000000 1.0
C      1  0.4717320000000  0.4263180000000  0.5592760000000 1.0
C      1  0.4717320000000  0.5736820000000  0.4407240000000 1.0
C      1  0.5282680000000  0.5736820000000  0.5592760000000 1.0
C      1  0.4263180000000  0.5592760000000  0.4717320000000 1.0
C      1  0.4263180000000  0.4407240000000  0.5282680000000 1.0
C      1  0.5736820000000  0.4407240000000  0.4717320000000 1.0
C      1  0.5592760000000  0.4717320000000  0.4263180000000 1.0
C      1  0.5592760000000  0.5282680000000  0.5736820000000 1.0
C      1  0.4407240000000  0.5282680000000  0.4263180000000 1.0
C      1  0.4699880000000  0.5175420000000  0.4593370000000 1.0
C      1  0.5175420000000  0.4593370000000  0.4699880000000 1.0
C      1  0.4593370000000  0.4699880000000  0.5175420000000 1.0
C      1  0.5300120000000  0.5175420000000  0.5406630000000 1.0
C      1  0.5300120000000  0.4824580000000  0.4593370000000 1.0
C      1  0.4699880000000  0.4824580000000  0.5406630000000 1.0
C      1  0.4824580000000  0.4593370000000  0.5300120000000 1.0
C      1  0.4824580000000  0.5406630000000  0.4699880000000 1.0
C      1  0.5175420000000  0.5406630000000  0.5300120000000 1.0
C      1  0.5406630000000  0.4699880000000  0.4824580000000 1.0
C      1  0.5406630000000  0.5300120000000  0.5175420000000 1.0
C      1  0.4593370000000  0.5300120000000  0.4824580000000 1.0
C      1  0.4699880000000  0.4824580000000  0.4593370000000 1.0
C      1  0.5175420000000  0.5406630000000  0.4699880000000 1.0
C      1  0.4593370000000  0.5300120000000  0.5175420000000 1.0
C      1  0.5300120000000  0.4824580000000  0.5406630000000 1.0
C      1  0.5300120000000  0.5175420000000  0.4593370000000 1.0
C      1  0.4699880000000  0.5175420000000  0.5406630000000 1.0
C      1  0.4824580000000  0.5406630000000  0.5300120000000 1.0
C      1  0.4824580000000  0.4593370000000  0.4699880000000 1.0
C      1  0.5175420000000  0.4593370000000  0.5300120000000 1.0
C      1  0.5406630000000  0.5300120000000  0.4824580000000 1.0
C      1  0.5406630000000  0.4699880000000  0.5175420000000 1.0
C      1  0.4593370000000  0.4699880000000  0.4824580000000 1.0
C      1  0.5395020000000  0.4803980000000  0.5664870000000 1.0
C      1  0.4803980000000  0.5664870000000  0.5395020000000 1.0
C      1  0.5664870000000  0.5395020000000  0.4803980000000 1.0
C      1  0.4604980000000  0.4803980000000  0.4335130000000 1.0
C      1  0.4604980000000  0.5196020000000  0.5664870000000 1.0
C      1  0.5395020000000  0.5196020000000  0.4335130000000 1.0
C      1  0.5196020000000  0.5664870000000  0.4604980000000 1.0
C      1  0.5196020000000  0.4335130000000  0.5395020000000 1.0
C      1  0.4803980000000  0.4335130000000  0.4604980000000 1.0
C      1  0.4335130000000  0.5395020000000  0.5196020000000 1.0
C      1  0.4335130000000  0.4604980000000  0.4803980000000 1.0
C      1  0.5664870000000  0.4604980000000  0.5196020000000 1.0
C      1  0.5395020000000  0.5196020000000  0.5664870000000 1.0
C      1  0.4803980000000  0.4335130000000  0.5395020000000 1.0
C      1  0.5664870000000  0.4604980000000  0.4803980000000 1.0
C      1  0.4604980000000  0.5196020000000  0.4335130000000 1.0
C      1  0.4604980000000  0.4803980000000  0.5664870000000 1.0
C      1  0.5395020000000  0.4803980000000  0.4335130000000 1.0
C      1  0.5196020000000  0.4335130000000  0.4604980000000 1.0
C      1  0.5196020000000  0.5664870000000  0.5395020000000 1.0
C      1  0.4803980000000  0.5664870000000  0.4604980000000 1.0
C      1  0.4335130000000  0.4604980000000  0.5196020000000 1.0
C      1  0.4335130000000  0.5395020000000  0.4803980000000 1.0
C      1  0.5664870000000  0.5395020000000  0.5196020000000 1.0
C      1  0.5723200000000  0.5174770000000  0.4851170000000 1.0
C      1  0.5174770000000  0.4851170000000  0.5723200000000 1.0
C      1  0.4851170000000  0.5723200000000  0.5174770000000 1.0
C      1  0.4276800000000  0.5174770000000  0.5148830000000 1.0
C      1  0.4276800000000  0.4825230000000  0.4851170000000 1.0
C      1  0.5723200000000  0.4825230000000  0.5148830000000 1.0
C      1  0.4825230000000  0.4851170000000  0.4276800000000 1.0
C      1  0.4825230000000  0.5148830000000  0.5723200000000 1.0
C      1  0.5174770000000  0.5148830000000  0.4276800000000 1.0
C      1  0.5148830000000  0.5723200000000  0.4825230000000 1.0
C      1  0.5148830000000  0.4276800000000  0.5174770000000 1.0
C      1  0.4851170000000  0.4276800000000  0.4825230000000 1.0
C      1  0.5723200000000  0.4825230000000  0.4851170000000 1.0
C      1  0.5174770000000  0.5148830000000  0.5723200000000 1.0
C      1  0.4851170000000  0.4276800000000  0.5174770000000 1.0
C      1  0.4276800000000  0.4825230000000  0.5148830000000 1.0
C      1  0.4276800000000  0.5174770000000  0.4851170000000 1.0
C      1  0.5723200000000  0.5174770000000  0.5148830000000 1.0
C      1  0.4825230000000  0.5148830000000  0.4276800000000 1.0
C      1  0.4825230000000  0.4851170000000  0.5723200000000 1.0
C      1  0.5174770000000  0.4851170000000  0.4276800000000 1.0
C      1  0.5148830000000  0.4276800000000  0.4825230000000 1.0
C      1  0.5148830000000  0.5723200000000  0.5174770000000 1.0
C      1  0.4851170000000  0.5723200000000  0.4825230000000 1.0
C      1  0.5645030000000  0.5068860000000  0.4276200000000 1.0
C      1  0.5068860000000  0.4276200000000  0.5645030000000 1.0
C      1  0.4276200000000  0.5645030000000  0.5068860000000 1.0
C      1  0.4354970000000  0.5068860000000  0.5723800000000 1.0
C      1  0.4354970000000  0.4931140000000  0.4276200000000 1.0
C      1  0.5645030000000  0.4931140000000  0.5723800000000 1.0
C      1  0.4931140000000  0.4276200000000  0.4354970000000 1.0
C      1  0.4931140000000  0.5723800000000  0.5645030000000 1.0
C      1  0.5068860000000  0.5723800000000  0.4354970000000 1.0
C      1  0.5723800000000  0.5645030000000  0.4931140000000 1.0
C      1  0.5723800000000  0.4354970000000  0.5068860000000 1.0
C      1  0.4276200000000  0.4354970000000  0.4931140000000 1.0
C      1  0.5645030000000  0.4931140000000  0.4276200000000 1.0
C      1  0.5068860000000  0.5723800000000  0.5645030000000 1.0
C      1  0.4276200000000  0.4354970000000  0.5068860000000 1.0
C      1  0.4354970000000  0.4931140000000  0.5723800000000 1.0
C      1  0.4354970000000  0.5068860000000  0.4276200000000 1.0
C      1  0.5645030000000  0.5068860000000  0.5723800000000 1.0
C      1  0.4931140000000  0.5723800000000  0.4354970000000 1.0
C      1  0.4931140000000  0.4276200000000  0.5645030000000 1.0
C      1  0.5068860000000  0.4276200000000  0.4354970000000 1.0
C      1  0.5723800000000  0.4354970000000  0.4931140000000 1.0
C      1  0.5723800000000  0.5645030000000  0.5068860000000 1.0
C      1  0.4276200000000  0.5645030000000  0.4931140000000 1.0
C      1  0.5077370000000  0.4927120000000  0.4504670000000 1.0
C      1  0.4927120000000  0.4504670000000  0.5077370000000 1.0
C      1  0.4504670000000  0.5077370000000  0.4927120000000 1.0
C      1  0.4922630000000  0.4927120000000  0.5495330000000 1.0
C      1  0.4922630000000  0.5072880000000  0.4504670000000 1.0
C      1  0.5077370000000  0.5072880000000  0.5495330000000 1.0
C      1  0.5072880000000  0.4504670000000  0.4922630000000 1.0
C      1  0.5072880000000  0.5495330000000  0.5077370000000 1.0
C      1  0.4927120000000  0.5495330000000  0.4922630000000 1.0
C      1  0.5495330000000  0.5077370000000  0.5072880000000 1.0
C      1  0.5495330000000  0.4922630000000  0.4927120000000 1.0
C      1  0.4504670000000  0.4922630000000  0.5072880000000 1.0
C      1  0.5077370000000  0.5072880000000  0.4504670000000 1.0
C      1  0.4927120000000  0.5495330000000  0.5077370000000 1.0
C      1  0.4504670000000  0.4922630000000  0.4927120000000 1.0
C      1  0.4922630000000  0.5072880000000  0.5495330000000 1.0
C      1  0.4922630000000  0.4927120000000  0.4504670000000 1.0
C      1  0.5077370000000  0.4927120000000  0.5495330000000 1.0
C      1  0.5072880000000  0.5495330000000  0.4922630000000 1.0
C      1  0.5072880000000  0.4504670000000  0.5077370000000 1.0
C      1  0.4927120000000  0.4504670000000  0.4922630000000 1.0
C      1  0.5495330000000  0.4922630000000  0.5072880000000 1.0
C      1  0.5495330000000  0.5077370000000  0.4927120000000 1.0
C      1  0.4504670000000  0.5077370000000  0.5072880000000 1.0
C      1  0.5393160000000  0.4313800000000  0.4911720000000 1.0
C      1  0.4313800000000  0.4911720000000  0.5393160000000 1.0
C      1  0.4911720000000  0.5393160000000  0.4313800000000 1.0
C      1  0.4606840000000  0.4313800000000  0.5088280000000 1.0
C      1  0.4606840000000  0.5686200000000  0.4911720000000 1.0
C      1  0.5393160000000  0.5686200000000  0.5088280000000 1.0
C      1  0.5686200000000  0.4911720000000  0.4606840000000 1.0
C      1  0.5686200000000  0.5088280000000  0.5393160000000 1.0
C      1  0.4313800000000  0.5088280000000  0.4606840000000 1.0
C      1  0.5088280000000  0.5393160000000  0.5686200000000 1.0
C      1  0.5088280000000  0.4606840000000  0.4313800000000 1.0
C      1  0.4911720000000  0.4606840000000  0.5686200000000 1.0
C      1  0.5393160000000  0.5686200000000  0.4911720000000 1.0
C      1  0.4313800000000  0.5088280000000  0.5393160000000 1.0
C      1  0.4911720000000  0.4606840000000  0.4313800000000 1.0
C      1  0.4606840000000  0.5686200000000  0.5088280000000 1.0
C      1  0.4606840000000  0.4313800000000  0.4911720000000 1.0
C      1  0.5393160000000  0.4313800000000  0.5088280000000 1.0
C      1  0.5686200000000  0.5088280000000  0.4606840000000 1.0
C      1  0.5686200000000  0.4911720000000  0.5393160000000 1.0
C      1  0.4313800000000  0.4911720000000  0.4606840000000 1.0
C      1  0.5088280000000  0.4606840000000  0.5686200000000 1.0
C      1  0.5088280000000  0.5393160000000  0.4313800000000 1.0
C      1  0.4911720000000  0.5393160000000  0.5686200000000 1.0
C      1  0.5723560000000  0.5188030000000  0.5291790000000 1.0
C      1  0.5188030000000  0.5291790000000  0.5723560000000 1.0
C      1  0.5291790000000  0.5723560000000  0.5188030000000 1.0
C      1  0.4276440000000  0.5188030000000  0.4708210000000 1.0
C      1  0.4276440000000  0.4811970000000  0.5291790000000 1.0
C      1  0.5723560000000  0.4811970000000  0.4708210000000 1.0
C      1  0.4811970000000  0.5291790000000  0.4276440000000 1.0
C      1  0.4811970000000  0.4708210000000  0.5723560000000 1.0
C      1  0.5188030000000  0.4708210000000  0.4276440000000 1.0
C      1  0.4708210000000  0.5723560000000  0.4811970000000 1.0
C      1  0.4708210000000  0.4276440000000  0.5188030000000 1.0
C      1  0.5291790000000  0.4276440000000  0.4811970000000 1.0
C      1  0.5723560000000  0.4811970000000  0.5291790000000 1.0
C      1  0.5188030000000  0.4708210000000  0.5723560000000 1.0
C      1  0.5291790000000  0.4276440000000  0.5188030000000 1.0
C      1  0.4276440000000  0.4811970000000  0.4708210000000 1.0
C      1  0.4276440000000  0.5188030000000  0.5291790000000 1.0
C      1  0.5723560000000  0.5188030000000  0.4708210000000 1.0
C      1  0.4811970000000  0.4708210000000  0.4276440000000 1.0
C      1  0.4811970000000  0.5291790000000  0.5723560000000 1.0
C      1  0.5188030000000  0.5291790000000  0.4276440000000 1.0
C      1  0.4708210000000  0.4276440000000  0.4811970000000 1.0
C      1  0.4708210000000  0.5723560000000  0.5188030000000 1.0
C      1  0.5291790000000  0.5723560000000  0.4811970000000 1.0
C      1  0.4926220000000  0.5076080000000  0.4347790000000 1.0
C      1  0.5076080000000  0.4347790000000  0.4926220000000 1.0
C      1  0.4347790000000  0.4926220000000  0.5076080000000 1.0
C      1  0.5073780000000  0.5076080000000  0.5652210000000 1.0
C      1  0.5073780000000  0.4923920000000  0.4347790000000 1.0
C      1  0.4926220000000  0.4923920000000  0.5652210000000 1.0
C      1  0.4923920000000  0.4347790000000  0.5073780000000 1.0
C      1  0.4923920000000  0.5652210000000  0.4926220000000 1.0
C      1  0.5076080000000  0.5652210000000  0.5073780000000 1.0
C      1  0.5652210000000  0.4926220000000  0.4923920000000 1.0
C      1  0.5652210000000  0.5073780000000  0.5076080000000 1.0
C      1  0.4347790000000  0.5073780000000  0.4923920000000 1.0
C      1  0.4926220000000  0.4923920000000  0.4347790000000 1.0
C      1  0.5076080000000  0.5652210000000  0.4926220000000 1.0
C      1  0.4347790000000  0.5073780000000  0.5076080000000 1.0
C      1  0.5073780000000  0.4923920000000  0.5652210000000 1.0
C      1  0.5073780000000  0.5076080000000  0.4347790000000 1.0
C      1  0.4926220000000  0.5076080000000  0.5652210000000 1.0
C      1  0.4923920000000  0.5652210000000  0.5073780000000 1.0
C      1  0.4923920000000  0.4347790000000  0.4926220000000 1.0
C      1  0.5076080000000  0.4347790000000  0.5073780000000 1.0
C      1  0.5652210000000  0.5073780000000  0.4923920000000 1.0
C      1  0.5652210000000  0.4926220000000  0.5076080000000 1.0
C      1  0.4347790000000  0.4926220000000  0.4923920000000 1.0
END
