TITL C-1379266-1300-209 -1.17239877211456e-06 1000000 -3628.90555125032 0 0 500 (C1) n - 1
REM
REM in /nfs/bkarasulu/CARBON/AIRSS/Generating-Clusters/GAP-ML-2020/Higher-Symm/Selected-Sizes/TryA-Only_Ih-Symm/Larger-Clusters/Try2-MINAMP_6A
REM
REM
REM
REM
REM
REM ./C.cell (31579ac4e95a012ec27f3239692ae8a5)
REM
REM compiler GCC version 9.2.1 20190827 (Red Hat 9.2.1-1)
REM options -cpp -mtune=generic -march=x86-64 -g -O0 -fpre-include=/usr/include/finclude/math-vector-fortran.h
REM seed 1176263950 -1434385081 -136010655 777592522 1327829845 1288746105 1909202627 -407257653 -1092223266 -1380100677 -190071459 -2021723315 -1494302649 -437726761 1032633537 -1616754443 693783154 -1010512737 -382468630 -1422059059 1411032687 457826078 -319791865 1826191692 1327522200 -1640437602 -19548034 -1169739480 1528420422 -1271099450 -1266493654 -286388080 2135598286
REM
CELL 1.54180  100.00000  100.00000  100.00000   90.00000   90.00000   90.00000
LATT -1
SFAC C  
C      1  0.5445810000000  0.4732590000000  0.4574200000000 1.0
C      1  0.4585190000000  0.5442540000000  0.4735060000000 1.0
C      1  0.4750700000000  0.4557210000000  0.5369650000000 1.0
C      1  0.4623530000000  0.4755730000000  0.5440410000000 1.0
C      1  0.5444840000000  0.5264600000000  0.5413360000000 1.0
C      1  0.4559690000000  0.5268690000000  0.4578930000000 1.0
C      1  0.5428740000000  0.5446090000000  0.5266910000000 1.0
C      1  0.4554270000000  0.4626900000000  0.5240400000000 1.0
C      1  0.5422220000000  0.4559860000000  0.4732240000000 1.0
C      1  0.5264760000000  0.4585990000000  0.4558900000000 1.0
C      1  0.4732730000000  0.5426480000000  0.4554340000000 1.0
C      1  0.5269480000000  0.5418780000000  0.5438350000000 1.0
C      1  0.5443580000000  0.5264940000000  0.4583630000000 1.0
C      1  0.4578910000000  0.4555270000000  0.4727890000000 1.0
C      1  0.4733990000000  0.5430300000000  0.5440320000000 1.0
C      1  0.4554580000000  0.5270710000000  0.5419820000000 1.0
C      1  0.5451220000000  0.4736680000000  0.5420700000000 1.0
C      1  0.4558500000000  0.4733360000000  0.4567320000000 1.0
C      1  0.5418040000000  0.4566270000000  0.5277100000000 1.0
C      1  0.4575180000000  0.5443430000000  0.5267690000000 1.0
C      1  0.5416220000000  0.5442830000000  0.4734460000000 1.0
C      1  0.5265090000000  0.5415440000000  0.4556930000000 1.0
C      1  0.4732010000000  0.4575120000000  0.4555720000000 1.0
C      1  0.5265320000000  0.4601750000000  0.5476760000000 1.0
C      1  0.4607080000000  0.5241800000000  0.4331900000000 1.0
C      1  0.4340770000000  0.4646810000000  0.5299770000000 1.0
C      1  0.5248060000000  0.4335720000000  0.4610350000000 1.0
C      1  0.5391750000000  0.5242240000000  0.5662210000000 1.0
C      1  0.4645970000000  0.4699180000000  0.5656450000000 1.0
C      1  0.5388310000000  0.4738740000000  0.4329060000000 1.0
C      1  0.5669180000000  0.4606790000000  0.4758060000000 1.0
C      1  0.4334700000000  0.5391310000000  0.4751620000000 1.0
C      1  0.5674180000000  0.5389230000000  0.5260220000000 1.0
C      1  0.4699210000000  0.4341520000000  0.5352770000000 1.0
C      1  0.5243360000000  0.5666230000000  0.5392680000000 1.0
C      1  0.4739010000000  0.5671420000000  0.4611810000000 1.0
C      1  0.4611310000000  0.4741730000000  0.4323750000000 1.0
C      1  0.4328320000000  0.5381930000000  0.5264250000000 1.0
C      1  0.5246230000000  0.5664530000000  0.4607330000000 1.0
C      1  0.5388810000000  0.4727910000000  0.5660090000000 1.0
C      1  0.4612190000000  0.5229590000000  0.5664270000000 1.0
C      1  0.5392630000000  0.5245960000000  0.4334760000000 1.0
C      1  0.5665540000000  0.5393050000000  0.4752290000000 1.0
C      1  0.4333870000000  0.4610920000000  0.4767950000000 1.0
C      1  0.5670090000000  0.4613420000000  0.5257010000000 1.0
C      1  0.4742970000000  0.5674270000000  0.5389210000000 1.0
C      1  0.5231610000000  0.4349760000000  0.5393530000000 1.0
C      1  0.4735750000000  0.4328510000000  0.4618140000000 1.0
C      1  0.5664000000000  0.4739320000000  0.4707420000000 1.0
C      1  0.4703750000000  0.5658060000000  0.4750060000000 1.0
C      1  0.4727150000000  0.4770400000000  0.5551400000000 1.0
C      1  0.4442510000000  0.4728450000000  0.5224710000000 1.0
C      1  0.5661520000000  0.5251040000000  0.5295560000000 1.0
C      1  0.4346290000000  0.5254370000000  0.4705540000000 1.0
C      1  0.5294130000000  0.5662450000000  0.5260310000000 1.0
C      1  0.4766820000000  0.4445590000000  0.5267490000000 1.0
C      1  0.5293730000000  0.4348140000000  0.4747360000000 1.0
C      1  0.5250100000000  0.4703560000000  0.4342490000000 1.0
C      1  0.4739420000000  0.5292660000000  0.4336730000000 1.0
C      1  0.5255080000000  0.5288910000000  0.5649980000000 1.0
C      1  0.5656210000000  0.5254780000000  0.4708940000000 1.0
C      1  0.4701190000000  0.4342100000000  0.4757700000000 1.0
C      1  0.4741190000000  0.5289000000000  0.5657870000000 1.0
C      1  0.4341100000000  0.5242270000000  0.5298620000000 1.0
C      1  0.5666230000000  0.4746880000000  0.5297490000000 1.0
C      1  0.4339670000000  0.4739510000000  0.4707400000000 1.0
C      1  0.5291260000000  0.4352690000000  0.5264170000000 1.0
C      1  0.4700700000000  0.5661650000000  0.5256240000000 1.0
C      1  0.5289890000000  0.5655010000000  0.4745430000000 1.0
C      1  0.5254440000000  0.5289520000000  0.4344590000000 1.0
C      1  0.4744230000000  0.4699820000000  0.4337640000000 1.0
C      1  0.5253250000000  0.4680900000000  0.5619250000000 1.0
C      1  0.5752280000000  0.5047870000000  0.5592540000000 1.0
C      1  0.5598770000000  0.5754510000000  0.5085700000000 1.0
C      1  0.5050090000000  0.5585000000000  0.5745710000000 1.0
C      1  0.4253580000000  0.5047770000000  0.4409970000000 1.0
C      1  0.5754110000000  0.4912770000000  0.4401440000000 1.0
C      1  0.4278320000000  0.4875540000000  0.5586750000000 1.0
C      1  0.4406330000000  0.5748220000000  0.4952090000000 1.0
C      1  0.5587480000000  0.4256140000000  0.4955920000000 1.0
C      1  0.4412230000000  0.4278530000000  0.5124210000000 1.0
C      1  0.4913290000000  0.5597800000000  0.4246040000000 1.0
C      1  0.5048790000000  0.4405720000000  0.4252560000000 1.0
C      1  0.4874500000000  0.4411370000000  0.5723490000000 1.0
C      1  0.5758640000000  0.4911530000000  0.5605150000000 1.0
C      1  0.5596790000000  0.4254170000000  0.5092580000000 1.0
C      1  0.5012010000000  0.4411990000000  0.5729190000000 1.0
C      1  0.4251250000000  0.4911180000000  0.4399950000000 1.0
C      1  0.5750360000000  0.5049410000000  0.4412940000000 1.0
C      1  0.4274750000000  0.5012880000000  0.5585120000000 1.0
C      1  0.4414870000000  0.4275060000000  0.4986890000000 1.0
C      1  0.5586620000000  0.5750580000000  0.4949120000000 1.0
C      1  0.4393330000000  0.5752250000000  0.5088520000000 1.0
C      1  0.4912410000000  0.4392440000000  0.4248060000000 1.0
C      1  0.5049880000000  0.5586010000000  0.4249810000000 1.0
C      1  0.4913560000000  0.5595050000000  0.5748300000000 1.0
C      1  0.5074340000000  0.5182210000000  0.5894120000000 1.0
C      1  0.5907340000000  0.5074170000000  0.5192750000000 1.0
C      1  0.5237050000000  0.5872860000000  0.5052030000000 1.0
C      1  0.4948130000000  0.5236470000000  0.4126620000000 1.0
C      1  0.5072910000000  0.4803760000000  0.4096870000000 1.0
C      1  0.4945540000000  0.4755880000000  0.5850300000000 1.0
C      1  0.4100770000000  0.5071740000000  0.4809750000000 1.0
C      1  0.5874340000000  0.4948030000000  0.4762250000000 1.0
C      1  0.4144650000000  0.4944960000000  0.5243100000000 1.0
C      1  0.4804760000000  0.5902840000000  0.4927880000000 1.0
C      1  0.5189100000000  0.4103120000000  0.4930480000000 1.0
C      1  0.4756850000000  0.4145610000000  0.5056670000000 1.0
C      1  0.5073130000000  0.4797410000000  0.5882960000000 1.0
C      1  0.5876890000000  0.4949290000000  0.5242420000000 1.0
C      1  0.5235370000000  0.4135500000000  0.5056550000000 1.0
C      1  0.4947700000000  0.4754800000000  0.4127260000000 1.0
C      1  0.5073870000000  0.5187350000000  0.4097130000000 1.0
C      1  0.4948940000000  0.5231450000000  0.5864100000000 1.0
C      1  0.4131930000000  0.4946020000000  0.4762320000000 1.0
C      1  0.5903990000000  0.5074080000000  0.4810580000000 1.0
C      1  0.4107360000000  0.5070750000000  0.5198860000000 1.0
C      1  0.4800840000000  0.4108670000000  0.4930600000000 1.0
C      1  0.5187850000000  0.5902370000000  0.4926360000000 1.0
C      1  0.4755860000000  0.5872340000000  0.5053120000000 1.0
C      1  0.5070760000000  0.5505540000000  0.4782920000000 1.0
C      1  0.4808670000000  0.5099580000000  0.5476350000000 1.0
C      1  0.5521440000000  0.4785090000000  0.5073830000000 1.0
C      1  0.4927970000000  0.5521160000000  0.5216810000000 1.0
C      1  0.5096420000000  0.4518540000000  0.5189590000000 1.0
C      1  0.4928390000000  0.4482210000000  0.4768720000000 1.0
C      1  0.5217370000000  0.5070480000000  0.4494260000000 1.0
C      1  0.4782610000000  0.4927260000000  0.4478190000000 1.0
C      1  0.5225280000000  0.4924140000000  0.5503330000000 1.0
C      1  0.4519440000000  0.4810020000000  0.4898450000000 1.0
C      1  0.5507850000000  0.5217890000000  0.4928730000000 1.0
C      1  0.4481360000000  0.5231290000000  0.5070890000000 1.0
C      1  0.5073130000000  0.4495460000000  0.4780070000000 1.0
C      1  0.4816370000000  0.4955310000000  0.5464570000000 1.0
C      1  0.5518430000000  0.5228110000000  0.5072750000000 1.0
C      1  0.4952600000000  0.4534370000000  0.5175490000000 1.0
C      1  0.5074870000000  0.5513650000000  0.5208750000000 1.0
C      1  0.4926390000000  0.5514590000000  0.4774120000000 1.0
C      1  0.5226110000000  0.4926130000000  0.4485520000000 1.0
C      1  0.4790640000000  0.5074100000000  0.4485800000000 1.0
C      1  0.5218840000000  0.5070670000000  0.5497860000000 1.0
C      1  0.4494050000000  0.5220800000000  0.4926160000000 1.0
C      1  0.5515600000000  0.4790310000000  0.4926790000000 1.0
C      1  0.4530740000000  0.4819440000000  0.5042800000000 1.0
C      1  0.5518510000000  0.4933170000000  0.4725100000000 1.0
C      1  0.4740000000000  0.5505130000000  0.4930890000000 1.0
C      1  0.4924600000000  0.4724140000000  0.5499040000000 1.0
C      1  0.4496330000000  0.4934780000000  0.5271490000000 1.0
C      1  0.5508730000000  0.5071470000000  0.5257790000000 1.0
C      1  0.4501460000000  0.5072520000000  0.4731530000000 1.0
C      1  0.5276190000000  0.5517620000000  0.5066570000000 1.0
C      1  0.4724840000000  0.4499150000000  0.5063770000000 1.0
C      1  0.5268550000000  0.4503740000000  0.4928920000000 1.0
C      1  0.5068950000000  0.4740240000000  0.4494930000000 1.0
C      1  0.4933200000000  0.5275000000000  0.4482060000000 1.0
C      1  0.5073020000000  0.5265550000000  0.5495380000000 1.0
C      1  0.5505450000000  0.5069220000000  0.4738980000000 1.0
C      1  0.4737620000000  0.4502660000000  0.4924470000000 1.0
C      1  0.4938300000000  0.5286950000000  0.5513890000000 1.0
C      1  0.4499760000000  0.5074030000000  0.5260470000000 1.0
C      1  0.5523050000000  0.4936070000000  0.5272810000000 1.0
C      1  0.4483100000000  0.4937660000000  0.4709790000000 1.0
C      1  0.5287100000000  0.4488590000000  0.5064490000000 1.0
C      1  0.4726110000000  0.5517460000000  0.5066920000000 1.0
C      1  0.5261170000000  0.5504000000000  0.4930700000000 1.0
C      1  0.5069090000000  0.5260330000000  0.4495520000000 1.0
C      1  0.4932990000000  0.4726010000000  0.4482090000000 1.0
C      1  0.5063850000000  0.4733410000000  0.5495560000000 1.0
C      1  0.5372780000000  0.4572460000000  0.5139490000000 1.0
C      1  0.5140200000000  0.5349160000000  0.4576440000000 1.0
C      1  0.4580130000000  0.5153360000000  0.5343480000000 1.0
C      1  0.4654870000000  0.4582730000000  0.4845000000000 1.0
C      1  0.5350150000000  0.5423320000000  0.4859500000000 1.0
C      1  0.4630810000000  0.5440370000000  0.5135370000000 1.0
C      1  0.4867870000000  0.5379540000000  0.5434230000000 1.0
C      1  0.5141250000000  0.4648490000000  0.5419440000000 1.0
C      1  0.4864310000000  0.4630920000000  0.4559220000000 1.0
C      1  0.5424420000000  0.5140040000000  0.4650030000000 1.0
C      1  0.4563780000000  0.4867330000000  0.4617980000000 1.0
C      1  0.5445140000000  0.4868560000000  0.5367060000000 1.0
C      1  0.5371680000000  0.5440890000000  0.5135460000000 1.0
C      1  0.5140270000000  0.4652960000000  0.4577430000000 1.0
C      1  0.4586360000000  0.4885060000000  0.5370240000000 1.0
C      1  0.4652010000000  0.5423420000000  0.4859570000000 1.0
C      1  0.5358820000000  0.4582220000000  0.4858290000000 1.0
C      1  0.4626570000000  0.4589830000000  0.5112680000000 1.0
C      1  0.4878370000000  0.4628770000000  0.5403340000000 1.0
C      1  0.5144520000000  0.5354040000000  0.5415120000000 1.0
C      1  0.4864150000000  0.5369690000000  0.4559640000000 1.0
C      1  0.5440760000000  0.4864070000000  0.4630630000000 1.0
C      1  0.4582580000000  0.5143680000000  0.4643620000000 1.0
C      1  0.5425440000000  0.5141710000000  0.5344860000000 1.0
C      1  0.4414210000000  0.5156410000000  0.4820310000000 1.0
C      1  0.4842600000000  0.4446090000000  0.5140830000000 1.0
C      1  0.5156020000000  0.4823160000000  0.4407030000000 1.0
C      1  0.5596860000000  0.5158010000000  0.5175500000000 1.0
C      1  0.4443650000000  0.4857440000000  0.5153150000000 1.0
C      1  0.5597740000000  0.4849690000000  0.4817280000000 1.0
C      1  0.5179220000000  0.4416280000000  0.4844960000000 1.0
C      1  0.4823310000000  0.5593020000000  0.4844080000000 1.0
C      1  0.5184040000000  0.5596390000000  0.5150040000000 1.0
C      1  0.4853430000000  0.4845510000000  0.5550810000000 1.0
C      1  0.5156590000000  0.5175010000000  0.5581060000000 1.0
C      1  0.4849750000000  0.5183030000000  0.4402950000000 1.0
C      1  0.4411150000000  0.4853280000000  0.4805110000000 1.0
C      1  0.4817200000000  0.5596220000000  0.5151800000000 1.0
C      1  0.5154780000000  0.5173620000000  0.4409480000000 1.0
C      1  0.5600250000000  0.4850560000000  0.5181890000000 1.0
C      1  0.4410250000000  0.5155580000000  0.5175480000000 1.0
C      1  0.5591840000000  0.5155150000000  0.4825190000000 1.0
C      1  0.5174200000000  0.5590080000000  0.4845250000000 1.0
C      1  0.4823140000000  0.4412020000000  0.4844150000000 1.0
C      1  0.5192130000000  0.4414740000000  0.5147390000000 1.0
C      1  0.4853940000000  0.5191140000000  0.5585080000000 1.0
C      1  0.5153490000000  0.4818380000000  0.5575590000000 1.0
C      1  0.4848130000000  0.4816780000000  0.4403090000000 1.0
C      1  0.4545820000000  0.4238340000000  0.4943060000000 1.0
C      1  0.4860270000000  0.4523990000000  0.4211140000000 1.0
C      1  0.4214590000000  0.4858240000000  0.4531260000000 1.0
C      1  0.5464510000000  0.4220170000000  0.5145290000000 1.0
C      1  0.4525010000000  0.5788680000000  0.5140630000000 1.0
C      1  0.5448010000000  0.5777240000000  0.4913090000000 1.0
C      1  0.5057890000000  0.4544060000000  0.5764460000000 1.0
C      1  0.4860680000000  0.5463530000000  0.5784160000000 1.0
C      1  0.5086310000000  0.5447550000000  0.4222770000000 1.0
C      1  0.5796040000000  0.4861080000000  0.5472830000000 1.0
C      1  0.4237090000000  0.5057680000000  0.5454700000000 1.0
C      1  0.5777680000000  0.5086160000000  0.4551210000000 1.0
C      1  0.4544410000000  0.5777300000000  0.4916260000000 1.0
C      1  0.4860440000000  0.5466350000000  0.4210450000000 1.0
C      1  0.4225770000000  0.5084440000000  0.4548330000000 1.0
C      1  0.5467320000000  0.5789710000000  0.5138930000000 1.0
C      1  0.4540510000000  0.4233900000000  0.5175580000000 1.0
C      1  0.5449460000000  0.4228710000000  0.4918720000000 1.0
C      1  0.5086710000000  0.5446220000000  0.5772410000000 1.0
C      1  0.4824010000000  0.4540920000000  0.5765950000000 1.0
C      1  0.5084490000000  0.4543760000000  0.4223210000000 1.0
C      1  0.5781550000000  0.5085130000000  0.5454640000000 1.0
C      1  0.4233670000000  0.4824800000000  0.5458260000000 1.0
C      1  0.5789860000000  0.4860160000000  0.4532940000000 1.0
C      1  0.5056710000000  0.4205730000000  0.5278280000000 1.0
C      1  0.5297530000000  0.5065780000000  0.4188080000000 1.0
C      1  0.4190500000000  0.5290900000000  0.5075250000000 1.0
C      1  0.4924470000000  0.4191170000000  0.4710070000000 1.0
C      1  0.5066360000000  0.5811560000000  0.4702550000000 1.0
C      1  0.4922370000000  0.5812350000000  0.5281810000000 1.0
C      1  0.4724920000000  0.5052290000000  0.5797980000000 1.0
C      1  0.5293710000000  0.4915530000000  0.5799550000000 1.0
C      1  0.4718990000000  0.4921190000000  0.4186040000000 1.0
C      1  0.5813420000000  0.5298500000000  0.4931850000000 1.0
C      1  0.4198850000000  0.4723440000000  0.4944730000000 1.0
C      1  0.5813700000000  0.4719540000000  0.5078790000000 1.0
C      1  0.5068660000000  0.5809770000000  0.5282550000000 1.0
C      1  0.5295960000000  0.4923630000000  0.4187000000000 1.0
C      1  0.4197300000000  0.4727340000000  0.5091680000000 1.0
C      1  0.4924230000000  0.5812930000000  0.4704240000000 1.0
C      1  0.5066830000000  0.4191390000000  0.4707480000000 1.0
C      1  0.4909260000000  0.4201340000000  0.5273770000000 1.0
C      1  0.4728040000000  0.4905810000000  0.5799170000000 1.0
C      1  0.5295310000000  0.5057640000000  0.5802480000000 1.0
C      1  0.4718010000000  0.5067510000000  0.4188690000000 1.0
C      1  0.5811680000000  0.4718010000000  0.4932460000000 1.0
C      1  0.4190480000000  0.5293870000000  0.4932880000000 1.0
C      1  0.5815510000000  0.5297220000000  0.5074040000000 1.0
C      1  0.4854080000000  0.5131020000000  0.4180240000000 1.0
C      1  0.4198720000000  0.4862760000000  0.5137620000000 1.0
C      1  0.5122190000000  0.4177300000000  0.4844090000000 1.0
C      1  0.5158470000000  0.5112860000000  0.5819130000000 1.0
C      1  0.4863180000000  0.4859610000000  0.5795460000000 1.0
C      1  0.5157550000000  0.4874370000000  0.4169660000000 1.0
C      1  0.5820750000000  0.4853930000000  0.4867850000000 1.0
C      1  0.4175390000000  0.5157430000000  0.4877160000000 1.0
C      1  0.5833620000000  0.5158860000000  0.5123090000000 1.0
C      1  0.4862100000000  0.4200830000000  0.5138540000000 1.0
C      1  0.5131890000000  0.5818850000000  0.5146310000000 1.0
C      1  0.4875090000000  0.5830220000000  0.4842820000000 1.0
C      1  0.4855540000000  0.4861410000000  0.4179720000000 1.0
C      1  0.4176980000000  0.5152200000000  0.5123000000000 1.0
C      1  0.5120480000000  0.5828660000000  0.4840080000000 1.0
C      1  0.5155870000000  0.4867440000000  0.5809430000000 1.0
C      1  0.4857280000000  0.5123630000000  0.5807100000000 1.0
C      1  0.5160010000000  0.5119830000000  0.4170880000000 1.0
C      1  0.5830580000000  0.5160760000000  0.4877800000000 1.0
C      1  0.4188620000000  0.4854870000000  0.4871430000000 1.0
C      1  0.5822990000000  0.4856830000000  0.5137050000000 1.0
C      1  0.4862350000000  0.5819400000000  0.5145270000000 1.0
C      1  0.5127250000000  0.4192640000000  0.5146720000000 1.0
C      1  0.4876320000000  0.4178350000000  0.4848730000000 1.0
C      1  0.5536180000000  0.5060410000000  0.4276890000000 1.0
C      1  0.4271010000000  0.5529790000000  0.5083040000000 1.0
C      1  0.5029080000000  0.4291250000000  0.5513530000000 1.0
C      1  0.4487830000000  0.5028040000000  0.5711630000000 1.0
C      1  0.5533610000000  0.4911290000000  0.5724310000000 1.0
C      1  0.4469680000000  0.4917520000000  0.4269870000000 1.0
C      1  0.5723470000000  0.5536780000000  0.4937620000000 1.0
C      1  0.4287650000000  0.4487470000000  0.4970400000000 1.0
C      1  0.5728540000000  0.4471110000000  0.5084050000000 1.0
C      1  0.4917360000000  0.4270750000000  0.4470890000000 1.0
C      1  0.5060920000000  0.5722510000000  0.4463830000000 1.0
C      1  0.4919260000000  0.5727000000000  0.5530790000000 1.0
C      1  0.5535210000000  0.4917550000000  0.4273250000000 1.0
C      1  0.4288650000000  0.4495160000000  0.5115160000000 1.0
C      1  0.5060670000000  0.5723470000000  0.5531720000000 1.0
C      1  0.4494720000000  0.4883260000000  0.5710610000000 1.0
C      1  0.5534010000000  0.5054600000000  0.5721800000000 1.0
C      1  0.4468480000000  0.5058940000000  0.4273350000000 1.0
C      1  0.5726280000000  0.4469200000000  0.4942380000000 1.0
C      1  0.4274560000000  0.5532070000000  0.4939680000000 1.0
C      1  0.5727790000000  0.5535880000000  0.5080460000000 1.0
C      1  0.4918100000000  0.5726490000000  0.4464860000000 1.0
C      1  0.5060720000000  0.4274510000000  0.4469020000000 1.0
C      1  0.4884670000000  0.4291260000000  0.5504900000000 1.0
C      1  0.5217610000000  0.4449760000000  0.4389800000000 1.0
C      1  0.4388420000000  0.5217650000000  0.4448970000000 1.0
C      1  0.4450300000000  0.4406310000000  0.5301110000000 1.0
C      1  0.4700090000000  0.4451760000000  0.5592320000000 1.0
C      1  0.5219330000000  0.5546790000000  0.5610260000000 1.0
C      1  0.4746680000000  0.5559320000000  0.4387250000000 1.0
C      1  0.5613030000000  0.5215030000000  0.5549290000000 1.0
C      1  0.4404760000000  0.4697820000000  0.5548890000000 1.0
C      1  0.5612810000000  0.4746370000000  0.4440810000000 1.0
C      1  0.5550650000000  0.4388850000000  0.4783750000000 1.0
C      1  0.4449620000000  0.5611550000000  0.4782620000000 1.0
C      1  0.5561030000000  0.5613280000000  0.5252450000000 1.0
C      1  0.5218930000000  0.5546230000000  0.4387110000000 1.0
C      1  0.4389070000000  0.4743300000000  0.4437480000000 1.0
C      1  0.4436340000000  0.5608190000000  0.5252610000000 1.0
C      1  0.4745300000000  0.5558980000000  0.5610650000000 1.0
C      1  0.5198490000000  0.4440980000000  0.5616470000000 1.0
C      1  0.4747920000000  0.4435680000000  0.4391580000000 1.0
C      1  0.5617970000000  0.4745650000000  0.5559740000000 1.0
C      1  0.4394530000000  0.5195710000000  0.5551030000000 1.0
C      1  0.5613230000000  0.5218790000000  0.4452550000000 1.0
C      1  0.5546690000000  0.5613090000000  0.4780120000000 1.0
C      1  0.4448930000000  0.4394420000000  0.4803760000000 1.0
C      1  0.5558380000000  0.4394940000000  0.5256480000000 1.0
C      1  0.4706880000000  0.5567350000000  0.5477950000000 1.0
C      1  0.5486100000000  0.4704780000000  0.5557610000000 1.0
C      1  0.5554470000000  0.5483770000000  0.4729980000000 1.0
C      1  0.5269040000000  0.5553830000000  0.4516390000000 1.0
C      1  0.4707530000000  0.4434770000000  0.4524210000000 1.0
C      1  0.5262410000000  0.4447520000000  0.5494770000000 1.0
C      1  0.4521990000000  0.4705560000000  0.4430110000000 1.0
C      1  0.5483890000000  0.5268970000000  0.4445180000000 1.0
C      1  0.4518260000000  0.5258250000000  0.5558740000000 1.0
C      1  0.4435020000000  0.5475430000000  0.5292650000000 1.0
C      1  0.5560610000000  0.4527420000000  0.5294410000000 1.0
C      1  0.4440390000000  0.4517700000000  0.4740380000000 1.0
C      1  0.4677110000000  0.4452790000000  0.5456760000000 1.0
C      1  0.5483690000000  0.5264950000000  0.5552860000000 1.0
C      1  0.5559830000000  0.4516650000000  0.4730260000000 1.0
C      1  0.5268190000000  0.4446410000000  0.4519030000000 1.0
C      1  0.4707410000000  0.5564690000000  0.4520050000000 1.0
C      1  0.5270450000000  0.5556150000000  0.5481900000000 1.0
C      1  0.4516890000000  0.5269140000000  0.4441200000000 1.0
C      1  0.5479970000000  0.4707220000000  0.4435910000000 1.0
C      1  0.4540710000000  0.4677470000000  0.5546020000000 1.0
C      1  0.4452290000000  0.4542470000000  0.5320880000000 1.0
C      1  0.5567020000000  0.5480530000000  0.5291840000000 1.0
C      1  0.4445630000000  0.5482490000000  0.4731550000000 1.0
C      1  0.5419790000000  0.5688680000000  0.4801690000000 1.0
C      1  0.4763660000000  0.5430890000000  0.5687460000000 1.0
C      1  0.5696700000000  0.4769130000000  0.5436950000000 1.0
C      1  0.4559840000000  0.5688410000000  0.5232230000000 1.0
C      1  0.5431610000000  0.4318670000000  0.5241040000000 1.0
C      1  0.4572680000000  0.4317120000000  0.4823080000000 1.0
C      1  0.5197800000000  0.5419390000000  0.4311250000000 1.0
C      1  0.4768460000000  0.4558950000000  0.4311140000000 1.0
C      1  0.5179650000000  0.4565450000000  0.5688280000000 1.0
C      1  0.4311230000000  0.4761490000000  0.4565010000000 1.0
C      1  0.5689360000000  0.5197840000000  0.4579230000000 1.0
C      1  0.4316470000000  0.5177180000000  0.5427520000000 1.0
C      1  0.5422900000000  0.4314820000000  0.4805380000000 1.0
C      1  0.4705670000000  0.4564940000000  0.5688920000000 1.0
C      1  0.5691730000000  0.5194500000000  0.5425400000000 1.0
C      1  0.4564020000000  0.4309520000000  0.5294510000000 1.0
C      1  0.5434380000000  0.5691720000000  0.5234560000000 1.0
C      1  0.4573840000000  0.5688820000000  0.4805820000000 1.0
C      1  0.5194550000000  0.4573590000000  0.4312000000000 1.0
C      1  0.4764890000000  0.5433040000000  0.4308340000000 1.0
C      1  0.5198450000000  0.5418800000000  0.5684270000000 1.0
C      1  0.4313090000000  0.5196920000000  0.4576000000000 1.0
C      1  0.5691980000000  0.4764750000000  0.4566810000000 1.0
C      1  0.4308970000000  0.4705550000000  0.5434380000000 1.0
C      1  0.5653850000000  0.5641090000000  0.5150290000000 1.0
C      1  0.5121850000000  0.5643310000000  0.5637660000000 1.0
C      1  0.5640420000000  0.5117200000000  0.5645630000000 1.0
C      1  0.4352680000000  0.5638470000000  0.4879870000000 1.0
C      1  0.5645860000000  0.4363160000000  0.4882580000000 1.0
C      1  0.4360680000000  0.4391440000000  0.5188780000000 1.0
C      1  0.4848510000000  0.5652530000000  0.4359560000000 1.0
C      1  0.5120720000000  0.4352490000000  0.4362690000000 1.0
C      1  0.4810970000000  0.4361700000000  0.5608960000000 1.0
C      1  0.4361890000000  0.5119940000000  0.4352480000000 1.0
C      1  0.5640430000000  0.4847950000000  0.4347220000000 1.0
C      1  0.4390570000000  0.4810070000000  0.5638570000000 1.0
C      1  0.5653320000000  0.4367360000000  0.5155820000000 1.0
C      1  0.5088640000000  0.4353370000000  0.5627450000000 1.0
C      1  0.5643800000000  0.4845060000000  0.5656190000000 1.0
C      1  0.4359650000000  0.4379130000000  0.4911160000000 1.0
C      1  0.5642770000000  0.5641710000000  0.4877420000000 1.0
C      1  0.4341460000000  0.5636580000000  0.5152620000000 1.0
C      1  0.4848030000000  0.4340780000000  0.4363690000000 1.0
C      1  0.5121390000000  0.5642140000000  0.4358780000000 1.0
C      1  0.4848770000000  0.5651470000000  0.5635850000000 1.0
C      1  0.4364320000000  0.4846650000000  0.4344610000000 1.0
C      1  0.5641370000000  0.5120980000000  0.4356880000000 1.0
C      1  0.4379400000000  0.5088010000000  0.5640130000000 1.0
C      1  0.4307630000000  0.5083330000000  0.4915610000000 1.0
C      1  0.4919240000000  0.4320660000000  0.5074760000000 1.0
C      1  0.5082620000000  0.4917080000000  0.4299880000000 1.0
C      1  0.5703220000000  0.5083950000000  0.5081270000000 1.0
C      1  0.4318230000000  0.4925240000000  0.5078210000000 1.0
C      1  0.5701620000000  0.4926040000000  0.4917920000000 1.0
C      1  0.5083340000000  0.4309870000000  0.4917580000000 1.0
C      1  0.4917590000000  0.5699830000000  0.4917620000000 1.0
C      1  0.5082020000000  0.5699550000000  0.5074550000000 1.0
C      1  0.4925560000000  0.4917000000000  0.5674970000000 1.0
C      1  0.5084430000000  0.5078240000000  0.5686220000000 1.0
C      1  0.4925510000000  0.5081220000000  0.4299780000000 1.0
C      1  0.4310010000000  0.4925410000000  0.4912240000000 1.0
C      1  0.4915110000000  0.5699740000000  0.5074740000000 1.0
C      1  0.5083070000000  0.5078880000000  0.4300650000000 1.0
C      1  0.5703170000000  0.4926890000000  0.5084060000000 1.0
C      1  0.4310450000000  0.5080910000000  0.5077540000000 1.0
C      1  0.5701160000000  0.5083760000000  0.4919510000000 1.0
C      1  0.5079510000000  0.5698920000000  0.4917050000000 1.0
C      1  0.4920960000000  0.4312400000000  0.4919170000000 1.0
C      1  0.5086010000000  0.4313030000000  0.5075200000000 1.0
C      1  0.4926600000000  0.5082360000000  0.5684830000000 1.0
C      1  0.5083350000000  0.4914090000000  0.5679400000000 1.0
C      1  0.4925480000000  0.4914480000000  0.4299620000000 1.0
C      1  0.5074480000000  0.5411760000000  0.5310020000000 1.0
C      1  0.5317110000000  0.5072310000000  0.5394910000000 1.0
C      1  0.5416420000000  0.5327700000000  0.5071780000000 1.0
C      1  0.4927780000000  0.5413780000000  0.4673170000000 1.0
C      1  0.5070730000000  0.4601540000000  0.4684800000000 1.0
C      1  0.4953050000000  0.4622270000000  0.5288480000000 1.0
C      1  0.4688280000000  0.5073830000000  0.4586640000000 1.0
C      1  0.5327330000000  0.4927630000000  0.4586070000000 1.0
C      1  0.4702500000000  0.4957870000000  0.5377900000000 1.0
C      1  0.4600420000000  0.5315760000000  0.4928630000000 1.0
C      1  0.5414530000000  0.4688120000000  0.4928330000000 1.0
C      1  0.4618800000000  0.4706150000000  0.5040180000000 1.0
C      1  0.5097470000000  0.4617720000000  0.5293750000000 1.0
C      1  0.5328690000000  0.4929360000000  0.5405460000000 1.0
C      1  0.5423070000000  0.4680300000000  0.5071220000000 1.0
C      1  0.4927810000000  0.4587400000000  0.4672390000000 1.0
C      1  0.5070810000000  0.5402000000000  0.4684000000000 1.0
C      1  0.4932500000000  0.5423900000000  0.5322210000000 1.0
C      1  0.4676170000000  0.4931880000000  0.4574360000000 1.0
C      1  0.5316600000000  0.5070700000000  0.4597520000000 1.0
C      1  0.4705110000000  0.5100530000000  0.5374750000000 1.0
C      1  0.4622360000000  0.4707750000000  0.4897580000000 1.0
C      1  0.5403570000000  0.5316050000000  0.4928930000000 1.0
C      1  0.4586710000000  0.5327470000000  0.5071680000000 1.0
C      1  0.4248340000000  0.5403570000000  0.5147410000000 1.0
C      1  0.5110510000000  0.4271360000000  0.5396700000000 1.0
C      1  0.5412150000000  0.5130480000000  0.4252330000000 1.0
C      1  0.5748350000000  0.5412850000000  0.4867440000000 1.0
C      1  0.4260580000000  0.4604250000000  0.4890360000000 1.0
C      1  0.5754400000000  0.4598880000000  0.5144710000000 1.0
C      1  0.4852630000000  0.4248490000000  0.4597000000000 1.0
C      1  0.5130920000000  0.5747130000000  0.4587880000000 1.0
C      1  0.4857250000000  0.5755470000000  0.5403370000000 1.0
C      1  0.4605480000000  0.5107110000000  0.5737230000000 1.0
C      1  0.5406830000000  0.4844220000000  0.5742370000000 1.0
C      1  0.4597350000000  0.4855810000000  0.4242250000000 1.0
C      1  0.4252660000000  0.4619720000000  0.5174780000000 1.0
C      1  0.5128450000000  0.5748100000000  0.5405210000000 1.0
C      1  0.5409200000000  0.4853470000000  0.4247390000000 1.0
C      1  0.5750880000000  0.4594940000000  0.4873270000000 1.0
C      1  0.4252630000000  0.5409000000000  0.4868150000000 1.0
C      1  0.5754880000000  0.5410130000000  0.5144630000000 1.0
C      1  0.4854020000000  0.5752690000000  0.4590920000000 1.0
C      1  0.5131850000000  0.4253240000000  0.4592390000000 1.0
C      1  0.4824890000000  0.4254300000000  0.5380900000000 1.0
C      1  0.4619200000000  0.4823110000000  0.5746060000000 1.0
C      1  0.5410210000000  0.5124880000000  0.5742910000000 1.0
C      1  0.4595010000000  0.5127030000000  0.4249740000000 1.0
C      1  0.4965490000000  0.5377060000000  0.4168290000000 1.0
C      1  0.4187310000000  0.4939930000000  0.5381010000000 1.0
C      1  0.5376520000000  0.4176620000000  0.5039940000000 1.0
C      1  0.4939550000000  0.4618410000000  0.5810540000000 1.0
C      1  0.5832300000000  0.4965400000000  0.4621810000000 1.0
C      1  0.4172160000000  0.4963210000000  0.4620450000000 1.0
C      1  0.5838170000000  0.4966340000000  0.5383930000000 1.0
C      1  0.4618710000000  0.4187880000000  0.5060960000000 1.0
C      1  0.5377690000000  0.5831610000000  0.5034110000000 1.0
C      1  0.4614620000000  0.5832100000000  0.5036140000000 1.0
C      1  0.4965750000000  0.5373830000000  0.5825570000000 1.0
C      1  0.4964740000000  0.4613650000000  0.4167790000000 1.0
C      1  0.4631960000000  0.5373700000000  0.5371270000000 1.0
C      1  0.5370470000000  0.5369860000000  0.4629430000000 1.0
C      1  0.5364800000000  0.4638910000000  0.5379620000000 1.0
C      1  0.4653030000000  0.4657940000000  0.5339340000000 1.0
C      1  0.5371670000000  0.4632800000000  0.4629650000000 1.0
C      1  0.4632560000000  0.5371770000000  0.4628390000000 1.0
C      1  0.4627660000000  0.4631740000000  0.4624440000000 1.0
C      1  0.5374000000000  0.5371270000000  0.5366550000000 1.0
END
