TITL C-1379268-1316-126 1.59389631528521e-06 1000000 -3342.93303504954 0 0 480 (Th) n - 1
REM
REM in /nfs/bkarasulu/CARBON/AIRSS/Generating-Clusters/GAP-ML-2020/Higher-Symm/Selected-Sizes/TryA-Only_Ih-Symm/Larger-Clusters/Try2-MINAMP_6A
REM
REM
REM
REM
REM
REM ./C.cell (31579ac4e95a012ec27f3239692ae8a5)
REM
REM compiler GCC version 9.2.1 20190827 (Red Hat 9.2.1-1)
REM options -cpp -mtune=generic -march=x86-64 -g -O0 -fpre-include=/usr/include/finclude/math-vector-fortran.h
REM seed -699995986 -1180252437 -1177226711 737355338 -1244959737 1301626701 -1067288402 1715885177 -1385402744 -115138367 1474236609 1992836411 -1550623423 2089884722 -1134409258 315756418 1173835617 670111293 1576629235 -804371779 928065847 -472505587 -364043689 -864992404 420271404 518271302 -71577069 1000339886 -790847951 22201222 1142578780 -2111996066 1270875219
REM
CELL 1.54180  100.00000  100.00000  100.00000   90.00000   90.00000   90.00000
LATT -1
SFAC C  
C      1  0.4923520000000  0.4451520000000  0.4675320000000 1.0
C      1  0.4675320000000  0.4923520000000  0.4451520000000 1.0
C      1  0.4451520000000  0.4675320000000  0.4923520000000 1.0
C      1  0.5076480000000  0.5548480000000  0.4675320000000 1.0
C      1  0.5076480000000  0.4451520000000  0.5324680000000 1.0
C      1  0.4923520000000  0.5548480000000  0.5324680000000 1.0
C      1  0.5324680000000  0.5076480000000  0.4451520000000 1.0
C      1  0.5324680000000  0.4923520000000  0.5548480000000 1.0
C      1  0.4675320000000  0.5076480000000  0.5548480000000 1.0
C      1  0.5548480000000  0.5324680000000  0.4923520000000 1.0
C      1  0.5548480000000  0.4675320000000  0.5076480000000 1.0
C      1  0.4451520000000  0.5324680000000  0.5076480000000 1.0
C      1  0.4923520000000  0.4451520000000  0.5324680000000 1.0
C      1  0.4675320000000  0.4923520000000  0.5548480000000 1.0
C      1  0.4451520000000  0.4675320000000  0.5076480000000 1.0
C      1  0.5076480000000  0.5548480000000  0.5324680000000 1.0
C      1  0.5076480000000  0.4451520000000  0.4675320000000 1.0
C      1  0.4923520000000  0.5548480000000  0.4675320000000 1.0
C      1  0.5324680000000  0.5076480000000  0.5548480000000 1.0
C      1  0.5324680000000  0.4923520000000  0.4451520000000 1.0
C      1  0.4675320000000  0.5076480000000  0.4451520000000 1.0
C      1  0.5548480000000  0.5324680000000  0.5076480000000 1.0
C      1  0.5548480000000  0.4675320000000  0.4923520000000 1.0
C      1  0.4451520000000  0.5324680000000  0.4923520000000 1.0
C      1  0.4487700000000  0.5669330000000  0.5215130000000 1.0
C      1  0.5215130000000  0.4487700000000  0.5669330000000 1.0
C      1  0.5669330000000  0.5215130000000  0.4487700000000 1.0
C      1  0.5512300000000  0.4330670000000  0.5215130000000 1.0
C      1  0.5512300000000  0.5669330000000  0.4784870000000 1.0
C      1  0.4487700000000  0.4330670000000  0.4784870000000 1.0
C      1  0.4784870000000  0.5512300000000  0.5669330000000 1.0
C      1  0.4784870000000  0.4487700000000  0.4330670000000 1.0
C      1  0.5215130000000  0.5512300000000  0.4330670000000 1.0
C      1  0.4330670000000  0.4784870000000  0.4487700000000 1.0
C      1  0.4330670000000  0.5215130000000  0.5512300000000 1.0
C      1  0.5669330000000  0.4784870000000  0.5512300000000 1.0
C      1  0.4487700000000  0.5669330000000  0.4784870000000 1.0
C      1  0.5215130000000  0.4487700000000  0.4330670000000 1.0
C      1  0.5669330000000  0.5215130000000  0.5512300000000 1.0
C      1  0.5512300000000  0.4330670000000  0.4784870000000 1.0
C      1  0.5512300000000  0.5669330000000  0.5215130000000 1.0
C      1  0.4487700000000  0.4330670000000  0.5215130000000 1.0
C      1  0.4784870000000  0.5512300000000  0.4330670000000 1.0
C      1  0.4784870000000  0.4487700000000  0.5669330000000 1.0
C      1  0.5215130000000  0.5512300000000  0.5669330000000 1.0
C      1  0.4330670000000  0.4784870000000  0.5512300000000 1.0
C      1  0.4330670000000  0.5215130000000  0.4487700000000 1.0
C      1  0.5669330000000  0.4784870000000  0.4487700000000 1.0
C      1  0.4554960000000  0.4716210000000  0.5475640000000 1.0
C      1  0.5475640000000  0.4554960000000  0.4716210000000 1.0
C      1  0.4716210000000  0.5475640000000  0.4554960000000 1.0
C      1  0.5445040000000  0.5283790000000  0.5475640000000 1.0
C      1  0.5445040000000  0.4716210000000  0.4524360000000 1.0
C      1  0.4554960000000  0.5283790000000  0.4524360000000 1.0
C      1  0.4524360000000  0.5445040000000  0.4716210000000 1.0
C      1  0.4524360000000  0.4554960000000  0.5283790000000 1.0
C      1  0.5475640000000  0.5445040000000  0.5283790000000 1.0
C      1  0.5283790000000  0.4524360000000  0.4554960000000 1.0
C      1  0.5283790000000  0.5475640000000  0.5445040000000 1.0
C      1  0.4716210000000  0.4524360000000  0.5445040000000 1.0
C      1  0.4554960000000  0.4716210000000  0.4524360000000 1.0
C      1  0.5475640000000  0.4554960000000  0.5283790000000 1.0
C      1  0.4716210000000  0.5475640000000  0.5445040000000 1.0
C      1  0.5445040000000  0.5283790000000  0.4524360000000 1.0
C      1  0.5445040000000  0.4716210000000  0.5475640000000 1.0
C      1  0.4554960000000  0.5283790000000  0.5475640000000 1.0
C      1  0.4524360000000  0.5445040000000  0.5283790000000 1.0
C      1  0.4524360000000  0.4554960000000  0.4716210000000 1.0
C      1  0.5475640000000  0.5445040000000  0.4716210000000 1.0
C      1  0.5283790000000  0.4524360000000  0.5445040000000 1.0
C      1  0.5283790000000  0.5475640000000  0.4554960000000 1.0
C      1  0.4716210000000  0.4524360000000  0.4554960000000 1.0
C      1  0.5390600000000  0.5665130000000  0.4697310000000 1.0
C      1  0.4697310000000  0.5390600000000  0.5665130000000 1.0
C      1  0.5665130000000  0.4697310000000  0.5390600000000 1.0
C      1  0.4609400000000  0.4334870000000  0.4697310000000 1.0
C      1  0.4609400000000  0.5665130000000  0.5302690000000 1.0
C      1  0.5390600000000  0.4334870000000  0.5302690000000 1.0
C      1  0.5302690000000  0.4609400000000  0.5665130000000 1.0
C      1  0.5302690000000  0.5390600000000  0.4334870000000 1.0
C      1  0.4697310000000  0.4609400000000  0.4334870000000 1.0
C      1  0.4334870000000  0.5302690000000  0.5390600000000 1.0
C      1  0.4334870000000  0.4697310000000  0.4609400000000 1.0
C      1  0.5665130000000  0.5302690000000  0.4609400000000 1.0
C      1  0.5390600000000  0.5665130000000  0.5302690000000 1.0
C      1  0.4697310000000  0.5390600000000  0.4334870000000 1.0
C      1  0.5665130000000  0.4697310000000  0.4609400000000 1.0
C      1  0.4609400000000  0.4334870000000  0.5302690000000 1.0
C      1  0.4609400000000  0.5665130000000  0.4697310000000 1.0
C      1  0.5390600000000  0.4334870000000  0.4697310000000 1.0
C      1  0.5302690000000  0.4609400000000  0.4334870000000 1.0
C      1  0.5302690000000  0.5390600000000  0.5665130000000 1.0
C      1  0.4697310000000  0.4609400000000  0.5665130000000 1.0
C      1  0.4334870000000  0.5302690000000  0.4609400000000 1.0
C      1  0.4334870000000  0.4697310000000  0.5390600000000 1.0
C      1  0.5665130000000  0.5302690000000  0.5390600000000 1.0
C      1  0.5386000000000  0.4932050000000  0.5806570000000 1.0
C      1  0.5806570000000  0.5386000000000  0.4932050000000 1.0
C      1  0.4932050000000  0.5806570000000  0.5386000000000 1.0
C      1  0.4614000000000  0.5067950000000  0.5806570000000 1.0
C      1  0.4614000000000  0.4932050000000  0.4193430000000 1.0
C      1  0.5386000000000  0.5067950000000  0.4193430000000 1.0
C      1  0.4193430000000  0.4614000000000  0.4932050000000 1.0
C      1  0.4193430000000  0.5386000000000  0.5067950000000 1.0
C      1  0.5806570000000  0.4614000000000  0.5067950000000 1.0
C      1  0.5067950000000  0.4193430000000  0.5386000000000 1.0
C      1  0.5067950000000  0.5806570000000  0.4614000000000 1.0
C      1  0.4932050000000  0.4193430000000  0.4614000000000 1.0
C      1  0.5386000000000  0.4932050000000  0.4193430000000 1.0
C      1  0.5806570000000  0.5386000000000  0.5067950000000 1.0
C      1  0.4932050000000  0.5806570000000  0.4614000000000 1.0
C      1  0.4614000000000  0.5067950000000  0.4193430000000 1.0
C      1  0.4614000000000  0.4932050000000  0.5806570000000 1.0
C      1  0.5386000000000  0.5067950000000  0.5806570000000 1.0
C      1  0.4193430000000  0.4614000000000  0.5067950000000 1.0
C      1  0.4193430000000  0.5386000000000  0.4932050000000 1.0
C      1  0.5806570000000  0.4614000000000  0.4932050000000 1.0
C      1  0.5067950000000  0.4193430000000  0.4614000000000 1.0
C      1  0.5067950000000  0.5806570000000  0.5386000000000 1.0
C      1  0.4932050000000  0.4193430000000  0.5386000000000 1.0
C      1  0.4108910000000  0.5062980000000  0.4805900000000 1.0
C      1  0.4805900000000  0.4108910000000  0.5062980000000 1.0
C      1  0.5062980000000  0.4805900000000  0.4108910000000 1.0
C      1  0.5891090000000  0.4937020000000  0.4805900000000 1.0
C      1  0.5891090000000  0.5062980000000  0.5194100000000 1.0
C      1  0.4108910000000  0.4937020000000  0.5194100000000 1.0
C      1  0.5194100000000  0.5891090000000  0.5062980000000 1.0
C      1  0.5194100000000  0.4108910000000  0.4937020000000 1.0
C      1  0.4805900000000  0.5891090000000  0.4937020000000 1.0
C      1  0.4937020000000  0.5194100000000  0.4108910000000 1.0
C      1  0.4937020000000  0.4805900000000  0.5891090000000 1.0
C      1  0.5062980000000  0.5194100000000  0.5891090000000 1.0
C      1  0.4108910000000  0.5062980000000  0.5194100000000 1.0
C      1  0.4805900000000  0.4108910000000  0.4937020000000 1.0
C      1  0.5062980000000  0.4805900000000  0.5891090000000 1.0
C      1  0.5891090000000  0.4937020000000  0.5194100000000 1.0
C      1  0.5891090000000  0.5062980000000  0.4805900000000 1.0
C      1  0.4108910000000  0.4937020000000  0.4805900000000 1.0
C      1  0.5194100000000  0.5891090000000  0.4937020000000 1.0
C      1  0.5194100000000  0.4108910000000  0.5062980000000 1.0
C      1  0.4805900000000  0.5891090000000  0.5062980000000 1.0
C      1  0.4937020000000  0.5194100000000  0.5891090000000 1.0
C      1  0.4937020000000  0.4805900000000  0.4108910000000 1.0
C      1  0.5062980000000  0.5194100000000  0.4108910000000 1.0
C      1  0.4167920000000  0.4691970000000  0.5187750000000 1.0
C      1  0.5187750000000  0.4167920000000  0.4691970000000 1.0
C      1  0.4691970000000  0.5187750000000  0.4167920000000 1.0
C      1  0.5832080000000  0.5308030000000  0.5187750000000 1.0
C      1  0.5832080000000  0.4691970000000  0.4812250000000 1.0
C      1  0.4167920000000  0.5308030000000  0.4812250000000 1.0
C      1  0.4812250000000  0.5832080000000  0.4691970000000 1.0
C      1  0.4812250000000  0.4167920000000  0.5308030000000 1.0
C      1  0.5187750000000  0.5832080000000  0.5308030000000 1.0
C      1  0.5308030000000  0.4812250000000  0.4167920000000 1.0
C      1  0.5308030000000  0.5187750000000  0.5832080000000 1.0
C      1  0.4691970000000  0.4812250000000  0.5832080000000 1.0
C      1  0.4167920000000  0.4691970000000  0.4812250000000 1.0
C      1  0.5187750000000  0.4167920000000  0.5308030000000 1.0
C      1  0.4691970000000  0.5187750000000  0.5832080000000 1.0
C      1  0.5832080000000  0.5308030000000  0.4812250000000 1.0
C      1  0.5832080000000  0.4691970000000  0.5187750000000 1.0
C      1  0.4167920000000  0.5308030000000  0.5187750000000 1.0
C      1  0.4812250000000  0.5832080000000  0.5308030000000 1.0
C      1  0.4812250000000  0.4167920000000  0.4691970000000 1.0
C      1  0.5187750000000  0.5832080000000  0.4691970000000 1.0
C      1  0.5308030000000  0.4812250000000  0.5832080000000 1.0
C      1  0.5308030000000  0.5187750000000  0.4167920000000 1.0
C      1  0.4691970000000  0.4812250000000  0.4167920000000 1.0
C      1  0.4415510000000  0.5559530000000  0.4725750000000 1.0
C      1  0.4725750000000  0.4415510000000  0.5559530000000 1.0
C      1  0.5559530000000  0.4725750000000  0.4415510000000 1.0
C      1  0.5584490000000  0.4440470000000  0.4725750000000 1.0
C      1  0.5584490000000  0.5559530000000  0.5274250000000 1.0
C      1  0.4415510000000  0.4440470000000  0.5274250000000 1.0
C      1  0.5274250000000  0.5584490000000  0.5559530000000 1.0
C      1  0.5274250000000  0.4415510000000  0.4440470000000 1.0
C      1  0.4725750000000  0.5584490000000  0.4440470000000 1.0
C      1  0.4440470000000  0.5274250000000  0.4415510000000 1.0
C      1  0.4440470000000  0.4725750000000  0.5584490000000 1.0
C      1  0.5559530000000  0.5274250000000  0.5584490000000 1.0
C      1  0.4415510000000  0.5559530000000  0.5274250000000 1.0
C      1  0.4725750000000  0.4415510000000  0.4440470000000 1.0
C      1  0.5559530000000  0.4725750000000  0.5584490000000 1.0
C      1  0.5584490000000  0.4440470000000  0.5274250000000 1.0
C      1  0.5584490000000  0.5559530000000  0.4725750000000 1.0
C      1  0.4415510000000  0.4440470000000  0.4725750000000 1.0
C      1  0.5274250000000  0.5584490000000  0.4440470000000 1.0
C      1  0.5274250000000  0.4415510000000  0.5559530000000 1.0
C      1  0.4725750000000  0.5584490000000  0.5559530000000 1.0
C      1  0.4440470000000  0.5274250000000  0.5584490000000 1.0
C      1  0.4440470000000  0.4725750000000  0.4415510000000 1.0
C      1  0.5559530000000  0.5274250000000  0.4415510000000 1.0
C      1  0.4806360000000  0.5499880000000  0.5076760000000 1.0
C      1  0.5076760000000  0.4806360000000  0.5499880000000 1.0
C      1  0.5499880000000  0.5076760000000  0.4806360000000 1.0
C      1  0.5193640000000  0.4500120000000  0.5076760000000 1.0
C      1  0.5193640000000  0.5499880000000  0.4923240000000 1.0
C      1  0.4806360000000  0.4500120000000  0.4923240000000 1.0
C      1  0.4923240000000  0.5193640000000  0.5499880000000 1.0
C      1  0.4923240000000  0.4806360000000  0.4500120000000 1.0
C      1  0.5076760000000  0.5193640000000  0.4500120000000 1.0
C      1  0.4500120000000  0.4923240000000  0.4806360000000 1.0
C      1  0.4500120000000  0.5076760000000  0.5193640000000 1.0
C      1  0.5499880000000  0.4923240000000  0.5193640000000 1.0
C      1  0.4806360000000  0.5499880000000  0.4923240000000 1.0
C      1  0.5076760000000  0.4806360000000  0.4500120000000 1.0
C      1  0.5499880000000  0.5076760000000  0.5193640000000 1.0
C      1  0.5193640000000  0.4500120000000  0.4923240000000 1.0
C      1  0.5193640000000  0.5499880000000  0.5076760000000 1.0
C      1  0.4806360000000  0.4500120000000  0.5076760000000 1.0
C      1  0.4923240000000  0.5193640000000  0.4500120000000 1.0
C      1  0.4923240000000  0.4806360000000  0.5499880000000 1.0
C      1  0.5076760000000  0.5193640000000  0.5499880000000 1.0
C      1  0.4500120000000  0.4923240000000  0.5193640000000 1.0
C      1  0.4500120000000  0.5076760000000  0.4806360000000 1.0
C      1  0.5499880000000  0.4923240000000  0.4806360000000 1.0
C      1  0.4925100000000  0.5304210000000  0.5401250000000 1.0
C      1  0.5401250000000  0.4925100000000  0.5304210000000 1.0
C      1  0.5304210000000  0.5401250000000  0.4925100000000 1.0
C      1  0.5074900000000  0.4695790000000  0.5401250000000 1.0
C      1  0.5074900000000  0.5304210000000  0.4598750000000 1.0
C      1  0.4925100000000  0.4695790000000  0.4598750000000 1.0
C      1  0.4598750000000  0.5074900000000  0.5304210000000 1.0
C      1  0.4598750000000  0.4925100000000  0.4695790000000 1.0
C      1  0.5401250000000  0.5074900000000  0.4695790000000 1.0
C      1  0.4695790000000  0.4598750000000  0.4925100000000 1.0
C      1  0.4695790000000  0.5401250000000  0.5074900000000 1.0
C      1  0.5304210000000  0.4598750000000  0.5074900000000 1.0
C      1  0.4925100000000  0.5304210000000  0.4598750000000 1.0
C      1  0.5401250000000  0.4925100000000  0.4695790000000 1.0
C      1  0.5304210000000  0.5401250000000  0.5074900000000 1.0
C      1  0.5074900000000  0.4695790000000  0.4598750000000 1.0
C      1  0.5074900000000  0.5304210000000  0.5401250000000 1.0
C      1  0.4925100000000  0.4695790000000  0.5401250000000 1.0
C      1  0.4598750000000  0.5074900000000  0.4695790000000 1.0
C      1  0.4598750000000  0.4925100000000  0.5304210000000 1.0
C      1  0.5401250000000  0.5074900000000  0.5304210000000 1.0
C      1  0.4695790000000  0.4598750000000  0.5074900000000 1.0
C      1  0.4695790000000  0.5401250000000  0.4925100000000 1.0
C      1  0.5304210000000  0.4598750000000  0.4925100000000 1.0
C      1  0.5366350000000  0.4703740000000  0.5752220000000 1.0
C      1  0.5752220000000  0.5366350000000  0.4703740000000 1.0
C      1  0.4703740000000  0.5752220000000  0.5366350000000 1.0
C      1  0.4633650000000  0.5296260000000  0.5752220000000 1.0
C      1  0.4633650000000  0.4703740000000  0.4247780000000 1.0
C      1  0.5366350000000  0.5296260000000  0.4247780000000 1.0
C      1  0.4247780000000  0.4633650000000  0.4703740000000 1.0
C      1  0.4247780000000  0.5366350000000  0.5296260000000 1.0
C      1  0.5752220000000  0.4633650000000  0.5296260000000 1.0
C      1  0.5296260000000  0.4247780000000  0.5366350000000 1.0
C      1  0.5296260000000  0.5752220000000  0.4633650000000 1.0
C      1  0.4703740000000  0.4247780000000  0.4633650000000 1.0
C      1  0.5366350000000  0.4703740000000  0.4247780000000 1.0
C      1  0.5752220000000  0.5366350000000  0.5296260000000 1.0
C      1  0.4703740000000  0.5752220000000  0.4633650000000 1.0
C      1  0.4633650000000  0.5296260000000  0.4247780000000 1.0
C      1  0.4633650000000  0.4703740000000  0.5752220000000 1.0
C      1  0.5366350000000  0.5296260000000  0.5752220000000 1.0
C      1  0.4247780000000  0.4633650000000  0.5296260000000 1.0
C      1  0.4247780000000  0.5366350000000  0.4703740000000 1.0
C      1  0.5752220000000  0.4633650000000  0.4703740000000 1.0
C      1  0.5296260000000  0.4247780000000  0.4633650000000 1.0
C      1  0.5296260000000  0.5752220000000  0.5366350000000 1.0
C      1  0.4703740000000  0.4247780000000  0.5366350000000 1.0
C      1  0.5529590000000  0.5340210000000  0.5370600000000 1.0
C      1  0.5370600000000  0.5529590000000  0.5340210000000 1.0
C      1  0.5340210000000  0.5370600000000  0.5529590000000 1.0
C      1  0.4470410000000  0.4659790000000  0.5370600000000 1.0
C      1  0.4470410000000  0.5340210000000  0.4629400000000 1.0
C      1  0.5529590000000  0.4659790000000  0.4629400000000 1.0
C      1  0.4629400000000  0.4470410000000  0.5340210000000 1.0
C      1  0.4629400000000  0.5529590000000  0.4659790000000 1.0
C      1  0.5370600000000  0.4470410000000  0.4659790000000 1.0
C      1  0.4659790000000  0.4629400000000  0.5529590000000 1.0
C      1  0.4659790000000  0.5370600000000  0.4470410000000 1.0
C      1  0.5340210000000  0.4629400000000  0.4470410000000 1.0
C      1  0.5529590000000  0.5340210000000  0.4629400000000 1.0
C      1  0.5370600000000  0.5529590000000  0.4659790000000 1.0
C      1  0.5340210000000  0.5370600000000  0.4470410000000 1.0
C      1  0.4470410000000  0.4659790000000  0.4629400000000 1.0
C      1  0.4470410000000  0.5340210000000  0.5370600000000 1.0
C      1  0.5529590000000  0.4659790000000  0.5370600000000 1.0
C      1  0.4629400000000  0.4470410000000  0.4659790000000 1.0
C      1  0.4629400000000  0.5529590000000  0.5340210000000 1.0
C      1  0.5370600000000  0.4470410000000  0.5340210000000 1.0
C      1  0.4659790000000  0.4629400000000  0.4470410000000 1.0
C      1  0.4659790000000  0.5370600000000  0.5529590000000 1.0
C      1  0.5340210000000  0.4629400000000  0.5529590000000 1.0
C      1  0.5510460000000  0.5679180000000  0.5072520000000 1.0
C      1  0.5072520000000  0.5510460000000  0.5679180000000 1.0
C      1  0.5679180000000  0.5072520000000  0.5510460000000 1.0
C      1  0.4489540000000  0.4320820000000  0.5072520000000 1.0
C      1  0.4489540000000  0.5679180000000  0.4927480000000 1.0
C      1  0.5510460000000  0.4320820000000  0.4927480000000 1.0
C      1  0.4927480000000  0.4489540000000  0.5679180000000 1.0
C      1  0.4927480000000  0.5510460000000  0.4320820000000 1.0
C      1  0.5072520000000  0.4489540000000  0.4320820000000 1.0
C      1  0.4320820000000  0.4927480000000  0.5510460000000 1.0
C      1  0.4320820000000  0.5072520000000  0.4489540000000 1.0
C      1  0.5679180000000  0.4927480000000  0.4489540000000 1.0
C      1  0.5510460000000  0.5679180000000  0.4927480000000 1.0
C      1  0.5072520000000  0.5510460000000  0.4320820000000 1.0
C      1  0.5679180000000  0.5072520000000  0.4489540000000 1.0
C      1  0.4489540000000  0.4320820000000  0.4927480000000 1.0
C      1  0.4489540000000  0.5679180000000  0.5072520000000 1.0
C      1  0.5510460000000  0.4320820000000  0.5072520000000 1.0
C      1  0.4927480000000  0.4489540000000  0.4320820000000 1.0
C      1  0.4927480000000  0.5510460000000  0.5679180000000 1.0
C      1  0.5072520000000  0.4489540000000  0.5679180000000 1.0
C      1  0.4320820000000  0.4927480000000  0.4489540000000 1.0
C      1  0.4320820000000  0.5072520000000  0.5510460000000 1.0
C      1  0.5679180000000  0.4927480000000  0.5510460000000 1.0
C      1  0.4848480000000  0.4176370000000  0.5170940000000 1.0
C      1  0.5170940000000  0.4848480000000  0.4176370000000 1.0
C      1  0.4176370000000  0.5170940000000  0.4848480000000 1.0
C      1  0.5151520000000  0.5823630000000  0.5170940000000 1.0
C      1  0.5151520000000  0.4176370000000  0.4829060000000 1.0
C      1  0.4848480000000  0.5823630000000  0.4829060000000 1.0
C      1  0.4829060000000  0.5151520000000  0.4176370000000 1.0
C      1  0.4829060000000  0.4848480000000  0.5823630000000 1.0
C      1  0.5170940000000  0.5151520000000  0.5823630000000 1.0
C      1  0.5823630000000  0.4829060000000  0.4848480000000 1.0
C      1  0.5823630000000  0.5170940000000  0.5151520000000 1.0
C      1  0.4176370000000  0.4829060000000  0.5151520000000 1.0
C      1  0.4848480000000  0.4176370000000  0.4829060000000 1.0
C      1  0.5170940000000  0.4848480000000  0.5823630000000 1.0
C      1  0.4176370000000  0.5170940000000  0.5151520000000 1.0
C      1  0.5151520000000  0.5823630000000  0.4829060000000 1.0
C      1  0.5151520000000  0.4176370000000  0.5170940000000 1.0
C      1  0.4848480000000  0.5823630000000  0.5170940000000 1.0
C      1  0.4829060000000  0.5151520000000  0.5823630000000 1.0
C      1  0.4829060000000  0.4848480000000  0.4176370000000 1.0
C      1  0.5170940000000  0.5151520000000  0.4176370000000 1.0
C      1  0.5823630000000  0.4829060000000  0.5151520000000 1.0
C      1  0.5823630000000  0.5170940000000  0.4848480000000 1.0
C      1  0.4176370000000  0.4829060000000  0.4848480000000 1.0
C      1  0.5068400000000  0.5699450000000  0.4852850000000 1.0
C      1  0.4852850000000  0.5068400000000  0.5699450000000 1.0
C      1  0.5699450000000  0.4852850000000  0.5068400000000 1.0
C      1  0.4931600000000  0.4300550000000  0.4852850000000 1.0
C      1  0.4931600000000  0.5699450000000  0.5147150000000 1.0
C      1  0.5068400000000  0.4300550000000  0.5147150000000 1.0
C      1  0.5147150000000  0.4931600000000  0.5699450000000 1.0
C      1  0.5147150000000  0.5068400000000  0.4300550000000 1.0
C      1  0.4852850000000  0.4931600000000  0.4300550000000 1.0
C      1  0.4300550000000  0.5147150000000  0.5068400000000 1.0
C      1  0.4300550000000  0.4852850000000  0.4931600000000 1.0
C      1  0.5699450000000  0.5147150000000  0.4931600000000 1.0
C      1  0.5068400000000  0.5699450000000  0.5147150000000 1.0
C      1  0.4852850000000  0.5068400000000  0.4300550000000 1.0
C      1  0.5699450000000  0.4852850000000  0.4931600000000 1.0
C      1  0.4931600000000  0.4300550000000  0.5147150000000 1.0
C      1  0.4931600000000  0.5699450000000  0.4852850000000 1.0
C      1  0.5068400000000  0.4300550000000  0.4852850000000 1.0
C      1  0.5147150000000  0.4931600000000  0.4300550000000 1.0
C      1  0.5147150000000  0.5068400000000  0.5699450000000 1.0
C      1  0.4852850000000  0.4931600000000  0.5699450000000 1.0
C      1  0.4300550000000  0.5147150000000  0.4931600000000 1.0
C      1  0.4300550000000  0.4852850000000  0.5068400000000 1.0
C      1  0.5699450000000  0.5147150000000  0.5068400000000 1.0
C      1  0.5571550000000  0.5179060000000  0.5128100000000 1.0
C      1  0.5128100000000  0.5571550000000  0.5179060000000 1.0
C      1  0.5179060000000  0.5128100000000  0.5571550000000 1.0
C      1  0.4428450000000  0.4820940000000  0.5128100000000 1.0
C      1  0.4428450000000  0.5179060000000  0.4871900000000 1.0
C      1  0.5571550000000  0.4820940000000  0.4871900000000 1.0
C      1  0.4871900000000  0.4428450000000  0.5179060000000 1.0
C      1  0.4871900000000  0.5571550000000  0.4820940000000 1.0
C      1  0.5128100000000  0.4428450000000  0.4820940000000 1.0
C      1  0.4820940000000  0.4871900000000  0.5571550000000 1.0
C      1  0.4820940000000  0.5128100000000  0.4428450000000 1.0
C      1  0.5179060000000  0.4871900000000  0.4428450000000 1.0
C      1  0.5571550000000  0.5179060000000  0.4871900000000 1.0
C      1  0.5128100000000  0.5571550000000  0.4820940000000 1.0
C      1  0.5179060000000  0.5128100000000  0.4428450000000 1.0
C      1  0.4428450000000  0.4820940000000  0.4871900000000 1.0
C      1  0.4428450000000  0.5179060000000  0.5128100000000 1.0
C      1  0.5571550000000  0.4820940000000  0.5128100000000 1.0
C      1  0.4871900000000  0.4428450000000  0.4820940000000 1.0
C      1  0.4871900000000  0.5571550000000  0.5179060000000 1.0
C      1  0.5128100000000  0.4428450000000  0.5179060000000 1.0
C      1  0.4820940000000  0.4871900000000  0.4428450000000 1.0
C      1  0.4820940000000  0.5128100000000  0.5571550000000 1.0
C      1  0.5179060000000  0.4871900000000  0.5571550000000 1.0
C      1  0.4308920000000  0.5484210000000  0.4762240000000 1.0
C      1  0.4762240000000  0.4308920000000  0.5484210000000 1.0
C      1  0.5484210000000  0.4762240000000  0.4308920000000 1.0
C      1  0.5691080000000  0.4515790000000  0.4762240000000 1.0
C      1  0.5691080000000  0.5484210000000  0.5237760000000 1.0
C      1  0.4308920000000  0.4515790000000  0.5237760000000 1.0
C      1  0.5237760000000  0.5691080000000  0.5484210000000 1.0
C      1  0.5237760000000  0.4308920000000  0.4515790000000 1.0
C      1  0.4762240000000  0.5691080000000  0.4515790000000 1.0
C      1  0.4515790000000  0.5237760000000  0.4308920000000 1.0
C      1  0.4515790000000  0.4762240000000  0.5691080000000 1.0
C      1  0.5484210000000  0.5237760000000  0.5691080000000 1.0
C      1  0.4308920000000  0.5484210000000  0.5237760000000 1.0
C      1  0.4762240000000  0.4308920000000  0.4515790000000 1.0
C      1  0.5484210000000  0.4762240000000  0.5691080000000 1.0
C      1  0.5691080000000  0.4515790000000  0.5237760000000 1.0
C      1  0.5691080000000  0.5484210000000  0.4762240000000 1.0
C      1  0.4308920000000  0.4515790000000  0.4762240000000 1.0
C      1  0.5237760000000  0.5691080000000  0.4515790000000 1.0
C      1  0.5237760000000  0.4308920000000  0.5484210000000 1.0
C      1  0.4762240000000  0.5691080000000  0.5484210000000 1.0
C      1  0.4515790000000  0.5237760000000  0.5691080000000 1.0
C      1  0.4515790000000  0.4762240000000  0.4308920000000 1.0
C      1  0.5484210000000  0.5237760000000  0.4308920000000 1.0
C      1  0.4453720000000  0.4930000000000  0.5444510000000 1.0
C      1  0.5444510000000  0.4453720000000  0.4930000000000 1.0
C      1  0.4930000000000  0.5444510000000  0.4453720000000 1.0
C      1  0.5546280000000  0.5070000000000  0.5444510000000 1.0
C      1  0.5546280000000  0.4930000000000  0.4555490000000 1.0
C      1  0.4453720000000  0.5070000000000  0.4555490000000 1.0
C      1  0.4555490000000  0.5546280000000  0.4930000000000 1.0
C      1  0.4555490000000  0.4453720000000  0.5070000000000 1.0
C      1  0.5444510000000  0.5546280000000  0.5070000000000 1.0
C      1  0.5070000000000  0.4555490000000  0.4453720000000 1.0
C      1  0.5070000000000  0.5444510000000  0.5546280000000 1.0
C      1  0.4930000000000  0.4555490000000  0.5546280000000 1.0
C      1  0.4453720000000  0.4930000000000  0.4555490000000 1.0
C      1  0.5444510000000  0.4453720000000  0.5070000000000 1.0
C      1  0.4930000000000  0.5444510000000  0.5546280000000 1.0
C      1  0.5546280000000  0.5070000000000  0.4555490000000 1.0
C      1  0.5546280000000  0.4930000000000  0.5444510000000 1.0
C      1  0.4453720000000  0.5070000000000  0.5444510000000 1.0
C      1  0.4555490000000  0.5546280000000  0.5070000000000 1.0
C      1  0.4555490000000  0.4453720000000  0.4930000000000 1.0
C      1  0.5444510000000  0.5546280000000  0.4930000000000 1.0
C      1  0.5070000000000  0.4555490000000  0.5546280000000 1.0
C      1  0.5070000000000  0.5444510000000  0.4453720000000 1.0
C      1  0.4930000000000  0.4555490000000  0.4453720000000 1.0
C      1  0.4572390000000  0.5105630000000  0.5675080000000 1.0
C      1  0.5675080000000  0.4572390000000  0.5105630000000 1.0
C      1  0.5105630000000  0.5675080000000  0.4572390000000 1.0
C      1  0.5427610000000  0.4894370000000  0.5675080000000 1.0
C      1  0.5427610000000  0.5105630000000  0.4324920000000 1.0
C      1  0.4572390000000  0.4894370000000  0.4324920000000 1.0
C      1  0.4324920000000  0.5427610000000  0.5105630000000 1.0
C      1  0.4324920000000  0.4572390000000  0.4894370000000 1.0
C      1  0.5675080000000  0.5427610000000  0.4894370000000 1.0
C      1  0.4894370000000  0.4324920000000  0.4572390000000 1.0
C      1  0.4894370000000  0.5675080000000  0.5427610000000 1.0
C      1  0.5105630000000  0.4324920000000  0.5427610000000 1.0
C      1  0.4572390000000  0.5105630000000  0.4324920000000 1.0
C      1  0.5675080000000  0.4572390000000  0.4894370000000 1.0
C      1  0.5105630000000  0.5675080000000  0.5427610000000 1.0
C      1  0.5427610000000  0.4894370000000  0.4324920000000 1.0
C      1  0.5427610000000  0.5105630000000  0.5675080000000 1.0
C      1  0.4572390000000  0.4894370000000  0.5675080000000 1.0
C      1  0.4324920000000  0.5427610000000  0.4894370000000 1.0
C      1  0.4324920000000  0.4572390000000  0.5105630000000 1.0
C      1  0.5675080000000  0.5427610000000  0.5105630000000 1.0
C      1  0.4894370000000  0.4324920000000  0.5427610000000 1.0
C      1  0.4894370000000  0.5675080000000  0.4572390000000 1.0
C      1  0.5105630000000  0.4324920000000  0.4572390000000 1.0
C      1  0.5135740000000  0.5438610000000  0.4589480000000 1.0
C      1  0.4589480000000  0.5135740000000  0.5438610000000 1.0
C      1  0.5438610000000  0.4589480000000  0.5135740000000 1.0
C      1  0.4864260000000  0.4561390000000  0.4589480000000 1.0
C      1  0.4864260000000  0.5438610000000  0.5410520000000 1.0
C      1  0.5135740000000  0.4561390000000  0.5410520000000 1.0
C      1  0.5410520000000  0.4864260000000  0.5438610000000 1.0
C      1  0.5410520000000  0.5135740000000  0.4561390000000 1.0
C      1  0.4589480000000  0.4864260000000  0.4561390000000 1.0
C      1  0.4561390000000  0.5410520000000  0.5135740000000 1.0
C      1  0.4561390000000  0.4589480000000  0.4864260000000 1.0
C      1  0.5438610000000  0.5410520000000  0.4864260000000 1.0
C      1  0.5135740000000  0.5438610000000  0.5410520000000 1.0
C      1  0.4589480000000  0.5135740000000  0.4561390000000 1.0
C      1  0.5438610000000  0.4589480000000  0.4864260000000 1.0
C      1  0.4864260000000  0.4561390000000  0.5410520000000 1.0
C      1  0.4864260000000  0.5438610000000  0.4589480000000 1.0
C      1  0.5135740000000  0.4561390000000  0.4589480000000 1.0
C      1  0.5410520000000  0.4864260000000  0.4561390000000 1.0
C      1  0.5410520000000  0.5135740000000  0.5438610000000 1.0
C      1  0.4589480000000  0.4864260000000  0.5438610000000 1.0
C      1  0.4561390000000  0.5410520000000  0.4864260000000 1.0
C      1  0.4561390000000  0.4589480000000  0.5135740000000 1.0
C      1  0.5438610000000  0.5410520000000  0.5135740000000 1.0
END
