TITL C-1379265-1223-15 -2.10976951105837e-07 1000000 -1658.84673593359 0 0 240 (Td) n - 1
REM
REM in /nfs/bkarasulu/CARBON/AIRSS/Generating-Clusters/GAP-ML-2020/Higher-Symm/Selected-Sizes/TryA-Only_Ih-Symm/Larger-Clusters/Try2-MINAMP_6A
REM
REM
REM
REM
REM
REM ./C.cell (31579ac4e95a012ec27f3239692ae8a5)
REM
REM compiler GCC version 9.2.1 20190827 (Red Hat 9.2.1-1)
REM options -cpp -mtune=generic -march=x86-64 -g -O0 -fpre-include=/usr/include/finclude/math-vector-fortran.h
REM seed 808015363 -1777885646 -220673627 -1072082521 753170260 -471778052 1874381859 853171163 1453105745 -1627697056 -1381433688 1395346266 501344680 1898271833 -2111321563 920896537 437763052 -327162607 1148428840 -957216841 946312781 2082157243 1140496542 324696467 89408294 768074623 571087378 -360598458 1049301553 2105167891 1582469560 -728933234 1143992663
REM
CELL 1.54180  100.00000  100.00000  100.00000   90.00000   90.00000   90.00000
LATT -1
SFAC C  
C      1  0.4807050000000  0.5299320000000  0.5095260000000 1.0
C      1  0.5095260000000  0.4807050000000  0.5299320000000 1.0
C      1  0.5299320000000  0.5095260000000  0.4807050000000 1.0
C      1  0.4807050000000  0.4700680000000  0.4904740000000 1.0
C      1  0.5192950000000  0.4700680000000  0.5095260000000 1.0
C      1  0.5192950000000  0.5299320000000  0.4904740000000 1.0
C      1  0.5095260000000  0.5192950000000  0.4700680000000 1.0
C      1  0.4904740000000  0.5192950000000  0.5299320000000 1.0
C      1  0.4904740000000  0.4807050000000  0.4700680000000 1.0
C      1  0.5299320000000  0.4904740000000  0.5192950000000 1.0
C      1  0.4700680000000  0.4904740000000  0.4807050000000 1.0
C      1  0.4700680000000  0.5095260000000  0.5192950000000 1.0
C      1  0.4807050000000  0.5095260000000  0.5299320000000 1.0
C      1  0.5095260000000  0.5299320000000  0.4807050000000 1.0
C      1  0.5299320000000  0.4807050000000  0.5095260000000 1.0
C      1  0.4807050000000  0.4904740000000  0.4700680000000 1.0
C      1  0.5192950000000  0.5095260000000  0.4700680000000 1.0
C      1  0.5192950000000  0.4904740000000  0.5299320000000 1.0
C      1  0.5095260000000  0.4700680000000  0.5192950000000 1.0
C      1  0.4904740000000  0.5299320000000  0.5192950000000 1.0
C      1  0.4904740000000  0.4700680000000  0.4807050000000 1.0
C      1  0.5299320000000  0.5192950000000  0.4904740000000 1.0
C      1  0.4700680000000  0.4807050000000  0.4904740000000 1.0
C      1  0.4700680000000  0.5192950000000  0.5095260000000 1.0
C      1  0.5251760000000  0.4272900000000  0.4996120000000 1.0
C      1  0.4996120000000  0.5251760000000  0.4272900000000 1.0
C      1  0.4272900000000  0.4996120000000  0.5251760000000 1.0
C      1  0.5251760000000  0.5727100000000  0.5003880000000 1.0
C      1  0.4748240000000  0.5727100000000  0.4996120000000 1.0
C      1  0.4748240000000  0.4272900000000  0.5003880000000 1.0
C      1  0.4996120000000  0.4748240000000  0.5727100000000 1.0
C      1  0.5003880000000  0.4748240000000  0.4272900000000 1.0
C      1  0.5003880000000  0.5251760000000  0.5727100000000 1.0
C      1  0.4272900000000  0.5003880000000  0.4748240000000 1.0
C      1  0.5727100000000  0.5003880000000  0.5251760000000 1.0
C      1  0.5727100000000  0.4996120000000  0.4748240000000 1.0
C      1  0.5251760000000  0.4996120000000  0.4272900000000 1.0
C      1  0.4996120000000  0.4272900000000  0.5251760000000 1.0
C      1  0.4272900000000  0.5251760000000  0.4996120000000 1.0
C      1  0.5251760000000  0.5003880000000  0.5727100000000 1.0
C      1  0.4748240000000  0.4996120000000  0.5727100000000 1.0
C      1  0.4748240000000  0.5003880000000  0.4272900000000 1.0
C      1  0.4996120000000  0.5727100000000  0.4748240000000 1.0
C      1  0.5003880000000  0.4272900000000  0.4748240000000 1.0
C      1  0.5003880000000  0.5727100000000  0.5251760000000 1.0
C      1  0.4272900000000  0.4748240000000  0.5003880000000 1.0
C      1  0.5727100000000  0.5251760000000  0.5003880000000 1.0
C      1  0.5727100000000  0.4748240000000  0.4996120000000 1.0
C      1  0.4733330000000  0.4533790000000  0.4632700000000 1.0
C      1  0.4632700000000  0.4733330000000  0.4533790000000 1.0
C      1  0.4533790000000  0.4632700000000  0.4733330000000 1.0
C      1  0.4733330000000  0.5466210000000  0.5367300000000 1.0
C      1  0.5266670000000  0.5466210000000  0.4632700000000 1.0
C      1  0.5266670000000  0.4533790000000  0.5367300000000 1.0
C      1  0.4632700000000  0.5266670000000  0.5466210000000 1.0
C      1  0.5367300000000  0.5266670000000  0.4533790000000 1.0
C      1  0.5367300000000  0.4733330000000  0.5466210000000 1.0
C      1  0.4533790000000  0.5367300000000  0.5266670000000 1.0
C      1  0.5466210000000  0.5367300000000  0.4733330000000 1.0
C      1  0.5466210000000  0.4632700000000  0.5266670000000 1.0
C      1  0.4733330000000  0.4632700000000  0.4533790000000 1.0
C      1  0.4632700000000  0.4533790000000  0.4733330000000 1.0
C      1  0.4533790000000  0.4733330000000  0.4632700000000 1.0
C      1  0.4733330000000  0.5367300000000  0.5466210000000 1.0
C      1  0.5266670000000  0.4632700000000  0.5466210000000 1.0
C      1  0.5266670000000  0.5367300000000  0.4533790000000 1.0
C      1  0.4632700000000  0.5466210000000  0.5266670000000 1.0
C      1  0.5367300000000  0.4533790000000  0.5266670000000 1.0
C      1  0.5367300000000  0.5466210000000  0.4733330000000 1.0
C      1  0.4533790000000  0.5266670000000  0.5367300000000 1.0
C      1  0.5466210000000  0.4733330000000  0.5367300000000 1.0
C      1  0.5466210000000  0.5266670000000  0.4632700000000 1.0
C      1  0.5636890000000  0.4922730000000  0.5315690000000 1.0
C      1  0.5315690000000  0.5636890000000  0.4922730000000 1.0
C      1  0.4922730000000  0.5315690000000  0.5636890000000 1.0
C      1  0.5636890000000  0.5077270000000  0.4684310000000 1.0
C      1  0.4363110000000  0.5077270000000  0.5315690000000 1.0
C      1  0.4363110000000  0.4922730000000  0.4684310000000 1.0
C      1  0.5315690000000  0.4363110000000  0.5077270000000 1.0
C      1  0.4684310000000  0.4363110000000  0.4922730000000 1.0
C      1  0.4684310000000  0.5636890000000  0.5077270000000 1.0
C      1  0.4922730000000  0.4684310000000  0.4363110000000 1.0
C      1  0.5077270000000  0.4684310000000  0.5636890000000 1.0
C      1  0.5077270000000  0.5315690000000  0.4363110000000 1.0
C      1  0.5636890000000  0.5315690000000  0.4922730000000 1.0
C      1  0.5315690000000  0.4922730000000  0.5636890000000 1.0
C      1  0.4922730000000  0.5636890000000  0.5315690000000 1.0
C      1  0.5636890000000  0.4684310000000  0.5077270000000 1.0
C      1  0.4363110000000  0.5315690000000  0.5077270000000 1.0
C      1  0.4363110000000  0.4684310000000  0.4922730000000 1.0
C      1  0.5315690000000  0.5077270000000  0.4363110000000 1.0
C      1  0.4684310000000  0.4922730000000  0.4363110000000 1.0
C      1  0.4684310000000  0.5077270000000  0.5636890000000 1.0
C      1  0.4922730000000  0.4363110000000  0.4684310000000 1.0
C      1  0.5077270000000  0.5636890000000  0.4684310000000 1.0
C      1  0.5077270000000  0.4363110000000  0.5315690000000 1.0
C      1  0.4305020000000  0.5142210000000  0.4753260000000 1.0
C      1  0.4753260000000  0.4305020000000  0.5142210000000 1.0
C      1  0.5142210000000  0.4753260000000  0.4305020000000 1.0
C      1  0.4305020000000  0.4857790000000  0.5246740000000 1.0
C      1  0.5694980000000  0.4857790000000  0.4753260000000 1.0
C      1  0.5694980000000  0.5142210000000  0.5246740000000 1.0
C      1  0.4753260000000  0.5694980000000  0.4857790000000 1.0
C      1  0.5246740000000  0.5694980000000  0.5142210000000 1.0
C      1  0.5246740000000  0.4305020000000  0.4857790000000 1.0
C      1  0.5142210000000  0.5246740000000  0.5694980000000 1.0
C      1  0.4857790000000  0.5246740000000  0.4305020000000 1.0
C      1  0.4857790000000  0.4753260000000  0.5694980000000 1.0
C      1  0.4305020000000  0.4753260000000  0.5142210000000 1.0
C      1  0.4753260000000  0.5142210000000  0.4305020000000 1.0
C      1  0.5142210000000  0.4305020000000  0.4753260000000 1.0
C      1  0.4305020000000  0.5246740000000  0.4857790000000 1.0
C      1  0.5694980000000  0.4753260000000  0.4857790000000 1.0
C      1  0.5694980000000  0.5246740000000  0.5142210000000 1.0
C      1  0.4753260000000  0.4857790000000  0.5694980000000 1.0
C      1  0.5246740000000  0.5142210000000  0.5694980000000 1.0
C      1  0.5246740000000  0.4857790000000  0.4305020000000 1.0
C      1  0.5142210000000  0.5694980000000  0.5246740000000 1.0
C      1  0.4857790000000  0.4305020000000  0.5246740000000 1.0
C      1  0.4857790000000  0.5694980000000  0.4753260000000 1.0
C      1  0.4707000000000  0.4603820000000  0.4948580000000 1.0
C      1  0.4948580000000  0.4707000000000  0.4603820000000 1.0
C      1  0.4603820000000  0.4948580000000  0.4707000000000 1.0
C      1  0.4707000000000  0.5396180000000  0.5051420000000 1.0
C      1  0.5293000000000  0.5396180000000  0.4948580000000 1.0
C      1  0.5293000000000  0.4603820000000  0.5051420000000 1.0
C      1  0.4948580000000  0.5293000000000  0.5396180000000 1.0
C      1  0.5051420000000  0.5293000000000  0.4603820000000 1.0
C      1  0.5051420000000  0.4707000000000  0.5396180000000 1.0
C      1  0.4603820000000  0.5051420000000  0.5293000000000 1.0
C      1  0.5396180000000  0.5051420000000  0.4707000000000 1.0
C      1  0.5396180000000  0.4948580000000  0.5293000000000 1.0
C      1  0.4707000000000  0.4948580000000  0.4603820000000 1.0
C      1  0.4948580000000  0.4603820000000  0.4707000000000 1.0
C      1  0.4603820000000  0.4707000000000  0.4948580000000 1.0
C      1  0.4707000000000  0.5051420000000  0.5396180000000 1.0
C      1  0.5293000000000  0.4948580000000  0.5396180000000 1.0
C      1  0.5293000000000  0.5051420000000  0.4603820000000 1.0
C      1  0.4948580000000  0.5396180000000  0.5293000000000 1.0
C      1  0.5051420000000  0.4603820000000  0.5293000000000 1.0
C      1  0.5051420000000  0.5396180000000  0.4707000000000 1.0
C      1  0.4603820000000  0.5293000000000  0.5051420000000 1.0
C      1  0.5396180000000  0.4707000000000  0.5051420000000 1.0
C      1  0.5396180000000  0.5293000000000  0.4948580000000 1.0
C      1  0.4198510000000  0.4846130000000  0.4933170000000 1.0
C      1  0.4933170000000  0.4198510000000  0.4846130000000 1.0
C      1  0.4846130000000  0.4933170000000  0.4198510000000 1.0
C      1  0.4198510000000  0.5153870000000  0.5066830000000 1.0
C      1  0.5801490000000  0.5153870000000  0.4933170000000 1.0
C      1  0.5801490000000  0.4846130000000  0.5066830000000 1.0
C      1  0.4933170000000  0.5801490000000  0.5153870000000 1.0
C      1  0.5066830000000  0.5801490000000  0.4846130000000 1.0
C      1  0.5066830000000  0.4198510000000  0.5153870000000 1.0
C      1  0.4846130000000  0.5066830000000  0.5801490000000 1.0
C      1  0.5153870000000  0.5066830000000  0.4198510000000 1.0
C      1  0.5153870000000  0.4933170000000  0.5801490000000 1.0
C      1  0.4198510000000  0.4933170000000  0.4846130000000 1.0
C      1  0.4933170000000  0.4846130000000  0.4198510000000 1.0
C      1  0.4846130000000  0.4198510000000  0.4933170000000 1.0
C      1  0.4198510000000  0.5066830000000  0.5153870000000 1.0
C      1  0.5801490000000  0.4933170000000  0.5153870000000 1.0
C      1  0.5801490000000  0.5066830000000  0.4846130000000 1.0
C      1  0.4933170000000  0.5153870000000  0.5801490000000 1.0
C      1  0.5066830000000  0.4846130000000  0.5801490000000 1.0
C      1  0.5066830000000  0.5153870000000  0.4198510000000 1.0
C      1  0.4846130000000  0.5801490000000  0.5066830000000 1.0
C      1  0.5153870000000  0.4198510000000  0.5066830000000 1.0
C      1  0.5153870000000  0.5801490000000  0.4933170000000 1.0
C      1  0.4481310000000  0.5127320000000  0.5334400000000 1.0
C      1  0.5334400000000  0.4481310000000  0.5127320000000 1.0
C      1  0.5127320000000  0.5334400000000  0.4481310000000 1.0
C      1  0.4481310000000  0.4872680000000  0.4665600000000 1.0
C      1  0.5518690000000  0.4872680000000  0.5334400000000 1.0
C      1  0.5518690000000  0.5127320000000  0.4665600000000 1.0
C      1  0.5334400000000  0.5518690000000  0.4872680000000 1.0
C      1  0.4665600000000  0.5518690000000  0.5127320000000 1.0
C      1  0.4665600000000  0.4481310000000  0.4872680000000 1.0
C      1  0.5127320000000  0.4665600000000  0.5518690000000 1.0
C      1  0.4872680000000  0.4665600000000  0.4481310000000 1.0
C      1  0.4872680000000  0.5334400000000  0.5518690000000 1.0
C      1  0.4481310000000  0.5334400000000  0.5127320000000 1.0
C      1  0.5334400000000  0.5127320000000  0.4481310000000 1.0
C      1  0.5127320000000  0.4481310000000  0.5334400000000 1.0
C      1  0.4481310000000  0.4665600000000  0.4872680000000 1.0
C      1  0.5518690000000  0.5334400000000  0.4872680000000 1.0
C      1  0.5518690000000  0.4665600000000  0.5127320000000 1.0
C      1  0.5334400000000  0.4872680000000  0.5518690000000 1.0
C      1  0.4665600000000  0.5127320000000  0.5518690000000 1.0
C      1  0.4665600000000  0.4872680000000  0.4481310000000 1.0
C      1  0.5127320000000  0.5518690000000  0.4665600000000 1.0
C      1  0.4872680000000  0.4481310000000  0.4665600000000 1.0
C      1  0.4872680000000  0.5518690000000  0.5334400000000 1.0
C      1  0.4675330000000  0.5599310000000  0.4780930000000 1.0
C      1  0.4780930000000  0.4675330000000  0.5599310000000 1.0
C      1  0.5599310000000  0.4780930000000  0.4675330000000 1.0
C      1  0.4675330000000  0.4400690000000  0.5219070000000 1.0
C      1  0.5324670000000  0.4400690000000  0.4780930000000 1.0
C      1  0.5324670000000  0.5599310000000  0.5219070000000 1.0
C      1  0.4780930000000  0.5324670000000  0.4400690000000 1.0
C      1  0.5219070000000  0.5324670000000  0.5599310000000 1.0
C      1  0.5219070000000  0.4675330000000  0.4400690000000 1.0
C      1  0.5599310000000  0.5219070000000  0.5324670000000 1.0
C      1  0.4400690000000  0.5219070000000  0.4675330000000 1.0
C      1  0.4400690000000  0.4780930000000  0.5324670000000 1.0
C      1  0.4675330000000  0.4780930000000  0.5599310000000 1.0
C      1  0.4780930000000  0.5599310000000  0.4675330000000 1.0
C      1  0.5599310000000  0.4675330000000  0.4780930000000 1.0
C      1  0.4675330000000  0.5219070000000  0.4400690000000 1.0
C      1  0.5324670000000  0.4780930000000  0.4400690000000 1.0
C      1  0.5324670000000  0.5219070000000  0.5599310000000 1.0
C      1  0.4780930000000  0.4400690000000  0.5324670000000 1.0
C      1  0.5219070000000  0.5599310000000  0.5324670000000 1.0
C      1  0.5219070000000  0.4400690000000  0.4675330000000 1.0
C      1  0.5599310000000  0.5324670000000  0.5219070000000 1.0
C      1  0.4400690000000  0.4675330000000  0.5219070000000 1.0
C      1  0.4400690000000  0.5324670000000  0.4780930000000 1.0
C      1  0.5207740000000  0.4475450000000  0.4563690000000 1.0
C      1  0.4563690000000  0.5207740000000  0.4475450000000 1.0
C      1  0.4475450000000  0.4563690000000  0.5207740000000 1.0
C      1  0.5207740000000  0.5524550000000  0.5436310000000 1.0
C      1  0.4792260000000  0.5524550000000  0.4563690000000 1.0
C      1  0.4792260000000  0.4475450000000  0.5436310000000 1.0
C      1  0.4563690000000  0.4792260000000  0.5524550000000 1.0
C      1  0.5436310000000  0.4792260000000  0.4475450000000 1.0
C      1  0.5436310000000  0.5207740000000  0.5524550000000 1.0
C      1  0.4475450000000  0.5436310000000  0.4792260000000 1.0
C      1  0.5524550000000  0.5436310000000  0.5207740000000 1.0
C      1  0.5524550000000  0.4563690000000  0.4792260000000 1.0
C      1  0.5207740000000  0.4563690000000  0.4475450000000 1.0
C      1  0.4563690000000  0.4475450000000  0.5207740000000 1.0
C      1  0.4475450000000  0.5207740000000  0.4563690000000 1.0
C      1  0.5207740000000  0.5436310000000  0.5524550000000 1.0
C      1  0.4792260000000  0.4563690000000  0.5524550000000 1.0
C      1  0.4792260000000  0.5436310000000  0.4475450000000 1.0
C      1  0.4563690000000  0.5524550000000  0.4792260000000 1.0
C      1  0.5436310000000  0.4475450000000  0.4792260000000 1.0
C      1  0.5436310000000  0.5524550000000  0.5207740000000 1.0
C      1  0.4475450000000  0.4792260000000  0.5436310000000 1.0
C      1  0.5524550000000  0.5207740000000  0.5436310000000 1.0
C      1  0.5524550000000  0.4792260000000  0.4563690000000 1.0
END
