TITL C-1379267-1329-346 1.22908343653618e-06 1000000 -2827.88450517171 0 0 420 (Th) n - 1
REM
REM in /nfs/bkarasulu/CARBON/AIRSS/Generating-Clusters/GAP-ML-2020/Higher-Symm/Selected-Sizes/TryA-Only_Ih-Symm/Larger-Clusters/Try2-MINAMP_6A
REM
REM
REM
REM
REM
REM ./C.cell (31579ac4e95a012ec27f3239692ae8a5)
REM
REM compiler GCC version 9.2.1 20190827 (Red Hat 9.2.1-1)
REM options -cpp -mtune=generic -march=x86-64 -g -O0 -fpre-include=/usr/include/finclude/math-vector-fortran.h
REM seed -1618333743 1666538411 1366514166 -366631177 478315321 -356382459 1512845780 283465328 -1747267817 1814509397 -621346295 -1790232366 482819202 -1848957419 293608792 -110487200 -1017877387 -1361226490 1535617769 2040119591 -1805321123 -16529630 -636442291 353017807 860946334 -1989352840 1055427337 -1946992387 654736203 31304087 245736513 -1919314586 -8321854
REM
CELL 1.54180  100.00000  100.00000  100.00000   90.00000   90.00000   90.00000
LATT -1
SFAC C  
C      1  0.5815970000000  0.5072860000000  0.5071880000000 1.0
C      1  0.5072860000000  0.5071880000000  0.5815970000000 1.0
C      1  0.5071880000000  0.5815970000000  0.5072860000000 1.0
C      1  0.4184030000000  0.5072860000000  0.4928120000000 1.0
C      1  0.4184030000000  0.4927140000000  0.5071880000000 1.0
C      1  0.5815970000000  0.4927140000000  0.4928120000000 1.0
C      1  0.4927140000000  0.5071880000000  0.4184030000000 1.0
C      1  0.4927140000000  0.4928120000000  0.5815970000000 1.0
C      1  0.5072860000000  0.4928120000000  0.4184030000000 1.0
C      1  0.4928120000000  0.5815970000000  0.4927140000000 1.0
C      1  0.4928120000000  0.4184030000000  0.5072860000000 1.0
C      1  0.5071880000000  0.4184030000000  0.4927140000000 1.0
C      1  0.5815970000000  0.4927140000000  0.5071880000000 1.0
C      1  0.5072860000000  0.4928120000000  0.5815970000000 1.0
C      1  0.5071880000000  0.4184030000000  0.5072860000000 1.0
C      1  0.4184030000000  0.4927140000000  0.4928120000000 1.0
C      1  0.4184030000000  0.5072860000000  0.5071880000000 1.0
C      1  0.5815970000000  0.5072860000000  0.4928120000000 1.0
C      1  0.4927140000000  0.4928120000000  0.4184030000000 1.0
C      1  0.4927140000000  0.5071880000000  0.5815970000000 1.0
C      1  0.5072860000000  0.5071880000000  0.4184030000000 1.0
C      1  0.4928120000000  0.4184030000000  0.4927140000000 1.0
C      1  0.4928120000000  0.5815970000000  0.5072860000000 1.0
C      1  0.5071880000000  0.5815970000000  0.4927140000000 1.0
C      1  0.5156140000000  0.5690430000000  0.5376720000000 1.0
C      1  0.5690430000000  0.5376720000000  0.5156140000000 1.0
C      1  0.5376720000000  0.5156140000000  0.5690430000000 1.0
C      1  0.4843860000000  0.5690430000000  0.4623280000000 1.0
C      1  0.4843860000000  0.4309570000000  0.5376720000000 1.0
C      1  0.5156140000000  0.4309570000000  0.4623280000000 1.0
C      1  0.4309570000000  0.5376720000000  0.4843860000000 1.0
C      1  0.4309570000000  0.4623280000000  0.5156140000000 1.0
C      1  0.5690430000000  0.4623280000000  0.4843860000000 1.0
C      1  0.4623280000000  0.5156140000000  0.4309570000000 1.0
C      1  0.4623280000000  0.4843860000000  0.5690430000000 1.0
C      1  0.5376720000000  0.4843860000000  0.4309570000000 1.0
C      1  0.5156140000000  0.4309570000000  0.5376720000000 1.0
C      1  0.5690430000000  0.4623280000000  0.5156140000000 1.0
C      1  0.5376720000000  0.4843860000000  0.5690430000000 1.0
C      1  0.4843860000000  0.4309570000000  0.4623280000000 1.0
C      1  0.4843860000000  0.5690430000000  0.5376720000000 1.0
C      1  0.5156140000000  0.5690430000000  0.4623280000000 1.0
C      1  0.4309570000000  0.4623280000000  0.4843860000000 1.0
C      1  0.4309570000000  0.5376720000000  0.5156140000000 1.0
C      1  0.5690430000000  0.5376720000000  0.4843860000000 1.0
C      1  0.4623280000000  0.4843860000000  0.4309570000000 1.0
C      1  0.4623280000000  0.5156140000000  0.5690430000000 1.0
C      1  0.5376720000000  0.5156140000000  0.4309570000000 1.0
C      1  0.4681250000000  0.5422220000000  0.4707980000000 1.0
C      1  0.5422220000000  0.4707980000000  0.4681260000000 1.0
C      1  0.4707970000000  0.4681260000000  0.5422220000000 1.0
C      1  0.5318740000000  0.5422220000000  0.5292020000000 1.0
C      1  0.5318740000000  0.4577780000000  0.4707970000000 1.0
C      1  0.4681260000000  0.4577780000000  0.5292020000000 1.0
C      1  0.4577780000000  0.4707980000000  0.5318750000000 1.0
C      1  0.4577780000000  0.5292030000000  0.4681260000000 1.0
C      1  0.5422220000000  0.5292020000000  0.5318740000000 1.0
C      1  0.5292020000000  0.4681250000000  0.4577780000000 1.0
C      1  0.5292020000000  0.5318740000000  0.5422220000000 1.0
C      1  0.4707980000000  0.5318740000000  0.4577780000000 1.0
C      1  0.4681250000000  0.4577780000000  0.4707980000000 1.0
C      1  0.5422220000000  0.5292020000000  0.4681250000000 1.0
C      1  0.4707980000000  0.5318740000000  0.5422220000000 1.0
C      1  0.5318740000000  0.4577780000000  0.5292020000000 1.0
C      1  0.5318740000000  0.5422220000000  0.4707980000000 1.0
C      1  0.4681260000000  0.5422220000000  0.5292020000000 1.0
C      1  0.4577780000000  0.5292020000000  0.5318740000000 1.0
C      1  0.4577780000000  0.4707970000000  0.4681260000000 1.0
C      1  0.5422220000000  0.4707980000000  0.5318750000000 1.0
C      1  0.5292020000000  0.5318740000000  0.4577780000000 1.0
C      1  0.5292020000000  0.4681260000000  0.5422220000000 1.0
C      1  0.4707980000000  0.4681250000000  0.4577780000000 1.0
C      1  0.4826200000000  0.4691970000000  0.5715430000000 1.0
C      1  0.4691970000000  0.5715430000000  0.4826200000000 1.0
C      1  0.5715430000000  0.4826200000000  0.4691970000000 1.0
C      1  0.5173800000000  0.4691970000000  0.4284570000000 1.0
C      1  0.5173800000000  0.5308030000000  0.5715430000000 1.0
C      1  0.4826200000000  0.5308030000000  0.4284570000000 1.0
C      1  0.5308030000000  0.5715430000000  0.5173800000000 1.0
C      1  0.5308030000000  0.4284570000000  0.4826200000000 1.0
C      1  0.4691970000000  0.4284570000000  0.5173800000000 1.0
C      1  0.4284570000000  0.4826200000000  0.5308030000000 1.0
C      1  0.4284570000000  0.5173800000000  0.4691970000000 1.0
C      1  0.5715430000000  0.5173800000000  0.5308030000000 1.0
C      1  0.4826200000000  0.5308030000000  0.5715430000000 1.0
C      1  0.4691970000000  0.4284570000000  0.4826200000000 1.0
C      1  0.5715430000000  0.5173800000000  0.4691970000000 1.0
C      1  0.5173800000000  0.5308030000000  0.4284570000000 1.0
C      1  0.5173800000000  0.4691970000000  0.5715430000000 1.0
C      1  0.4826200000000  0.4691970000000  0.4284570000000 1.0
C      1  0.5308030000000  0.4284570000000  0.5173800000000 1.0
C      1  0.5308030000000  0.5715430000000  0.4826200000000 1.0
C      1  0.4691970000000  0.5715430000000  0.5173800000000 1.0
C      1  0.4284570000000  0.5173800000000  0.5308030000000 1.0
C      1  0.4284570000000  0.4826200000000  0.4691970000000 1.0
C      1  0.5715430000000  0.4826200000000  0.5308030000000 1.0
C      1  0.5427890000000  0.5532780000000  0.4670390000000 1.0
C      1  0.5532780000000  0.4670390000000  0.5427890000000 1.0
C      1  0.4670390000000  0.5427890000000  0.5532780000000 1.0
C      1  0.4572110000000  0.5532780000000  0.5329610000000 1.0
C      1  0.4572110000000  0.4467220000000  0.4670390000000 1.0
C      1  0.5427890000000  0.4467220000000  0.5329610000000 1.0
C      1  0.4467220000000  0.4670390000000  0.4572110000000 1.0
C      1  0.4467220000000  0.5329610000000  0.5427890000000 1.0
C      1  0.5532780000000  0.5329610000000  0.4572110000000 1.0
C      1  0.5329610000000  0.5427890000000  0.4467220000000 1.0
C      1  0.5329610000000  0.4572110000000  0.5532780000000 1.0
C      1  0.4670390000000  0.4572110000000  0.4467220000000 1.0
C      1  0.5427890000000  0.4467220000000  0.4670390000000 1.0
C      1  0.5532780000000  0.5329610000000  0.5427890000000 1.0
C      1  0.4670390000000  0.4572110000000  0.5532780000000 1.0
C      1  0.4572110000000  0.4467220000000  0.5329610000000 1.0
C      1  0.4572110000000  0.5532780000000  0.4670390000000 1.0
C      1  0.5427890000000  0.5532780000000  0.5329610000000 1.0
C      1  0.4467220000000  0.5329610000000  0.4572110000000 1.0
C      1  0.4467220000000  0.4670390000000  0.5427890000000 1.0
C      1  0.5532780000000  0.4670390000000  0.4572110000000 1.0
C      1  0.5329610000000  0.4572110000000  0.4467220000000 1.0
C      1  0.5329610000000  0.5427890000000  0.5532780000000 1.0
C      1  0.4670390000000  0.5427890000000  0.4467220000000 1.0
C      1  0.4926070000000  0.5448120000000  0.5424450000000 1.0
C      1  0.5448120000000  0.5424450000000  0.4926070000000 1.0
C      1  0.5424450000000  0.4926070000000  0.5448120000000 1.0
C      1  0.5073930000000  0.5448120000000  0.4575550000000 1.0
C      1  0.5073930000000  0.4551880000000  0.5424450000000 1.0
C      1  0.4926070000000  0.4551880000000  0.4575550000000 1.0
C      1  0.4551880000000  0.5424450000000  0.5073930000000 1.0
C      1  0.4551880000000  0.4575550000000  0.4926070000000 1.0
C      1  0.5448120000000  0.4575550000000  0.5073930000000 1.0
C      1  0.4575550000000  0.4926070000000  0.4551880000000 1.0
C      1  0.4575550000000  0.5073930000000  0.5448120000000 1.0
C      1  0.5424450000000  0.5073930000000  0.4551880000000 1.0
C      1  0.4926070000000  0.4551880000000  0.5424450000000 1.0
C      1  0.5448120000000  0.4575550000000  0.4926070000000 1.0
C      1  0.5424450000000  0.5073930000000  0.5448120000000 1.0
C      1  0.5073930000000  0.4551880000000  0.4575550000000 1.0
C      1  0.5073930000000  0.5448120000000  0.5424450000000 1.0
C      1  0.4926070000000  0.5448120000000  0.4575550000000 1.0
C      1  0.4551880000000  0.4575550000000  0.5073930000000 1.0
C      1  0.4551880000000  0.5424450000000  0.4926070000000 1.0
C      1  0.5448120000000  0.5424450000000  0.5073930000000 1.0
C      1  0.4575550000000  0.5073930000000  0.4551880000000 1.0
C      1  0.4575550000000  0.4926070000000  0.5448120000000 1.0
C      1  0.5424450000000  0.4926070000000  0.4551880000000 1.0
C      1  0.5067690000000  0.4331470000000  0.4728410000000 1.0
C      1  0.4331470000000  0.4728410000000  0.5067690000000 1.0
C      1  0.4728410000000  0.5067690000000  0.4331470000000 1.0
C      1  0.4932310000000  0.4331470000000  0.5271590000000 1.0
C      1  0.4932310000000  0.5668530000000  0.4728410000000 1.0
C      1  0.5067690000000  0.5668530000000  0.5271590000000 1.0
C      1  0.5668530000000  0.4728410000000  0.4932310000000 1.0
C      1  0.5668530000000  0.5271590000000  0.5067690000000 1.0
C      1  0.4331470000000  0.5271590000000  0.4932310000000 1.0
C      1  0.5271590000000  0.5067690000000  0.5668530000000 1.0
C      1  0.5271590000000  0.4932310000000  0.4331470000000 1.0
C      1  0.4728410000000  0.4932310000000  0.5668530000000 1.0
C      1  0.5067690000000  0.5668530000000  0.4728410000000 1.0
C      1  0.4331470000000  0.5271590000000  0.5067690000000 1.0
C      1  0.4728410000000  0.4932310000000  0.4331470000000 1.0
C      1  0.4932310000000  0.5668530000000  0.5271590000000 1.0
C      1  0.4932310000000  0.4331470000000  0.4728410000000 1.0
C      1  0.5067690000000  0.4331470000000  0.5271590000000 1.0
C      1  0.5668530000000  0.5271590000000  0.4932310000000 1.0
C      1  0.5668530000000  0.4728410000000  0.5067690000000 1.0
C      1  0.4331470000000  0.4728410000000  0.4932310000000 1.0
C      1  0.5271590000000  0.4932310000000  0.5668530000000 1.0
C      1  0.5271590000000  0.5067690000000  0.4331470000000 1.0
C      1  0.4728410000000  0.5067690000000  0.5668530000000 1.0
C      1  0.5557450000000  0.4383430000000  0.5070770000000 1.0
C      1  0.4383430000000  0.5070770000000  0.5557450000000 1.0
C      1  0.5070770000000  0.5557450000000  0.4383430000000 1.0
C      1  0.4442550000000  0.4383430000000  0.4929230000000 1.0
C      1  0.4442550000000  0.5616570000000  0.5070770000000 1.0
C      1  0.5557450000000  0.5616570000000  0.4929230000000 1.0
C      1  0.5616570000000  0.5070770000000  0.4442550000000 1.0
C      1  0.5616570000000  0.4929230000000  0.5557450000000 1.0
C      1  0.4383430000000  0.4929230000000  0.4442550000000 1.0
C      1  0.4929230000000  0.5557450000000  0.5616570000000 1.0
C      1  0.4929230000000  0.4442550000000  0.4383430000000 1.0
C      1  0.5070770000000  0.4442550000000  0.5616570000000 1.0
C      1  0.5557450000000  0.5616570000000  0.5070770000000 1.0
C      1  0.4383430000000  0.4929230000000  0.5557450000000 1.0
C      1  0.5070770000000  0.4442550000000  0.4383430000000 1.0
C      1  0.4442550000000  0.5616570000000  0.4929230000000 1.0
C      1  0.4442550000000  0.4383430000000  0.5070770000000 1.0
C      1  0.5557450000000  0.4383430000000  0.4929230000000 1.0
C      1  0.5616570000000  0.4929230000000  0.4442550000000 1.0
C      1  0.5616570000000  0.5070770000000  0.5557450000000 1.0
C      1  0.4383430000000  0.5070770000000  0.4442550000000 1.0
C      1  0.4929230000000  0.4442550000000  0.5616570000000 1.0
C      1  0.4929230000000  0.5557450000000  0.4383430000000 1.0
C      1  0.5070770000000  0.5557450000000  0.5616570000000 1.0
C      1  0.4350940000000  0.4901000000000  0.5411810000000 1.0
C      1  0.4901000000000  0.5411810000000  0.4350940000000 1.0
C      1  0.5411810000000  0.4350940000000  0.4901000000000 1.0
C      1  0.5649060000000  0.4901000000000  0.4588190000000 1.0
C      1  0.5649060000000  0.5099000000000  0.5411810000000 1.0
C      1  0.4350940000000  0.5099000000000  0.4588190000000 1.0
C      1  0.5099000000000  0.5411810000000  0.5649060000000 1.0
C      1  0.5099000000000  0.4588190000000  0.4350940000000 1.0
C      1  0.4901000000000  0.4588190000000  0.5649060000000 1.0
C      1  0.4588190000000  0.4350940000000  0.5099000000000 1.0
C      1  0.4588190000000  0.5649060000000  0.4901000000000 1.0
C      1  0.5411810000000  0.5649060000000  0.5099000000000 1.0
C      1  0.4350940000000  0.5099000000000  0.5411810000000 1.0
C      1  0.4901000000000  0.4588190000000  0.4350940000000 1.0
C      1  0.5411810000000  0.5649060000000  0.4901000000000 1.0
C      1  0.5649060000000  0.5099000000000  0.4588190000000 1.0
C      1  0.5649060000000  0.4901000000000  0.5411810000000 1.0
C      1  0.4350940000000  0.4901000000000  0.4588190000000 1.0
C      1  0.5099000000000  0.4588190000000  0.5649060000000 1.0
C      1  0.5099000000000  0.5411810000000  0.4350940000000 1.0
C      1  0.4901000000000  0.5411810000000  0.5649060000000 1.0
C      1  0.4588190000000  0.5649060000000  0.5099000000000 1.0
C      1  0.4588190000000  0.4350940000000  0.4901000000000 1.0
C      1  0.5411810000000  0.4350940000000  0.5099000000000 1.0
C      1  0.4713230000000  0.4282730000000  0.5321700000000 1.0
C      1  0.4282730000000  0.5321700000000  0.4713230000000 1.0
C      1  0.5321700000000  0.4713230000000  0.4282730000000 1.0
C      1  0.5286770000000  0.4282730000000  0.4678300000000 1.0
C      1  0.5286770000000  0.5717270000000  0.5321700000000 1.0
C      1  0.4713230000000  0.5717270000000  0.4678300000000 1.0
C      1  0.5717270000000  0.5321700000000  0.5286770000000 1.0
C      1  0.5717270000000  0.4678300000000  0.4713230000000 1.0
C      1  0.4282730000000  0.4678300000000  0.5286770000000 1.0
C      1  0.4678300000000  0.4713230000000  0.5717270000000 1.0
C      1  0.4678300000000  0.5286770000000  0.4282730000000 1.0
C      1  0.5321700000000  0.5286770000000  0.5717270000000 1.0
C      1  0.4713230000000  0.5717270000000  0.5321700000000 1.0
C      1  0.4282730000000  0.4678300000000  0.4713230000000 1.0
C      1  0.5321700000000  0.5286770000000  0.4282730000000 1.0
C      1  0.5286770000000  0.5717270000000  0.4678300000000 1.0
C      1  0.5286770000000  0.4282730000000  0.5321700000000 1.0
C      1  0.4713230000000  0.4282730000000  0.4678300000000 1.0
C      1  0.5717270000000  0.4678300000000  0.5286770000000 1.0
C      1  0.5717270000000  0.5321700000000  0.4713230000000 1.0
C      1  0.4282730000000  0.5321700000000  0.5286770000000 1.0
C      1  0.4678300000000  0.5286770000000  0.5717270000000 1.0
C      1  0.4678300000000  0.4713230000000  0.4282730000000 1.0
C      1  0.5321700000000  0.4713230000000  0.5717270000000 1.0
C      1  0.5503700000000  0.5292530000000  0.5561980000000 1.0
C      1  0.5292530000000  0.5561980000000  0.5503700000000 1.0
C      1  0.5561980000000  0.5503700000000  0.5292530000000 1.0
C      1  0.4496300000000  0.5292530000000  0.4438020000000 1.0
C      1  0.4496300000000  0.4707470000000  0.5561980000000 1.0
C      1  0.5503700000000  0.4707470000000  0.4438020000000 1.0
C      1  0.4707470000000  0.5561980000000  0.4496300000000 1.0
C      1  0.4707470000000  0.4438020000000  0.5503700000000 1.0
C      1  0.5292530000000  0.4438020000000  0.4496300000000 1.0
C      1  0.4438020000000  0.5503700000000  0.4707470000000 1.0
C      1  0.4438020000000  0.4496300000000  0.5292530000000 1.0
C      1  0.5561980000000  0.4496300000000  0.4707470000000 1.0
C      1  0.5503700000000  0.4707470000000  0.5561980000000 1.0
C      1  0.5292530000000  0.4438020000000  0.5503700000000 1.0
C      1  0.5561980000000  0.4496300000000  0.5292530000000 1.0
C      1  0.4496300000000  0.4707470000000  0.4438020000000 1.0
C      1  0.4496300000000  0.5292530000000  0.5561980000000 1.0
C      1  0.5503700000000  0.5292530000000  0.4438020000000 1.0
C      1  0.4707470000000  0.4438020000000  0.4496300000000 1.0
C      1  0.4707470000000  0.5561980000000  0.5503700000000 1.0
C      1  0.5292530000000  0.5561980000000  0.4496300000000 1.0
C      1  0.4438020000000  0.4496300000000  0.4707470000000 1.0
C      1  0.4438020000000  0.5503700000000  0.5292530000000 1.0
C      1  0.5561980000000  0.5503700000000  0.4707470000000 1.0
C      1  0.5713740000000  0.5079710000000  0.4811380000000 1.0
C      1  0.5079710000000  0.4811380000000  0.5713740000000 1.0
C      1  0.4811380000000  0.5713740000000  0.5079710000000 1.0
C      1  0.4286260000000  0.5079710000000  0.5188620000000 1.0
C      1  0.4286260000000  0.4920290000000  0.4811380000000 1.0
C      1  0.5713740000000  0.4920290000000  0.5188620000000 1.0
C      1  0.4920290000000  0.4811380000000  0.4286260000000 1.0
C      1  0.4920290000000  0.5188620000000  0.5713740000000 1.0
C      1  0.5079710000000  0.5188620000000  0.4286260000000 1.0
C      1  0.5188620000000  0.5713740000000  0.4920290000000 1.0
C      1  0.5188620000000  0.4286260000000  0.5079710000000 1.0
C      1  0.4811380000000  0.4286260000000  0.4920290000000 1.0
C      1  0.5713740000000  0.4920290000000  0.4811380000000 1.0
C      1  0.5079710000000  0.5188620000000  0.5713740000000 1.0
C      1  0.4811380000000  0.4286260000000  0.5079710000000 1.0
C      1  0.4286260000000  0.4920290000000  0.5188620000000 1.0
C      1  0.4286260000000  0.5079710000000  0.4811380000000 1.0
C      1  0.5713740000000  0.5079710000000  0.5188620000000 1.0
C      1  0.4920290000000  0.5188620000000  0.4286260000000 1.0
C      1  0.4920290000000  0.4811380000000  0.5713740000000 1.0
C      1  0.5079710000000  0.4811380000000  0.4286260000000 1.0
C      1  0.5188620000000  0.4286260000000  0.4920290000000 1.0
C      1  0.5188620000000  0.5713740000000  0.5079710000000 1.0
C      1  0.4811380000000  0.5713740000000  0.4920290000000 1.0
C      1  0.4510490000000  0.5150220000000  0.4415890000000 1.0
C      1  0.5150220000000  0.4415890000000  0.4510490000000 1.0
C      1  0.4415890000000  0.4510490000000  0.5150220000000 1.0
C      1  0.5489510000000  0.5150220000000  0.5584110000000 1.0
C      1  0.5489510000000  0.4849780000000  0.4415890000000 1.0
C      1  0.4510490000000  0.4849780000000  0.5584110000000 1.0
C      1  0.4849780000000  0.4415890000000  0.5489510000000 1.0
C      1  0.4849780000000  0.5584110000000  0.4510490000000 1.0
C      1  0.5150220000000  0.5584110000000  0.5489510000000 1.0
C      1  0.5584110000000  0.4510490000000  0.4849780000000 1.0
C      1  0.5584110000000  0.5489510000000  0.5150220000000 1.0
C      1  0.4415890000000  0.5489510000000  0.4849780000000 1.0
C      1  0.4510490000000  0.4849780000000  0.4415890000000 1.0
C      1  0.5150220000000  0.5584110000000  0.4510490000000 1.0
C      1  0.4415890000000  0.5489510000000  0.5150220000000 1.0
C      1  0.5489510000000  0.4849780000000  0.5584110000000 1.0
C      1  0.5489510000000  0.5150220000000  0.4415890000000 1.0
C      1  0.4510490000000  0.5150220000000  0.5584110000000 1.0
C      1  0.4849780000000  0.5584110000000  0.5489510000000 1.0
C      1  0.4849780000000  0.4415890000000  0.4510490000000 1.0
C      1  0.5150220000000  0.4415890000000  0.5489510000000 1.0
C      1  0.5584110000000  0.5489510000000  0.4849780000000 1.0
C      1  0.5584110000000  0.4510490000000  0.5150220000000 1.0
C      1  0.4415890000000  0.4510490000000  0.4849780000000 1.0
C      1  0.4787100000000  0.4807040000000  0.4537980000000 1.0
C      1  0.4807040000000  0.4537980000000  0.4787100000000 1.0
C      1  0.4537980000000  0.4787100000000  0.4807040000000 1.0
C      1  0.5212900000000  0.4807040000000  0.5462020000000 1.0
C      1  0.5212900000000  0.5192960000000  0.4537980000000 1.0
C      1  0.4787100000000  0.5192960000000  0.5462020000000 1.0
C      1  0.5192960000000  0.4537980000000  0.5212900000000 1.0
C      1  0.5192960000000  0.5462020000000  0.4787100000000 1.0
C      1  0.4807040000000  0.5462020000000  0.5212900000000 1.0
C      1  0.5462020000000  0.4787100000000  0.5192960000000 1.0
C      1  0.5462020000000  0.5212900000000  0.4807040000000 1.0
C      1  0.4537980000000  0.5212900000000  0.5192960000000 1.0
C      1  0.4787100000000  0.5192960000000  0.4537980000000 1.0
C      1  0.4807040000000  0.5462020000000  0.4787100000000 1.0
C      1  0.4537980000000  0.5212900000000  0.4807040000000 1.0
C      1  0.5212900000000  0.5192960000000  0.5462020000000 1.0
C      1  0.5212900000000  0.4807040000000  0.4537980000000 1.0
C      1  0.4787100000000  0.4807040000000  0.5462020000000 1.0
C      1  0.5192960000000  0.5462020000000  0.5212900000000 1.0
C      1  0.5192960000000  0.4537980000000  0.4787100000000 1.0
C      1  0.4807040000000  0.4537980000000  0.5212900000000 1.0
C      1  0.5462020000000  0.5212900000000  0.5192960000000 1.0
C      1  0.5462020000000  0.4787100000000  0.4807040000000 1.0
C      1  0.4537980000000  0.4787100000000  0.5192960000000 1.0
C      1  0.4840130000000  0.4853750000000  0.5593440000000 1.0
C      1  0.4853750000000  0.5593440000000  0.4840130000000 1.0
C      1  0.5593440000000  0.4840130000000  0.4853750000000 1.0
C      1  0.5159870000000  0.4853750000000  0.4406560000000 1.0
C      1  0.5159870000000  0.5146250000000  0.5593440000000 1.0
C      1  0.4840130000000  0.5146250000000  0.4406560000000 1.0
C      1  0.5146250000000  0.5593440000000  0.5159870000000 1.0
C      1  0.5146250000000  0.4406560000000  0.4840130000000 1.0
C      1  0.4853750000000  0.4406560000000  0.5159870000000 1.0
C      1  0.4406560000000  0.4840130000000  0.5146250000000 1.0
C      1  0.4406560000000  0.5159870000000  0.4853750000000 1.0
C      1  0.5593440000000  0.5159870000000  0.5146250000000 1.0
C      1  0.4840130000000  0.5146250000000  0.5593440000000 1.0
C      1  0.4853750000000  0.4406560000000  0.4840130000000 1.0
C      1  0.5593440000000  0.5159870000000  0.4853750000000 1.0
C      1  0.5159870000000  0.5146250000000  0.4406560000000 1.0
C      1  0.5159870000000  0.4853750000000  0.5593440000000 1.0
C      1  0.4840130000000  0.4853750000000  0.4406560000000 1.0
C      1  0.5146250000000  0.4406560000000  0.5159870000000 1.0
C      1  0.5146250000000  0.5593440000000  0.4840130000000 1.0
C      1  0.4853750000000  0.5593440000000  0.5159870000000 1.0
C      1  0.4406560000000  0.5159870000000  0.5146250000000 1.0
C      1  0.4406560000000  0.4840130000000  0.4853750000000 1.0
C      1  0.5593440000000  0.4840130000000  0.5146250000000 1.0
C      1  0.5278840000000  0.5072430000000  0.5410010000000 1.0
C      1  0.5072430000000  0.5410010000000  0.5278840000000 1.0
C      1  0.5410010000000  0.5278840000000  0.5072430000000 1.0
C      1  0.4721160000000  0.5072430000000  0.4589990000000 1.0
C      1  0.4721160000000  0.4927570000000  0.5410010000000 1.0
C      1  0.5278840000000  0.4927570000000  0.4589990000000 1.0
C      1  0.4927570000000  0.5410010000000  0.4721160000000 1.0
C      1  0.4927570000000  0.4589990000000  0.5278840000000 1.0
C      1  0.5072430000000  0.4589990000000  0.4721160000000 1.0
C      1  0.4589990000000  0.5278840000000  0.4927570000000 1.0
C      1  0.4589990000000  0.4721160000000  0.5072430000000 1.0
C      1  0.5410010000000  0.4721160000000  0.4927570000000 1.0
C      1  0.5278840000000  0.4927570000000  0.5410010000000 1.0
C      1  0.5072430000000  0.4589990000000  0.5278840000000 1.0
C      1  0.5410010000000  0.4721160000000  0.5072430000000 1.0
C      1  0.4721160000000  0.4927570000000  0.4589990000000 1.0
C      1  0.4721160000000  0.5072430000000  0.5410010000000 1.0
C      1  0.5278840000000  0.5072430000000  0.4589990000000 1.0
C      1  0.4927570000000  0.4589990000000  0.4721160000000 1.0
C      1  0.4927570000000  0.5410010000000  0.5278840000000 1.0
C      1  0.5072430000000  0.5410010000000  0.4721160000000 1.0
C      1  0.4589990000000  0.4721160000000  0.4927570000000 1.0
C      1  0.4589990000000  0.5278840000000  0.5072430000000 1.0
C      1  0.5410010000000  0.5278840000000  0.4927570000000 1.0
C      1  0.4595680000000  0.5366440000000  0.4363420000000 1.0
C      1  0.5366440000000  0.4363420000000  0.4595680000000 1.0
C      1  0.4363420000000  0.4595680000000  0.5366440000000 1.0
C      1  0.5404320000000  0.5366440000000  0.5636580000000 1.0
C      1  0.5404320000000  0.4633560000000  0.4363420000000 1.0
C      1  0.4595680000000  0.4633560000000  0.5636580000000 1.0
C      1  0.4633560000000  0.4363420000000  0.5404320000000 1.0
C      1  0.4633560000000  0.5636580000000  0.4595680000000 1.0
C      1  0.5366440000000  0.5636580000000  0.5404320000000 1.0
C      1  0.5636580000000  0.4595680000000  0.4633560000000 1.0
C      1  0.5636580000000  0.5404320000000  0.5366440000000 1.0
C      1  0.4363420000000  0.5404320000000  0.4633560000000 1.0
C      1  0.4595680000000  0.4633560000000  0.4363420000000 1.0
C      1  0.5366440000000  0.5636580000000  0.4595680000000 1.0
C      1  0.4363420000000  0.5404320000000  0.5366440000000 1.0
C      1  0.5404320000000  0.4633560000000  0.5636580000000 1.0
C      1  0.5404320000000  0.5366440000000  0.4363420000000 1.0
C      1  0.4595680000000  0.5366440000000  0.5636580000000 1.0
C      1  0.4633560000000  0.5636580000000  0.5404320000000 1.0
C      1  0.4633560000000  0.4363420000000  0.4595680000000 1.0
C      1  0.5366440000000  0.4363420000000  0.5404320000000 1.0
C      1  0.5636580000000  0.5404320000000  0.4633560000000 1.0
C      1  0.5636580000000  0.4595680000000  0.5366440000000 1.0
C      1  0.4363420000000  0.4595680000000  0.4633560000000 1.0
C      1  0.4456720000000  0.5000000000000  0.5359960000000 1.0
C      1  0.5543280000000  0.5000000000000  0.4640040000000 1.0
C      1  0.5000000000000  0.5359960000000  0.5543280000000 1.0
C      1  0.5359960000000  0.5543280000000  0.5000000000000 1.0
C      1  0.5000000000000  0.5359960000000  0.4456720000000 1.0
C      1  0.5000000000000  0.4640040000000  0.5543280000000 1.0
C      1  0.5000000000000  0.4640040000000  0.4456720000000 1.0
C      1  0.4640040000000  0.5543280000000  0.5000000000000 1.0
C      1  0.4640040000000  0.4456720000000  0.5000000000000 1.0
C      1  0.5359960000000  0.4456720000000  0.5000000000000 1.0
C      1  0.5543280000000  0.5000000000000  0.5359960000000 1.0
C      1  0.4456720000000  0.5000000000000  0.4640040000000 1.0
END
