TITL C-1379267-1329-149 -1.16322431455296e-07 1000000 -2596.45294299574 0 0 380 (C3) n - 1
REM
REM in /nfs/bkarasulu/CARBON/AIRSS/Generating-Clusters/GAP-ML-2020/Higher-Symm/Selected-Sizes/TryA-Only_Ih-Symm/Larger-Clusters/Try2-MINAMP_6A
REM
REM
REM
REM
REM
REM ./C.cell (31579ac4e95a012ec27f3239692ae8a5)
REM
REM compiler GCC version 9.2.1 20190827 (Red Hat 9.2.1-1)
REM options -cpp -mtune=generic -march=x86-64 -g -O0 -fpre-include=/usr/include/finclude/math-vector-fortran.h
REM seed 1948703758 2026634015 18123006 -1943800032 1967352351 -732797798 737116606 -2103433679 -1327814277 -1584016117 1253992147 414226735 -1956520996 -116348024 1282354522 -901163571 -118301206 -2004186379 1714028140 -348801788 -486117736 409987088 1231944210 -860766702 -1090042572 -1079237556 -1074396225 -474755742 -1312508145 -1967290457 -1812871555 1118391655 -693714835
REM
CELL 1.54180  100.00000  100.00000  100.00000   90.00000   90.00000   90.00000
LATT -1
SFAC C  
C      1  0.5448020000000  0.4410780000000  0.5395610000000 1.0
C      1  0.5395210000000  0.5447920000000  0.4411550000000 1.0
C      1  0.4411750000000  0.5395160000000  0.5447920000000 1.0
C      1  0.4545360000000  0.5594430000000  0.5395340000000 1.0
C      1  0.4537960000000  0.4403690000000  0.4599720000000 1.0
C      1  0.5458580000000  0.5591890000000  0.4599470000000 1.0
C      1  0.4599670000000  0.4537800000000  0.4403950000000 1.0
C      1  0.4599990000000  0.5458430000000  0.5591560000000 1.0
C      1  0.5395650000000  0.4544000000000  0.5595190000000 1.0
C      1  0.5592140000000  0.4598480000000  0.5459440000000 1.0
C      1  0.5594400000000  0.5395400000000  0.4545280000000 1.0
C      1  0.4403850000000  0.4599480000000  0.4538020000000 1.0
C      1  0.5459260000000  0.4407520000000  0.4598580000000 1.0
C      1  0.5395910000000  0.5449610000000  0.5588910000000 1.0
C      1  0.4406040000000  0.5396170000000  0.4546320000000 1.0
C      1  0.4536640000000  0.5597000000000  0.4600270000000 1.0
C      1  0.4546350000000  0.4405990000000  0.5396370000000 1.0
C      1  0.5450750000000  0.5589770000000  0.5395530000000 1.0
C      1  0.4600320000000  0.4536620000000  0.5597160000000 1.0
C      1  0.4598330000000  0.5459100000000  0.4407680000000 1.0
C      1  0.5396350000000  0.4546170000000  0.4406290000000 1.0
C      1  0.5597090000000  0.4600210000000  0.4537010000000 1.0
C      1  0.5588440000000  0.5393650000000  0.5447720000000 1.0
C      1  0.4407680000000  0.4598250000000  0.5459320000000 1.0
C      1  0.4842220000000  0.5694140000000  0.4772620000000 1.0
C      1  0.4772690000000  0.4842170000000  0.5694290000000 1.0
C      1  0.5693820000000  0.4772650000000  0.4842700000000 1.0
C      1  0.5156920000000  0.4309180000000  0.4771480000000 1.0
C      1  0.5157160000000  0.5700770000000  0.5235040000000 1.0
C      1  0.4842000000000  0.4299150000000  0.5236350000000 1.0
C      1  0.5235060000000  0.5156470000000  0.5699800000000 1.0
C      1  0.5236150000000  0.4841870000000  0.4299460000000 1.0
C      1  0.4771340000000  0.5156800000000  0.4309550000000 1.0
C      1  0.4299240000000  0.5236040000000  0.4842010000000 1.0
C      1  0.4309430000000  0.4771220000000  0.5156990000000 1.0
C      1  0.5700330000000  0.5236770000000  0.5158010000000 1.0
C      1  0.4842450000000  0.5702170000000  0.5234300000000 1.0
C      1  0.4772340000000  0.4842590000000  0.4307930000000 1.0
C      1  0.5691390000000  0.4771570000000  0.5156670000000 1.0
C      1  0.5158180000000  0.4300140000000  0.5237780000000 1.0
C      1  0.5156290000000  0.5692100000000  0.4771780000000 1.0
C      1  0.4842730000000  0.4307640000000  0.4772430000000 1.0
C      1  0.5237490000000  0.5158040000000  0.4300730000000 1.0
C      1  0.5234110000000  0.4841660000000  0.5702820000000 1.0
C      1  0.4772040000000  0.5156260000000  0.5691630000000 1.0
C      1  0.4300620000000  0.5237420000000  0.5158160000000 1.0
C      1  0.4307760000000  0.4772180000000  0.4842800000000 1.0
C      1  0.5702270000000  0.5235090000000  0.4842570000000 1.0
C      1  0.5326460000000  0.5757430000000  0.4919990000000 1.0
C      1  0.4920720000000  0.5326250000000  0.5756370000000 1.0
C      1  0.5756000000000  0.4919400000000  0.5326960000000 1.0
C      1  0.4673350000000  0.4243280000000  0.4921550000000 1.0
C      1  0.4683550000000  0.5763210000000  0.5066460000000 1.0
C      1  0.5315120000000  0.4243350000000  0.5066160000000 1.0
C      1  0.5066280000000  0.4682980000000  0.5764040000000 1.0
C      1  0.5065960000000  0.5314990000000  0.4243820000000 1.0
C      1  0.4921470000000  0.4673230000000  0.4243510000000 1.0
C      1  0.4243800000000  0.5065890000000  0.5315150000000 1.0
C      1  0.4243320000000  0.4921270000000  0.4673420000000 1.0
C      1  0.5763080000000  0.5066490000000  0.4684330000000 1.0
C      1  0.5315440000000  0.5760610000000  0.5065880000000 1.0
C      1  0.4920150000000  0.5326580000000  0.4246360000000 1.0
C      1  0.5760080000000  0.4920730000000  0.4672980000000 1.0
C      1  0.4683820000000  0.4240600000000  0.5067230000000 1.0
C      1  0.4672430000000  0.5760310000000  0.4920660000000 1.0
C      1  0.5326660000000  0.4245920000000  0.4920350000000 1.0
C      1  0.5067140000000  0.4683660000000  0.4240800000000 1.0
C      1  0.5066630000000  0.5315210000000  0.5759350000000 1.0
C      1  0.4920520000000  0.4672280000000  0.5760910000000 1.0
C      1  0.4240600000000  0.5066940000000  0.4683850000000 1.0
C      1  0.4246310000000  0.4920080000000  0.5326780000000 1.0
C      1  0.5758470000000  0.5065400000000  0.5314950000000 1.0
C      1  0.4925150000000  0.4104240000000  0.5078870000000 1.0
C      1  0.5078760000000  0.4925120000000  0.4104540000000 1.0
C      1  0.4104380000000  0.5078620000000  0.4925330000000 1.0
C      1  0.5076440000000  0.5897400000000  0.5077920000000 1.0
C      1  0.5076960000000  0.4116890000000  0.4938600000000 1.0
C      1  0.4924570000000  0.5887120000000  0.4937490000000 1.0
C      1  0.4938480000000  0.5076920000000  0.4117230000000 1.0
C      1  0.4937360000000  0.4924890000000  0.5887350000000 1.0
C      1  0.5077940000000  0.5076700000000  0.5897030000000 1.0
C      1  0.5886080000000  0.4938210000000  0.4925460000000 1.0
C      1  0.5896360000000  0.5078650000000  0.5077390000000 1.0
C      1  0.4117110000000  0.4938360000000  0.5077140000000 1.0
C      1  0.4924890000000  0.4115870000000  0.4938600000000 1.0
C      1  0.5077820000000  0.4925150000000  0.5898620000000 1.0
C      1  0.4105410000000  0.5078770000000  0.5076890000000 1.0
C      1  0.5076510000000  0.5886030000000  0.4937340000000 1.0
C      1  0.5076710000000  0.4105150000000  0.5079010000000 1.0
C      1  0.4924910000000  0.5898430000000  0.5077950000000 1.0
C      1  0.4937360000000  0.5076840000000  0.5885820000000 1.0
C      1  0.4938480000000  0.4924850000000  0.4116140000000 1.0
C      1  0.5078900000000  0.5076680000000  0.4105520000000 1.0
C      1  0.5884570000000  0.4938120000000  0.5077440000000 1.0
C      1  0.5897750000000  0.5078580000000  0.4925920000000 1.0
C      1  0.4115990000000  0.4938340000000  0.4925070000000 1.0
C      1  0.5384620000000  0.5554470000000  0.4819580000000 1.0
C      1  0.4819960000000  0.5384390000000  0.5553570000000 1.0
C      1  0.5553490000000  0.4818070000000  0.5385000000000 1.0
C      1  0.4614480000000  0.4445190000000  0.4819160000000 1.0
C      1  0.4619540000000  0.5561950000000  0.5172260000000 1.0
C      1  0.5378230000000  0.4444700000000  0.5171400000000 1.0
C      1  0.5172530000000  0.4618560000000  0.5562990000000 1.0
C      1  0.5171040000000  0.5378150000000  0.4445250000000 1.0
C      1  0.4819120000000  0.4614330000000  0.4445430000000 1.0
C      1  0.4445310000000  0.5170940000000  0.5378130000000 1.0
C      1  0.4445260000000  0.4818940000000  0.4614550000000 1.0
C      1  0.5562010000000  0.5172320000000  0.4619760000000 1.0
C      1  0.5379110000000  0.5559380000000  0.5171570000000 1.0
C      1  0.4818250000000  0.5384680000000  0.4448410000000 1.0
C      1  0.5557510000000  0.4819260000000  0.4614040000000 1.0
C      1  0.4619790000000  0.4441660000000  0.5173140000000 1.0
C      1  0.4613750000000  0.5557520000000  0.4819320000000 1.0
C      1  0.5384770000000  0.4447970000000  0.4818540000000 1.0
C      1  0.5173100000000  0.4619590000000  0.4441870000000 1.0
C      1  0.5171830000000  0.5378710000000  0.5557720000000 1.0
C      1  0.4819540000000  0.4613520000000  0.5558000000000 1.0
C      1  0.4441640000000  0.5172920000000  0.4619770000000 1.0
C      1  0.4448350000000  0.4818140000000  0.5384800000000 1.0
C      1  0.5556550000000  0.5169730000000  0.5378050000000 1.0
C      1  0.4665190000000  0.4341520000000  0.5414490000000 1.0
C      1  0.5414470000000  0.4665020000000  0.4341850000000 1.0
C      1  0.4341570000000  0.5414320000000  0.4665150000000 1.0
C      1  0.5332450000000  0.5652730000000  0.5417910000000 1.0
C      1  0.5339400000000  0.4345370000000  0.4581380000000 1.0
C      1  0.4655620000000  0.5661050000000  0.4582620000000 1.0
C      1  0.4581200000000  0.5339220000000  0.4345570000000 1.0
C      1  0.4582670000000  0.4655620000000  0.5661190000000 1.0
C      1  0.5417250000000  0.5331040000000  0.5651680000000 1.0
C      1  0.5661080000000  0.4582560000000  0.4656010000000 1.0
C      1  0.5650710000000  0.5414310000000  0.5328370000000 1.0
C      1  0.4345540000000  0.4581090000000  0.5339450000000 1.0
C      1  0.4657240000000  0.4339770000000  0.4583190000000 1.0
C      1  0.5416530000000  0.4661850000000  0.5659990000000 1.0
C      1  0.4349470000000  0.5414090000000  0.5328110000000 1.0
C      1  0.5338970000000  0.5653800000000  0.4581050000000 1.0
C      1  0.5328100000000  0.4348650000000  0.5414460000000 1.0
C      1  0.4663360000000  0.5659130000000  0.5415980000000 1.0
C      1  0.4581590000000  0.5338830000000  0.5653490000000 1.0
C      1  0.4583130000000  0.4657080000000  0.4340030000000 1.0
C      1  0.5414130000000  0.5328010000000  0.4349460000000 1.0
C      1  0.5653980000000  0.4580300000000  0.5339760000000 1.0
C      1  0.5659130000000  0.5416150000000  0.4663220000000 1.0
C      1  0.4339920000000  0.4582930000000  0.4657290000000 1.0
C      1  0.5073570000000  0.4199670000000  0.5187060000000 1.0
C      1  0.5186850000000  0.5073490000000  0.4200150000000 1.0
C      1  0.4200010000000  0.5186760000000  0.5073660000000 1.0
C      1  0.4927290000000  0.5802720000000  0.5184950000000 1.0
C      1  0.4927550000000  0.4217330000000  0.4837310000000 1.0
C      1  0.5072530000000  0.5783620000000  0.4836800000000 1.0
C      1  0.4837240000000  0.4927460000000  0.4217650000000 1.0
C      1  0.4836920000000  0.5072640000000  0.5783350000000 1.0
C      1  0.5184670000000  0.4927080000000  0.5802810000000 1.0
C      1  0.5782640000000  0.4837150000000  0.5073160000000 1.0
C      1  0.5802650000000  0.5186030000000  0.4927910000000 1.0
C      1  0.4217480000000  0.4837080000000  0.4927670000000 1.0
C      1  0.5073080000000  0.4218220000000  0.4837140000000 1.0
C      1  0.5184890000000  0.5072840000000  0.5801230000000 1.0
C      1  0.4199160000000  0.5186330000000  0.4927340000000 1.0
C      1  0.4927090000000  0.5784690000000  0.4837020000000 1.0
C      1  0.4927240000000  0.4198980000000  0.5186620000000 1.0
C      1  0.5073030000000  0.5801870000000  0.5185080000000 1.0
C      1  0.4837030000000  0.4927200000000  0.5784770000000 1.0
C      1  0.4837050000000  0.5073000000000  0.4218600000000 1.0
C      1  0.5186450000000  0.4927170000000  0.4199350000000 1.0
C      1  0.5783990000000  0.4837400000000  0.4927720000000 1.0
C      1  0.5801450000000  0.5186490000000  0.5073920000000 1.0
C      1  0.4218450000000  0.4836910000000  0.5073210000000 1.0
C      1  0.5070250000000  0.4608130000000  0.5466850000000 1.0
C      1  0.5466150000000  0.5069840000000  0.4608850000000 1.0
C      1  0.4608780000000  0.5466010000000  0.5069860000000 1.0
C      1  0.4924130000000  0.5390680000000  0.5458940000000 1.0
C      1  0.4924170000000  0.4609220000000  0.4539200000000 1.0
C      1  0.5068240000000  0.5389040000000  0.4540700000000 1.0
C      1  0.4539010000000  0.4924010000000  0.4609460000000 1.0
C      1  0.4540720000000  0.5068090000000  0.5388970000000 1.0
C      1  0.5458430000000  0.4921830000000  0.5390820000000 1.0
C      1  0.5388990000000  0.4540160000000  0.5068590000000 1.0
C      1  0.5390870000000  0.5460130000000  0.4924000000000 1.0
C      1  0.4609390000000  0.4538970000000  0.4924200000000 1.0
C      1  0.5069860000000  0.4609710000000  0.4537110000000 1.0
C      1  0.5460670000000  0.5067480000000  0.5389930000000 1.0
C      1  0.4608300000000  0.5463420000000  0.4924110000000 1.0
C      1  0.4922630000000  0.5389870000000  0.4542790000000 1.0
C      1  0.4924510000000  0.4607870000000  0.5464120000000 1.0
C      1  0.5069820000000  0.5390270000000  0.5461400000000 1.0
C      1  0.4542780000000  0.4922470000000  0.5389890000000 1.0
C      1  0.4536900000000  0.5069700000000  0.4609950000000 1.0
C      1  0.5463480000000  0.4924110000000  0.4608480000000 1.0
C      1  0.5389860000000  0.4542280000000  0.4922980000000 1.0
C      1  0.5390400000000  0.5462980000000  0.5069680000000 1.0
C      1  0.4609890000000  0.4536880000000  0.5069880000000 1.0
C      1  0.4935860000000  0.4525900000000  0.5777070000000 1.0
C      1  0.5776530000000  0.4936560000000  0.4526750000000 1.0
C      1  0.4526150000000  0.5776470000000  0.4936320000000 1.0
C      1  0.5068980000000  0.5464280000000  0.5775630000000 1.0
C      1  0.5068450000000  0.4533740000000  0.4224470000000 1.0
C      1  0.4935620000000  0.5472550000000  0.4229670000000 1.0
C      1  0.4224280000000  0.5068240000000  0.4533920000000 1.0
C      1  0.4229740000000  0.4935620000000  0.5472760000000 1.0
C      1  0.5775520000000  0.5067970000000  0.5464000000000 1.0
C      1  0.5472680000000  0.4229280000000  0.4935740000000 1.0
C      1  0.5464620000000  0.5776670000000  0.5068150000000 1.0
C      1  0.4533920000000  0.4224200000000  0.5068550000000 1.0
C      1  0.4936030000000  0.4526690000000  0.4226800000000 1.0
C      1  0.5772460000000  0.4935640000000  0.5472590000000 1.0
C      1  0.4534030000000  0.5779330000000  0.5068730000000 1.0
C      1  0.5067990000000  0.5464500000000  0.4227110000000 1.0
C      1  0.5068300000000  0.4533360000000  0.5779930000000 1.0
C      1  0.4936590000000  0.5472180000000  0.5772480000000 1.0
C      1  0.4227190000000  0.5067980000000  0.5464670000000 1.0
C      1  0.4226630000000  0.4935810000000  0.4526870000000 1.0
C      1  0.5779500000000  0.5068970000000  0.4534740000000 1.0
C      1  0.5464670000000  0.4226710000000  0.5068100000000 1.0
C      1  0.5472450000000  0.5773460000000  0.4935740000000 1.0
C      1  0.4526820000000  0.4226560000000  0.4936130000000 1.0
C      1  0.5516020000000  0.5240930000000  0.4374260000000 1.0
C      1  0.4374120000000  0.5516010000000  0.5241030000000 1.0
C      1  0.5241050000000  0.4373240000000  0.5516450000000 1.0
C      1  0.4492910000000  0.4753400000000  0.4369370000000 1.0
C      1  0.4491700000000  0.5242780000000  0.5622250000000 1.0
C      1  0.5512680000000  0.4753210000000  0.5632080000000 1.0
C      1  0.5622290000000  0.4491140000000  0.5243250000000 1.0
C      1  0.5631520000000  0.5513020000000  0.4753990000000 1.0
C      1  0.4369290000000  0.4492750000000  0.4753630000000 1.0
C      1  0.4754500000000  0.5631320000000  0.5512430000000 1.0
C      1  0.4753580000000  0.4369140000000  0.4493010000000 1.0
C      1  0.5242810000000  0.5622340000000  0.4491390000000 1.0
C      1  0.5514710000000  0.5240750000000  0.5623590000000 1.0
C      1  0.4367000000000  0.5513230000000  0.4754850000000 1.0
C      1  0.5243370000000  0.4375360000000  0.4490900000000 1.0
C      1  0.4493600000000  0.4752310000000  0.5630180000000 1.0
C      1  0.4490720000000  0.5243180000000  0.4375550000000 1.0
C      1  0.5513320000000  0.4754760000000  0.4367330000000 1.0
C      1  0.5630100000000  0.4493440000000  0.4752680000000 1.0
C      1  0.5624510000000  0.5515540000000  0.5241120000000 1.0
C      1  0.4375540000000  0.4490630000000  0.5243410000000 1.0
C      1  0.4752320000000  0.5630040000000  0.4493560000000 1.0
C      1  0.4754840000000  0.4366880000000  0.5513470000000 1.0
C      1  0.5242110000000  0.5624400000000  0.5515210000000 1.0
C      1  0.4520130000000  0.5113130000000  0.4323780000000 1.0
C      1  0.4323740000000  0.4520010000000  0.5113370000000 1.0
C      1  0.5113320000000  0.4323550000000  0.4520270000000 1.0
C      1  0.5486340000000  0.4885650000000  0.4317220000000 1.0
C      1  0.5486680000000  0.5111620000000  0.5678070000000 1.0
C      1  0.4522390000000  0.4884080000000  0.5677670000000 1.0
C      1  0.5679190000000  0.5488250000000  0.5111910000000 1.0
C      1  0.5677620000000  0.4522230000000  0.4884420000000 1.0
C      1  0.4316900000000  0.5486240000000  0.4885740000000 1.0
C      1  0.4884060000000  0.5677630000000  0.4522290000000 1.0
C      1  0.4885710000000  0.4316600000000  0.5486570000000 1.0
C      1  0.5112880000000  0.5678630000000  0.5486790000000 1.0
C      1  0.4520700000000  0.5112790000000  0.5674610000000 1.0
C      1  0.4321280000000  0.4521760000000  0.4885040000000 1.0
C      1  0.5111900000000  0.4318810000000  0.5489060000000 1.0
C      1  0.5484750000000  0.4884300000000  0.5681490000000 1.0
C      1  0.5488760000000  0.5111830000000  0.4319650000000 1.0
C      1  0.4521900000000  0.4884820000000  0.4321350000000 1.0
C      1  0.5681650000000  0.5485720000000  0.4884980000000 1.0
C      1  0.5674470000000  0.4520360000000  0.5113200000000 1.0
C      1  0.4319500000000  0.5488700000000  0.5111950000000 1.0
C      1  0.4885510000000  0.5681220000000  0.5484810000000 1.0
C      1  0.4885000000000  0.4321110000000  0.4522000000000 1.0
C      1  0.5112800000000  0.5674640000000  0.4520480000000 1.0
C      1  0.4499440000000  0.4431240000000  0.4733020000000 1.0
C      1  0.4732970000000  0.4499300000000  0.4431490000000 1.0
C      1  0.4431380000000  0.4732780000000  0.4499510000000 1.0
C      1  0.5499910000000  0.5570510000000  0.4733060000000 1.0
C      1  0.5490270000000  0.4433400000000  0.5262430000000 1.0
C      1  0.4504990000000  0.5574630000000  0.5261480000000 1.0
C      1  0.5262030000000  0.5490250000000  0.4433880000000 1.0
C      1  0.5261690000000  0.4503900000000  0.5575470000000 1.0
C      1  0.4733580000000  0.5499720000000  0.5569920000000 1.0
C      1  0.5574580000000  0.5261490000000  0.4505140000000 1.0
C      1  0.5570320000000  0.4732090000000  0.5500590000000 1.0
C      1  0.4434070000000  0.5261970000000  0.5490220000000 1.0
C      1  0.4506590000000  0.4430890000000  0.5262980000000 1.0
C      1  0.4733870000000  0.4497460000000  0.5573160000000 1.0
C      1  0.4433430000000  0.4731610000000  0.5499430000000 1.0
C      1  0.5492910000000  0.5572600000000  0.5261620000000 1.0
C      1  0.5499370000000  0.4433200000000  0.4731960000000 1.0
C      1  0.4497560000000  0.5572920000000  0.4733830000000 1.0
C      1  0.5262150000000  0.5492070000000  0.5570970000000 1.0
C      1  0.5262960000000  0.4506390000000  0.4431140000000 1.0
C      1  0.4731670000000  0.5499250000000  0.4433430000000 1.0
C      1  0.5569910000000  0.5260300000000  0.5490950000000 1.0
C      1  0.5572970000000  0.4733760000000  0.4497910000000 1.0
C      1  0.4430910000000  0.5262770000000  0.4506560000000 1.0
C      1  0.5476190000000  0.5341940000000  0.4926050000000 1.0
C      1  0.4925730000000  0.5475800000000  0.5340540000000 1.0
C      1  0.5340120000000  0.4923600000000  0.5476060000000 1.0
C      1  0.4529610000000  0.4660950000000  0.4925520000000 1.0
C      1  0.4524740000000  0.5346620000000  0.5072690000000 1.0
C      1  0.5469300000000  0.4662120000000  0.5071530000000 1.0
C      1  0.5073020000000  0.4524260000000  0.5347300000000 1.0
C      1  0.5071200000000  0.5469620000000  0.4662510000000 1.0
C      1  0.4925490000000  0.4529440000000  0.4661180000000 1.0
C      1  0.4662550000000  0.5071040000000  0.5469460000000 1.0
C      1  0.4661010000000  0.4925340000000  0.4529720000000 1.0
C      1  0.5346710000000  0.5072680000000  0.4524880000000 1.0
C      1  0.5475330000000  0.5344190000000  0.5072720000000 1.0
C      1  0.4924180000000  0.5470810000000  0.4664050000000 1.0
C      1  0.5344730000000  0.4926190000000  0.4524050000000 1.0
C      1  0.4530470000000  0.4659450000000  0.5072420000000 1.0
C      1  0.4523840000000  0.5344680000000  0.4926190000000 1.0
C      1  0.5470570000000  0.4663690000000  0.4924500000000 1.0
C      1  0.5072380000000  0.4530290000000  0.4659680000000 1.0
C      1  0.5072610000000  0.5474980000000  0.5342350000000 1.0
C      1  0.4926540000000  0.4523570000000  0.5345250000000 1.0
C      1  0.4659490000000  0.5072230000000  0.4530560000000 1.0
C      1  0.4664080000000  0.4924020000000  0.5470780000000 1.0
C      1  0.5341810000000  0.5070480000000  0.5474680000000 1.0
C      1  0.5079620000000  0.4376130000000  0.4660500000000 1.0
C      1  0.4660340000000  0.5079460000000  0.4376420000000 1.0
C      1  0.4376320000000  0.4660240000000  0.5079660000000 1.0
C      1  0.4918450000000  0.5624970000000  0.4662170000000 1.0
C      1  0.4919170000000  0.4369810000000  0.5346870000000 1.0
C      1  0.5080250000000  0.5629200000000  0.5344970000000 1.0
C      1  0.5346570000000  0.4918990000000  0.4370290000000 1.0
C      1  0.5344860000000  0.5078830000000  0.5628750000000 1.0
C      1  0.4662280000000  0.4918360000000  0.5624940000000 1.0
C      1  0.5629520000000  0.5346630000000  0.5079860000000 1.0
C      1  0.5624730000000  0.4662030000000  0.4918770000000 1.0
C      1  0.4370060000000  0.5346500000000  0.4919070000000 1.0
C      1  0.5079970000000  0.4370100000000  0.5348070000000 1.0
C      1  0.4661650000000  0.5078910000000  0.5623620000000 1.0
C      1  0.4375530000000  0.4661000000000  0.4919300000000 1.0
C      1  0.4918870000000  0.5629850000000  0.5344150000000 1.0
C      1  0.4919260000000  0.4375370000000  0.4661240000000 1.0
C      1  0.5079000000000  0.5623790000000  0.4661510000000 1.0
C      1  0.5344020000000  0.4917500000000  0.5630170000000 1.0
C      1  0.5347710000000  0.5079780000000  0.4370750000000 1.0
C      1  0.4661120000000  0.4919090000000  0.4375650000000 1.0
C      1  0.5630070000000  0.5345240000000  0.4918750000000 1.0
C      1  0.5623470000000  0.4661240000000  0.5079300000000 1.0
C      1  0.4370600000000  0.5347640000000  0.5079880000000 1.0
C      1  0.5283570000000  0.4336580000000  0.4821170000000 1.0
C      1  0.4820960000000  0.5283460000000  0.4337000000000 1.0
C      1  0.4336900000000  0.4820840000000  0.5283650000000 1.0
C      1  0.4715060000000  0.5668870000000  0.4821740000000 1.0
C      1  0.4724580000000  0.4332210000000  0.5168020000000 1.0
C      1  0.5274160000000  0.5668270000000  0.5166100000000 1.0
C      1  0.5167930000000  0.4724380000000  0.4332420000000 1.0
C      1  0.5166580000000  0.5273690000000  0.5666810000000 1.0
C      1  0.4821850000000  0.4714970000000  0.5669220000000 1.0
C      1  0.5665770000000  0.5165130000000  0.5273300000000 1.0
C      1  0.5668710000000  0.4821710000000  0.4715470000000 1.0
C      1  0.4332200000000  0.5167740000000  0.4724560000000 1.0
C      1  0.5273650000000  0.4335210000000  0.5166430000000 1.0
C      1  0.4822140000000  0.5282900000000  0.5664880000000 1.0
C      1  0.4334110000000  0.4821910000000  0.4716020000000 1.0
C      1  0.4724480000000  0.5670870000000  0.5166800000000 1.0
C      1  0.4715960000000  0.4334040000000  0.4822150000000 1.0
C      1  0.5283120000000  0.5665750000000  0.4821590000000 1.0
C      1  0.5166820000000  0.4723550000000  0.5671870000000 1.0
C      1  0.5166170000000  0.5273530000000  0.4335780000000 1.0
C      1  0.4822090000000  0.4715830000000  0.4334300000000 1.0
C      1  0.5670780000000  0.5166990000000  0.4724930000000 1.0
C      1  0.5664910000000  0.4820470000000  0.5283750000000 1.0
C      1  0.4335760000000  0.5166060000000  0.5273600000000 1.0
C      1  0.5720600000000  0.4464010000000  0.4999090000000 1.0
C      1  0.4273640000000  0.5547010000000  0.4998830000000 1.0
C      1  0.4277750000000  0.4463380000000  0.4999360000000 1.0
C      1  0.4463520000000  0.4999120000000  0.4277780000000 1.0
C      1  0.5724590000000  0.5546240000000  0.4998360000000 1.0
C      1  0.4998680000000  0.5720620000000  0.4464000000000 1.0
C      1  0.4998690000000  0.4273080000000  0.5547360000000 1.0
C      1  0.5547150000000  0.4998700000000  0.4273920000000 1.0
C      1  0.5544790000000  0.4998230000000  0.5723590000000 1.0
C      1  0.4464170000000  0.4998730000000  0.5720670000000 1.0
C      1  0.4999320000000  0.4277570000000  0.4463630000000 1.0
C      1  0.4999280000000  0.5723720000000  0.5544900000000 1.0
C      1  0.4502300000000  0.5498220000000  0.5493990000000 1.0
C      1  0.5494320000000  0.4500920000000  0.5498940000000 1.0
C      1  0.5498290000000  0.5494080000000  0.4502000000000 1.0
C      1  0.4497530000000  0.4497350000000  0.4497590000000 1.0
C      1  0.4497060000000  0.5499790000000  0.4501690000000 1.0
C      1  0.5499940000000  0.4501580000000  0.4497370000000 1.0
C      1  0.5494330000000  0.5493130000000  0.5492990000000 1.0
C      1  0.4501720000000  0.4497020000000  0.5499980000000 1.0
END
