TITL C-1379267-1329-126 -4.18769872304246e-07 1000000 -1725.29075923768 0 0 240 (Td) n - 1
REM
REM in /nfs/bkarasulu/CARBON/AIRSS/Generating-Clusters/GAP-ML-2020/Higher-Symm/Selected-Sizes/TryA-Only_Ih-Symm/Larger-Clusters/Try2-MINAMP_6A
REM
REM
REM
REM
REM
REM ./C.cell (31579ac4e95a012ec27f3239692ae8a5)
REM
REM compiler GCC version 9.2.1 20190827 (Red Hat 9.2.1-1)
REM options -cpp -mtune=generic -march=x86-64 -g -O0 -fpre-include=/usr/include/finclude/math-vector-fortran.h
REM seed 691804107 -1962956548 1024071783 1931485629 1879975217 -1228872877 -935884426 -1480273499 -165517869 -2115516828 593034682 -94593746 293884609 61774571 -1576799079 -861591425 1454045349 1202425469 897583431 1474010238 -1980350894 -970195563 223486749 -1605390182 -1392319253 -1647518205 -1024103271 730581565 -1469070277 719008206 -785632015 -516131089 -1016238196
REM
CELL 1.54180  100.00000  100.00000  100.00000   90.00000   90.00000   90.00000
LATT -1
SFAC C  
C      1  0.4612900000000  0.5670430000000  0.4817420000000 1.0
C      1  0.4817420000000  0.4612900000000  0.5670430000000 1.0
C      1  0.5670430000000  0.4817420000000  0.4612900000000 1.0
C      1  0.5387100000000  0.5670430000000  0.5182580000000 1.0
C      1  0.4612900000000  0.4329570000000  0.5182580000000 1.0
C      1  0.5387100000000  0.4329570000000  0.4817420000000 1.0
C      1  0.5182580000000  0.4612900000000  0.4329570000000 1.0
C      1  0.4817420000000  0.5387100000000  0.4329570000000 1.0
C      1  0.5182580000000  0.5387100000000  0.5670430000000 1.0
C      1  0.4329570000000  0.4817420000000  0.5387100000000 1.0
C      1  0.5670430000000  0.5182580000000  0.5387100000000 1.0
C      1  0.4329570000000  0.5182580000000  0.4612900000000 1.0
C      1  0.4817420000000  0.5670430000000  0.4612900000000 1.0
C      1  0.5670430000000  0.4612900000000  0.4817420000000 1.0
C      1  0.4612900000000  0.4817420000000  0.5670430000000 1.0
C      1  0.5182580000000  0.5670430000000  0.5387100000000 1.0
C      1  0.5182580000000  0.4329570000000  0.4612900000000 1.0
C      1  0.4817420000000  0.4329570000000  0.5387100000000 1.0
C      1  0.4329570000000  0.4612900000000  0.5182580000000 1.0
C      1  0.4329570000000  0.5387100000000  0.4817420000000 1.0
C      1  0.5670430000000  0.5387100000000  0.5182580000000 1.0
C      1  0.5387100000000  0.4817420000000  0.4329570000000 1.0
C      1  0.5387100000000  0.5182580000000  0.5670430000000 1.0
C      1  0.4612900000000  0.5182580000000  0.4329570000000 1.0
C      1  0.4945320000000  0.4635130000000  0.5634640000000 1.0
C      1  0.5634640000000  0.4945320000000  0.4635130000000 1.0
C      1  0.4635130000000  0.5634640000000  0.4945320000000 1.0
C      1  0.5054680000000  0.4635130000000  0.4365360000000 1.0
C      1  0.4945320000000  0.5364870000000  0.4365360000000 1.0
C      1  0.5054680000000  0.5364870000000  0.5634640000000 1.0
C      1  0.4365360000000  0.4945320000000  0.5364870000000 1.0
C      1  0.5634640000000  0.5054680000000  0.5364870000000 1.0
C      1  0.4365360000000  0.5054680000000  0.4635130000000 1.0
C      1  0.5364870000000  0.5634640000000  0.5054680000000 1.0
C      1  0.4635130000000  0.4365360000000  0.5054680000000 1.0
C      1  0.5364870000000  0.4365360000000  0.4945320000000 1.0
C      1  0.5634640000000  0.4635130000000  0.4945320000000 1.0
C      1  0.4635130000000  0.4945320000000  0.5634640000000 1.0
C      1  0.4945320000000  0.5634640000000  0.4635130000000 1.0
C      1  0.4365360000000  0.4635130000000  0.5054680000000 1.0
C      1  0.4365360000000  0.5364870000000  0.4945320000000 1.0
C      1  0.5634640000000  0.5364870000000  0.5054680000000 1.0
C      1  0.5364870000000  0.4945320000000  0.4365360000000 1.0
C      1  0.5364870000000  0.5054680000000  0.5634640000000 1.0
C      1  0.4635130000000  0.5054680000000  0.4365360000000 1.0
C      1  0.5054680000000  0.5634640000000  0.5364870000000 1.0
C      1  0.5054680000000  0.4365360000000  0.4635130000000 1.0
C      1  0.4945320000000  0.4365360000000  0.5364870000000 1.0
C      1  0.5220880000000  0.5613660000000  0.4591380000000 1.0
C      1  0.4591380000000  0.5220880000000  0.5613660000000 1.0
C      1  0.5613660000000  0.4591380000000  0.5220880000000 1.0
C      1  0.4779120000000  0.5613660000000  0.5408620000000 1.0
C      1  0.5220880000000  0.4386340000000  0.5408620000000 1.0
C      1  0.4779120000000  0.4386340000000  0.4591380000000 1.0
C      1  0.5408620000000  0.5220880000000  0.4386340000000 1.0
C      1  0.4591380000000  0.4779120000000  0.4386340000000 1.0
C      1  0.5408620000000  0.4779120000000  0.5613660000000 1.0
C      1  0.4386340000000  0.4591380000000  0.4779120000000 1.0
C      1  0.5613660000000  0.5408620000000  0.4779120000000 1.0
C      1  0.4386340000000  0.5408620000000  0.5220880000000 1.0
C      1  0.4591380000000  0.5613660000000  0.5220880000000 1.0
C      1  0.5613660000000  0.5220880000000  0.4591380000000 1.0
C      1  0.5220880000000  0.4591380000000  0.5613660000000 1.0
C      1  0.5408620000000  0.5613660000000  0.4779120000000 1.0
C      1  0.5408620000000  0.4386340000000  0.5220880000000 1.0
C      1  0.4591380000000  0.4386340000000  0.4779120000000 1.0
C      1  0.4386340000000  0.5220880000000  0.5408620000000 1.0
C      1  0.4386340000000  0.4779120000000  0.4591380000000 1.0
C      1  0.5613660000000  0.4779120000000  0.5408620000000 1.0
C      1  0.4779120000000  0.4591380000000  0.4386340000000 1.0
C      1  0.4779120000000  0.5408620000000  0.5613660000000 1.0
C      1  0.5220880000000  0.5408620000000  0.4386340000000 1.0
C      1  0.5436180000000  0.5538140000000  0.4661730000000 1.0
C      1  0.4661730000000  0.5436180000000  0.5538140000000 1.0
C      1  0.5538140000000  0.4661730000000  0.5436180000000 1.0
C      1  0.4563820000000  0.5538140000000  0.5338270000000 1.0
C      1  0.5436180000000  0.4461860000000  0.5338270000000 1.0
C      1  0.4563820000000  0.4461860000000  0.4661730000000 1.0
C      1  0.5338270000000  0.5436180000000  0.4461860000000 1.0
C      1  0.4661730000000  0.4563820000000  0.4461860000000 1.0
C      1  0.5338270000000  0.4563820000000  0.5538140000000 1.0
C      1  0.4461860000000  0.4661730000000  0.4563820000000 1.0
C      1  0.5538140000000  0.5338270000000  0.4563820000000 1.0
C      1  0.4461860000000  0.5338270000000  0.5436180000000 1.0
C      1  0.4661730000000  0.5538140000000  0.5436180000000 1.0
C      1  0.5538140000000  0.5436180000000  0.4661730000000 1.0
C      1  0.5436180000000  0.4661730000000  0.5538140000000 1.0
C      1  0.5338270000000  0.5538140000000  0.4563820000000 1.0
C      1  0.5338270000000  0.4461860000000  0.5436180000000 1.0
C      1  0.4661730000000  0.4461860000000  0.4563820000000 1.0
C      1  0.4461860000000  0.5436180000000  0.5338270000000 1.0
C      1  0.4461860000000  0.4563820000000  0.4661730000000 1.0
C      1  0.5538140000000  0.4563820000000  0.5338270000000 1.0
C      1  0.4563820000000  0.4661730000000  0.4461860000000 1.0
C      1  0.4563820000000  0.5338270000000  0.5538140000000 1.0
C      1  0.5436180000000  0.5338270000000  0.4461860000000 1.0
C      1  0.5006640000000  0.5597540000000  0.5491130000000 1.0
C      1  0.5491130000000  0.5006640000000  0.5597540000000 1.0
C      1  0.5597540000000  0.5491130000000  0.5006640000000 1.0
C      1  0.4993360000000  0.5597540000000  0.4508870000000 1.0
C      1  0.5006640000000  0.4402460000000  0.4508870000000 1.0
C      1  0.4993360000000  0.4402460000000  0.5491130000000 1.0
C      1  0.4508870000000  0.5006640000000  0.4402460000000 1.0
C      1  0.5491130000000  0.4993360000000  0.4402460000000 1.0
C      1  0.4508870000000  0.4993360000000  0.5597540000000 1.0
C      1  0.4402460000000  0.5491130000000  0.4993360000000 1.0
C      1  0.5597540000000  0.4508870000000  0.4993360000000 1.0
C      1  0.4402460000000  0.4508870000000  0.5006640000000 1.0
C      1  0.5491130000000  0.5597540000000  0.5006640000000 1.0
C      1  0.5597540000000  0.5006640000000  0.5491130000000 1.0
C      1  0.5006640000000  0.5491130000000  0.5597540000000 1.0
C      1  0.4508870000000  0.5597540000000  0.4993360000000 1.0
C      1  0.4508870000000  0.4402460000000  0.5006640000000 1.0
C      1  0.5491130000000  0.4402460000000  0.4993360000000 1.0
C      1  0.4402460000000  0.5006640000000  0.4508870000000 1.0
C      1  0.4402460000000  0.4993360000000  0.5491130000000 1.0
C      1  0.5597540000000  0.4993360000000  0.4508870000000 1.0
C      1  0.4993360000000  0.5491130000000  0.4402460000000 1.0
C      1  0.4993360000000  0.4508870000000  0.5597540000000 1.0
C      1  0.5006640000000  0.4508870000000  0.4402460000000 1.0
C      1  0.4967210000000  0.5648280000000  0.5244520000000 1.0
C      1  0.5244520000000  0.4967210000000  0.5648280000000 1.0
C      1  0.5648280000000  0.5244520000000  0.4967210000000 1.0
C      1  0.5032790000000  0.5648280000000  0.4755480000000 1.0
C      1  0.4967210000000  0.4351720000000  0.4755480000000 1.0
C      1  0.5032790000000  0.4351720000000  0.5244520000000 1.0
C      1  0.4755480000000  0.4967210000000  0.4351720000000 1.0
C      1  0.5244520000000  0.5032790000000  0.4351720000000 1.0
C      1  0.4755480000000  0.5032790000000  0.5648280000000 1.0
C      1  0.4351720000000  0.5244520000000  0.5032790000000 1.0
C      1  0.5648280000000  0.4755480000000  0.5032790000000 1.0
C      1  0.4351720000000  0.4755480000000  0.4967210000000 1.0
C      1  0.5244520000000  0.5648280000000  0.4967210000000 1.0
C      1  0.5648280000000  0.4967210000000  0.5244520000000 1.0
C      1  0.4967210000000  0.5244520000000  0.5648280000000 1.0
C      1  0.4755480000000  0.5648280000000  0.5032790000000 1.0
C      1  0.4755480000000  0.4351720000000  0.4967210000000 1.0
C      1  0.5244520000000  0.4351720000000  0.5032790000000 1.0
C      1  0.4351720000000  0.4967210000000  0.4755480000000 1.0
C      1  0.4351720000000  0.5032790000000  0.5244520000000 1.0
C      1  0.5648280000000  0.5032790000000  0.4755480000000 1.0
C      1  0.5032790000000  0.5244520000000  0.4351720000000 1.0
C      1  0.5032790000000  0.4755480000000  0.5648280000000 1.0
C      1  0.4967210000000  0.4755480000000  0.4351720000000 1.0
C      1  0.5639980000000  0.4825530000000  0.5274440000000 1.0
C      1  0.5274440000000  0.5639980000000  0.4825530000000 1.0
C      1  0.4825530000000  0.5274440000000  0.5639980000000 1.0
C      1  0.4360020000000  0.4825530000000  0.4725560000000 1.0
C      1  0.5639980000000  0.5174470000000  0.4725560000000 1.0
C      1  0.4360020000000  0.5174470000000  0.5274440000000 1.0
C      1  0.4725560000000  0.5639980000000  0.5174470000000 1.0
C      1  0.5274440000000  0.4360020000000  0.5174470000000 1.0
C      1  0.4725560000000  0.4360020000000  0.4825530000000 1.0
C      1  0.5174470000000  0.5274440000000  0.4360020000000 1.0
C      1  0.4825530000000  0.4725560000000  0.4360020000000 1.0
C      1  0.5174470000000  0.4725560000000  0.5639980000000 1.0
C      1  0.5274440000000  0.4825530000000  0.5639980000000 1.0
C      1  0.4825530000000  0.5639980000000  0.5274440000000 1.0
C      1  0.5639980000000  0.5274440000000  0.4825530000000 1.0
C      1  0.4725560000000  0.4825530000000  0.4360020000000 1.0
C      1  0.4725560000000  0.5174470000000  0.5639980000000 1.0
C      1  0.5274440000000  0.5174470000000  0.4360020000000 1.0
C      1  0.5174470000000  0.5639980000000  0.4725560000000 1.0
C      1  0.5174470000000  0.4360020000000  0.5274440000000 1.0
C      1  0.4825530000000  0.4360020000000  0.4725560000000 1.0
C      1  0.4360020000000  0.5274440000000  0.5174470000000 1.0
C      1  0.4360020000000  0.4725560000000  0.4825530000000 1.0
C      1  0.5639980000000  0.4725560000000  0.5174470000000 1.0
C      1  0.4289470000000  0.5394310000000  0.4698510000000 1.0
C      1  0.4698510000000  0.4289470000000  0.5394310000000 1.0
C      1  0.5394310000000  0.4698510000000  0.4289470000000 1.0
C      1  0.5710530000000  0.5394310000000  0.5301490000000 1.0
C      1  0.4289470000000  0.4605690000000  0.5301490000000 1.0
C      1  0.5710530000000  0.4605690000000  0.4698510000000 1.0
C      1  0.5301490000000  0.4289470000000  0.4605690000000 1.0
C      1  0.4698510000000  0.5710530000000  0.4605690000000 1.0
C      1  0.5301490000000  0.5710530000000  0.5394310000000 1.0
C      1  0.4605690000000  0.4698510000000  0.5710530000000 1.0
C      1  0.5394310000000  0.5301490000000  0.5710530000000 1.0
C      1  0.4605690000000  0.5301490000000  0.4289470000000 1.0
C      1  0.4698510000000  0.5394310000000  0.4289470000000 1.0
C      1  0.5394310000000  0.4289470000000  0.4698510000000 1.0
C      1  0.4289470000000  0.4698510000000  0.5394310000000 1.0
C      1  0.5301490000000  0.5394310000000  0.5710530000000 1.0
C      1  0.5301490000000  0.4605690000000  0.4289470000000 1.0
C      1  0.4698510000000  0.4605690000000  0.5710530000000 1.0
C      1  0.4605690000000  0.4289470000000  0.5301490000000 1.0
C      1  0.4605690000000  0.5710530000000  0.4698510000000 1.0
C      1  0.5394310000000  0.5710530000000  0.5301490000000 1.0
C      1  0.5710530000000  0.4698510000000  0.4605690000000 1.0
C      1  0.5710530000000  0.5301490000000  0.5394310000000 1.0
C      1  0.4289470000000  0.5301490000000  0.4605690000000 1.0
C      1  0.4997780000000  0.5658280000000  0.5105790000000 1.0
C      1  0.5105790000000  0.4997780000000  0.5658280000000 1.0
C      1  0.5658280000000  0.5105790000000  0.4997780000000 1.0
C      1  0.5002220000000  0.5658280000000  0.4894210000000 1.0
C      1  0.4997780000000  0.4341720000000  0.4894210000000 1.0
C      1  0.5002220000000  0.4341720000000  0.5105790000000 1.0
C      1  0.4894210000000  0.4997780000000  0.4341720000000 1.0
C      1  0.5105790000000  0.5002220000000  0.4341720000000 1.0
C      1  0.4894210000000  0.5002220000000  0.5658280000000 1.0
C      1  0.4341720000000  0.5105790000000  0.5002220000000 1.0
C      1  0.5658280000000  0.4894210000000  0.5002220000000 1.0
C      1  0.4341720000000  0.4894210000000  0.4997780000000 1.0
C      1  0.5105790000000  0.5658280000000  0.4997780000000 1.0
C      1  0.5658280000000  0.4997780000000  0.5105790000000 1.0
C      1  0.4997780000000  0.5105790000000  0.5658280000000 1.0
C      1  0.4894210000000  0.5658280000000  0.5002220000000 1.0
C      1  0.4894210000000  0.4341720000000  0.4997780000000 1.0
C      1  0.5105790000000  0.4341720000000  0.5002220000000 1.0
C      1  0.4341720000000  0.4997780000000  0.4894210000000 1.0
C      1  0.4341720000000  0.5002220000000  0.5105790000000 1.0
C      1  0.5658280000000  0.5002220000000  0.4894210000000 1.0
C      1  0.5002220000000  0.5105790000000  0.4341720000000 1.0
C      1  0.5002220000000  0.4894210000000  0.5658280000000 1.0
C      1  0.4997780000000  0.4894210000000  0.4341720000000 1.0
C      1  0.5132430000000  0.5614900000000  0.4486000000000 1.0
C      1  0.4486000000000  0.5132430000000  0.5614900000000 1.0
C      1  0.5614900000000  0.4486000000000  0.5132430000000 1.0
C      1  0.4867570000000  0.5614900000000  0.5514000000000 1.0
C      1  0.5132430000000  0.4385100000000  0.5514000000000 1.0
C      1  0.4867570000000  0.4385100000000  0.4486000000000 1.0
C      1  0.5514000000000  0.5132430000000  0.4385100000000 1.0
C      1  0.4486000000000  0.4867570000000  0.4385100000000 1.0
C      1  0.5514000000000  0.4867570000000  0.5614900000000 1.0
C      1  0.4385100000000  0.4486000000000  0.4867570000000 1.0
C      1  0.5614900000000  0.5514000000000  0.4867570000000 1.0
C      1  0.4385100000000  0.5514000000000  0.5132430000000 1.0
C      1  0.4486000000000  0.5614900000000  0.5132430000000 1.0
C      1  0.5614900000000  0.5132430000000  0.4486000000000 1.0
C      1  0.5132430000000  0.4486000000000  0.5614900000000 1.0
C      1  0.5514000000000  0.5614900000000  0.4867570000000 1.0
C      1  0.5514000000000  0.4385100000000  0.5132430000000 1.0
C      1  0.4486000000000  0.4385100000000  0.4867570000000 1.0
C      1  0.4385100000000  0.5132430000000  0.5514000000000 1.0
C      1  0.4385100000000  0.4867570000000  0.4486000000000 1.0
C      1  0.5614900000000  0.4867570000000  0.5514000000000 1.0
C      1  0.4867570000000  0.4486000000000  0.4385100000000 1.0
C      1  0.4867570000000  0.5514000000000  0.5614900000000 1.0
C      1  0.5132430000000  0.5514000000000  0.4385100000000 1.0
END
