TITL C-1379266-1300-296 -3.19726318286027e-09 1000000 -1748.00208833941 0 0 260 (C1) n - 1
REM
REM in /nfs/bkarasulu/CARBON/AIRSS/Generating-Clusters/GAP-ML-2020/Higher-Symm/Selected-Sizes/TryA-Only_Ih-Symm/Larger-Clusters/Try2-MINAMP_6A
REM
REM
REM
REM
REM
REM ./C.cell (31579ac4e95a012ec27f3239692ae8a5)
REM
REM compiler GCC version 9.2.1 20190827 (Red Hat 9.2.1-1)
REM options -cpp -mtune=generic -march=x86-64 -g -O0 -fpre-include=/usr/include/finclude/math-vector-fortran.h
REM seed 666644799 -1797354401 -1419174609 -1175043907 1542439831 -517300543 -1210358805 1074437 628650429 1894117071 1435485615 14057078 391469456 283384645 91427449 1061012854 1528086059 -516764217 -1000670142 2079360113 -1488071699 -153359217 -1627269508 -1011779392 1875020755 -478414169 54091730 -928691791 1425707007 -330662764 -2043982431 -1191074673 1638315415
REM
CELL 1.54180  100.00000  100.00000  100.00000   90.00000   90.00000   90.00000
LATT -1
SFAC C  
C      1  0.5080830000000  0.4542610000000  0.5595420000000 1.0
C      1  0.5580340000000  0.5069800000000  0.4542480000000 1.0
C      1  0.4548940000000  0.5570200000000  0.5074590000000 1.0
C      1  0.4932440000000  0.5454030000000  0.5576460000000 1.0
C      1  0.4931400000000  0.4547540000000  0.4423800000000 1.0
C      1  0.5081430000000  0.5457780000000  0.4422810000000 1.0
C      1  0.4419990000000  0.4922480000000  0.4544640000000 1.0
C      1  0.4431420000000  0.5069310000000  0.5460130000000 1.0
C      1  0.5589980000000  0.4920290000000  0.5475010000000 1.0
C      1  0.5446660000000  0.4435980000000  0.5078580000000 1.0
C      1  0.5460570000000  0.5582740000000  0.4925230000000 1.0
C      1  0.4554430000000  0.4436990000000  0.4931240000000 1.0
C      1  0.5080720000000  0.4544150000000  0.4414350000000 1.0
C      1  0.5576260000000  0.5068700000000  0.5466140000000 1.0
C      1  0.4545110000000  0.5580360000000  0.4925650000000 1.0
C      1  0.4932760000000  0.5454060000000  0.4432810000000 1.0
C      1  0.4931520000000  0.4545920000000  0.5586180000000 1.0
C      1  0.5081280000000  0.5457970000000  0.5586670000000 1.0
C      1  0.4421150000000  0.4920480000000  0.5464850000000 1.0
C      1  0.4426260000000  0.5071590000000  0.4548440000000 1.0
C      1  0.5590620000000  0.4921240000000  0.4534320000000 1.0
C      1  0.5446920000000  0.4436040000000  0.4929960000000 1.0
C      1  0.5456050000000  0.5572460000000  0.5074490000000 1.0
C      1  0.4554380000000  0.4436210000000  0.5078620000000 1.0
C      1  0.4229730000000  0.4758390000000  0.5146260000000 1.0
C      1  0.5145670000000  0.4276700000000  0.4764980000000 1.0
C      1  0.4765650000000  0.5142550000000  0.4233890000000 1.0
C      1  0.5768200000000  0.5230350000000  0.5146760000000 1.0
C      1  0.5758310000000  0.4768530000000  0.4857110000000 1.0
C      1  0.4277940000000  0.5232330000000  0.4861160000000 1.0
C      1  0.4862130000000  0.5774050000000  0.4764970000000 1.0
C      1  0.4862590000000  0.4233650000000  0.5244050000000 1.0
C      1  0.5146330000000  0.5724830000000  0.5238780000000 1.0
C      1  0.5241930000000  0.4859050000000  0.4266320000000 1.0
C      1  0.5242560000000  0.5143680000000  0.5783540000000 1.0
C      1  0.4766870000000  0.4857240000000  0.5735560000000 1.0
C      1  0.4227300000000  0.4757640000000  0.4862850000000 1.0
C      1  0.5145620000000  0.4276430000000  0.5243750000000 1.0
C      1  0.4765850000000  0.5142230000000  0.5776730000000 1.0
C      1  0.5724900000000  0.5229200000000  0.4862130000000 1.0
C      1  0.5755930000000  0.4769790000000  0.5151040000000 1.0
C      1  0.4233750000000  0.5234060000000  0.5145470000000 1.0
C      1  0.4861900000000  0.5769530000000  0.5240690000000 1.0
C      1  0.4862520000000  0.4234470000000  0.4764920000000 1.0
C      1  0.5147450000000  0.5731600000000  0.4766450000000 1.0
C      1  0.5241480000000  0.4858640000000  0.5742650000000 1.0
C      1  0.5242870000000  0.5143930000000  0.4226700000000 1.0
C      1  0.4766010000000  0.4857780000000  0.4273580000000 1.0
C      1  0.5672580000000  0.5112020000000  0.5361810000000 1.0
C      1  0.5362760000000  0.5678610000000  0.5118300000000 1.0
C      1  0.5119780000000  0.5353470000000  0.5683530000000 1.0
C      1  0.4325560000000  0.4881260000000  0.5358890000000 1.0
C      1  0.4322320000000  0.5113260000000  0.4644820000000 1.0
C      1  0.5689260000000  0.4881040000000  0.4637650000000 1.0
C      1  0.4654230000000  0.4335570000000  0.5120480000000 1.0
C      1  0.4650520000000  0.5676330000000  0.4887110000000 1.0
C      1  0.5357850000000  0.4326740000000  0.4888520000000 1.0
C      1  0.4887330000000  0.4639480000000  0.5692150000000 1.0
C      1  0.4888360000000  0.5352300000000  0.4334260000000 1.0
C      1  0.5118480000000  0.4642200000000  0.4311140000000 1.0
C      1  0.5681990000000  0.5111570000000  0.4641560000000 1.0
C      1  0.5364210000000  0.5687070000000  0.4887260000000 1.0
C      1  0.5119850000000  0.5353410000000  0.4325790000000 1.0
C      1  0.4323250000000  0.4882010000000  0.4649530000000 1.0
C      1  0.4334060000000  0.5112890000000  0.5356980000000 1.0
C      1  0.5687090000000  0.4881450000000  0.5370250000000 1.0
C      1  0.4654220000000  0.4336400000000  0.4888800000000 1.0
C      1  0.4651070000000  0.5668360000000  0.5118680000000 1.0
C      1  0.5357610000000  0.4326690000000  0.5119930000000 1.0
C      1  0.4887060000000  0.4641240000000  0.4318320000000 1.0
C      1  0.4888170000000  0.5352320000000  0.5675040000000 1.0
C      1  0.5118610000000  0.4640620000000  0.5698920000000 1.0
C      1  0.5614350000000  0.4776190000000  0.4886620000000 1.0
C      1  0.4875410000000  0.5632320000000  0.4772740000000 1.0
C      1  0.4716310000000  0.4854200000000  0.5595270000000 1.0
C      1  0.4418360000000  0.5282140000000  0.4858530000000 1.0
C      1  0.4373010000000  0.4764850000000  0.5134560000000 1.0
C      1  0.5626370000000  0.5221300000000  0.5133840000000 1.0
C      1  0.5147950000000  0.4417890000000  0.4716410000000 1.0
C      1  0.5148500000000  0.5584550000000  0.5289460000000 1.0
C      1  0.4876170000000  0.4375760000000  0.5238190000000 1.0
C      1  0.5234370000000  0.5128130000000  0.5642020000000 1.0
C      1  0.5295020000000  0.4857640000000  0.4405760000000 1.0
C      1  0.4772820000000  0.5127630000000  0.4375730000000 1.0
C      1  0.5612050000000  0.4776490000000  0.5120060000000 1.0
C      1  0.4874360000000  0.5627530000000  0.5234740000000 1.0
C      1  0.4716470000000  0.4854780000000  0.4414280000000 1.0
C      1  0.4375790000000  0.5228310000000  0.5133190000000 1.0
C      1  0.4370400000000  0.4766500000000  0.4873540000000 1.0
C      1  0.5585830000000  0.5282420000000  0.4863340000000 1.0
C      1  0.5147820000000  0.4417400000000  0.5293060000000 1.0
C      1  0.5149190000000  0.5589840000000  0.4720150000000 1.0
C      1  0.4876250000000  0.4376550000000  0.4771140000000 1.0
C      1  0.5233900000000  0.5127520000000  0.4368170000000 1.0
C      1  0.5295660000000  0.4857680000000  0.5603670000000 1.0
C      1  0.4772260000000  0.5128330000000  0.5634850000000 1.0
C      1  0.4646460000000  0.5280420000000  0.4383700000000 1.0
C      1  0.4376740000000  0.4639240000000  0.5289060000000 1.0
C      1  0.5278440000000  0.4389350000000  0.4652760000000 1.0
C      1  0.5354330000000  0.4725300000000  0.4376130000000 1.0
C      1  0.5361290000000  0.5280580000000  0.5631410000000 1.0
C      1  0.4653320000000  0.4723480000000  0.5625760000000 1.0
C      1  0.5619420000000  0.5351150000000  0.5283930000000 1.0
C      1  0.5618940000000  0.4652810000000  0.4723570000000 1.0
C      1  0.4388010000000  0.5347010000000  0.4727980000000 1.0
C      1  0.4722880000000  0.5624140000000  0.4645560000000 1.0
C      1  0.4723400000000  0.4381890000000  0.5363810000000 1.0
C      1  0.5279450000000  0.5614130000000  0.5352690000000 1.0
C      1  0.4644680000000  0.5281250000000  0.5627660000000 1.0
C      1  0.4376200000000  0.4639870000000  0.4720370000000 1.0
C      1  0.5278470000000  0.4388710000000  0.5356140000000 1.0
C      1  0.5353940000000  0.4724920000000  0.5633210000000 1.0
C      1  0.5359740000000  0.5279760000000  0.4379930000000 1.0
C      1  0.4652530000000  0.4724390000000  0.4384160000000 1.0
C      1  0.5614010000000  0.5342490000000  0.4730510000000 1.0
C      1  0.5617260000000  0.4653840000000  0.5284410000000 1.0
C      1  0.4381030000000  0.5356420000000  0.5285640000000 1.0
C      1  0.4721600000000  0.5621770000000  0.5362510000000 1.0
C      1  0.4723310000000  0.4383180000000  0.4645660000000 1.0
C      1  0.5279650000000  0.5617470000000  0.4654660000000 1.0
C      1  0.5175370000000  0.4477400000000  0.5514210000000 1.0
C      1  0.5489470000000  0.5161370000000  0.4484970000000 1.0
C      1  0.4487470000000  0.5483650000000  0.5166580000000 1.0
C      1  0.4840610000000  0.5515300000000  0.5489680000000 1.0
C      1  0.4840310000000  0.4488430000000  0.4514240000000 1.0
C      1  0.5176600000000  0.5525140000000  0.4499910000000 1.0
C      1  0.4497600000000  0.4828300000000  0.4476300000000 1.0
C      1  0.4517750000000  0.5161660000000  0.5521430000000 1.0
C      1  0.5511570000000  0.4825810000000  0.5542600000000 1.0
C      1  0.5509010000000  0.4522460000000  0.5170370000000 1.0
C      1  0.5526160000000  0.5501890000000  0.4830940000000 1.0
C      1  0.4489030000000  0.4520180000000  0.4839850000000 1.0
C      1  0.5175360000000  0.4478550000000  0.4495040000000 1.0
C      1  0.5488210000000  0.5160830000000  0.5525150000000 1.0
C      1  0.4477420000000  0.5503770000000  0.4830440000000 1.0
C      1  0.4841130000000  0.5515940000000  0.4519270000000 1.0
C      1  0.4840460000000  0.4486950000000  0.5495510000000 1.0
C      1  0.5176540000000  0.5525130000000  0.5509520000000 1.0
C      1  0.4497580000000  0.4826150000000  0.5534300000000 1.0
C      1  0.4516070000000  0.5163010000000  0.4488980000000 1.0
C      1  0.5511340000000  0.4827010000000  0.4467350000000 1.0
C      1  0.5509830000000  0.4522280000000  0.4838170000000 1.0
C      1  0.5513740000000  0.5480900000000  0.5165600000000 1.0
C      1  0.4488840000000  0.4518540000000  0.5170480000000 1.0
C      1  0.4930550000000  0.4250190000000  0.5370440000000 1.0
C      1  0.5371670000000  0.4925110000000  0.4242670000000 1.0
C      1  0.4253730000000  0.5361560000000  0.4926960000000 1.0
C      1  0.5080620000000  0.5749360000000  0.5368160000000 1.0
C      1  0.5080070000000  0.4253370000000  0.4635550000000 1.0
C      1  0.4931350000000  0.5754950000000  0.4639390000000 1.0
C      1  0.4639580000000  0.5074240000000  0.4250850000000 1.0
C      1  0.4637570000000  0.4923740000000  0.5758830000000 1.0
C      1  0.5368300000000  0.5074730000000  0.5766090000000 1.0
C      1  0.5748850000000  0.4640000000000  0.4930600000000 1.0
C      1  0.5751100000000  0.5355880000000  0.5077700000000 1.0
C      1  0.4248420000000  0.4630750000000  0.5079160000000 1.0
C      1  0.4930370000000  0.4251280000000  0.4638500000000 1.0
C      1  0.5371180000000  0.4924540000000  0.5766780000000 1.0
C      1  0.4250840000000  0.5359810000000  0.5076250000000 1.0
C      1  0.5080800000000  0.5752330000000  0.4636960000000 1.0
C      1  0.5080290000000  0.4252430000000  0.5373210000000 1.0
C      1  0.4931100000000  0.5752160000000  0.5366390000000 1.0
C      1  0.4639950000000  0.5073320000000  0.5759820000000 1.0
C      1  0.4636740000000  0.4924560000000  0.4250820000000 1.0
C      1  0.5368690000000  0.5075340000000  0.4244260000000 1.0
C      1  0.5747960000000  0.4640810000000  0.5078570000000 1.0
C      1  0.5750040000000  0.5358550000000  0.4927750000000 1.0
C      1  0.4247750000000  0.4630330000000  0.4930690000000 1.0
C      1  0.4373080000000  0.5392020000000  0.5145950000000 1.0
C      1  0.5153640000000  0.4360790000000  0.5430790000000 1.0
C      1  0.5397650000000  0.5141280000000  0.4369470000000 1.0
C      1  0.5622650000000  0.4613480000000  0.5145060000000 1.0
C      1  0.5643210000000  0.5418760000000  0.4853510000000 1.0
C      1  0.4371470000000  0.4605770000000  0.4861740000000 1.0
C      1  0.4861270000000  0.5629870000000  0.5398330000000 1.0
C      1  0.4861990000000  0.4374560000000  0.4607620000000 1.0
C      1  0.5154590000000  0.5643410000000  0.4580820000000 1.0
C      1  0.4578760000000  0.4849880000000  0.4358120000000 1.0
C      1  0.4608720000000  0.5141710000000  0.5636540000000 1.0
C      1  0.5431430000000  0.4847570000000  0.5661920000000 1.0
C      1  0.4361200000000  0.5420200000000  0.4853160000000 1.0
C      1  0.5153430000000  0.4361910000000  0.4578330000000 1.0
C      1  0.5397700000000  0.5141500000000  0.5641290000000 1.0
C      1  0.5623920000000  0.4612810000000  0.4863200000000 1.0
C      1  0.5626810000000  0.5386240000000  0.5144490000000 1.0
C      1  0.4371740000000  0.4604520000000  0.5148120000000 1.0
C      1  0.4861970000000  0.5632110000000  0.4609080000000 1.0
C      1  0.4862120000000  0.4373360000000  0.5401700000000 1.0
C      1  0.5154670000000  0.5642040000000  0.5426850000000 1.0
C      1  0.4578910000000  0.4848640000000  0.5652140000000 1.0
C      1  0.4608770000000  0.5141660000000  0.4374650000000 1.0
C      1  0.5431170000000  0.4848410000000  0.4348020000000 1.0
C      1  0.5503480000000  0.5427040000000  0.4699610000000 1.0
C      1  0.4697940000000  0.5503380000000  0.5436300000000 1.0
C      1  0.5435860000000  0.4695220000000  0.5519250000000 1.0
C      1  0.4498070000000  0.4571610000000  0.4697550000000 1.0
C      1  0.4499190000000  0.5430470000000  0.5309380000000 1.0
C      1  0.5500820000000  0.4580440000000  0.5310920000000 1.0
C      1  0.5307700000000  0.4499890000000  0.5441310000000 1.0
C      1  0.5309340000000  0.5504050000000  0.4570870000000 1.0
C      1  0.4699320000000  0.4500890000000  0.4571790000000 1.0
C      1  0.4571250000000  0.5304310000000  0.5509010000000 1.0
C      1  0.4568480000000  0.4694370000000  0.4496220000000 1.0
C      1  0.5431170000000  0.5301530000000  0.4499920000000 1.0
C      1  0.5502200000000  0.5425260000000  0.5307660000000 1.0
C      1  0.4699270000000  0.5504290000000  0.4573310000000 1.0
C      1  0.5436260000000  0.4695800000000  0.4490180000000 1.0
C      1  0.4498050000000  0.4570220000000  0.5312680000000 1.0
C      1  0.4498330000000  0.5433240000000  0.4696780000000 1.0
C      1  0.5501840000000  0.4580080000000  0.4697590000000 1.0
C      1  0.5307840000000  0.4500590000000  0.4567730000000 1.0
C      1  0.5309640000000  0.5503080000000  0.5438280000000 1.0
C      1  0.4699350000000  0.4499310000000  0.5438140000000 1.0
C      1  0.4573330000000  0.5303880000000  0.4501810000000 1.0
C      1  0.4568830000000  0.4692790000000  0.5514210000000 1.0
C      1  0.5433160000000  0.5302430000000  0.5511020000000 1.0
C      1  0.4731700000000  0.5682110000000  0.5235240000000 1.0
C      1  0.5239430000000  0.4713570000000  0.5720100000000 1.0
C      1  0.5701430000000  0.5229890000000  0.4717170000000 1.0
C      1  0.5290070000000  0.4301050000000  0.5242630000000 1.0
C      1  0.5292440000000  0.5708380000000  0.4765910000000 1.0
C      1  0.4733590000000  0.4320350000000  0.4771600000000 1.0
C      1  0.4771610000000  0.5271550000000  0.5688810000000 1.0
C      1  0.4765670000000  0.4712480000000  0.4296370000000 1.0
C      1  0.5236070000000  0.5271800000000  0.4312000000000 1.0
C      1  0.4311090000000  0.4764820000000  0.4730510000000 1.0
C      1  0.4320740000000  0.5229100000000  0.5275800000000 1.0
C      1  0.5701330000000  0.4765800000000  0.5290190000000 1.0
C      1  0.4732300000000  0.5689260000000  0.4770890000000 1.0
C      1  0.5239830000000  0.4714040000000  0.4289170000000 1.0
C      1  0.5683590000000  0.5226130000000  0.5277010000000 1.0
C      1  0.5290150000000  0.4301280000000  0.4765870000000 1.0
C      1  0.5291550000000  0.5701500000000  0.5239240000000 1.0
C      1  0.4733600000000  0.4319260000000  0.5237700000000 1.0
C      1  0.4772080000000  0.5271110000000  0.4320540000000 1.0
C      1  0.4766460000000  0.4711760000000  0.5713550000000 1.0
C      1  0.5236310000000  0.5272130000000  0.5697420000000 1.0
C      1  0.4312540000000  0.4764580000000  0.5277910000000 1.0
C      1  0.4300250000000  0.5233890000000  0.4715940000000 1.0
C      1  0.5703070000000  0.4764820000000  0.4717940000000 1.0
C      1  0.4710920000000  0.4278420000000  0.5004460000000 1.0
C      1  0.4268600000000  0.4997620000000  0.4705290000000 1.0
C      1  0.5308340000000  0.5737000000000  0.5004200000000 1.0
C      1  0.5303540000000  0.4271670000000  0.5004150000000 1.0
C      1  0.4708700000000  0.5728550000000  0.5004520000000 1.0
C      1  0.5002410000000  0.5295690000000  0.4273080000000 1.0
C      1  0.5001060000000  0.4692950000000  0.5751440000000 1.0
C      1  0.5002290000000  0.5295480000000  0.5735980000000 1.0
C      1  0.5741790000000  0.4996330000000  0.4694240000000 1.0
C      1  0.5735850000000  0.4998250000000  0.5309270000000 1.0
C      1  0.4274380000000  0.4998410000000  0.5299430000000 1.0
C      1  0.5000840000000  0.4695990000000  0.4259990000000 1.0
C      1  0.4586690000000  0.5415490000000  0.5420970000000 1.0
C      1  0.5412740000000  0.4592200000000  0.5424930000000 1.0
C      1  0.5413870000000  0.5410790000000  0.4591890000000 1.0
C      1  0.4588680000000  0.5414880000000  0.4590450000000 1.0
C      1  0.5413190000000  0.4592620000000  0.4584210000000 1.0
C      1  0.4587710000000  0.4587090000000  0.5423560000000 1.0
C      1  0.4587800000000  0.4588840000000  0.4586890000000 1.0
C      1  0.5415090000000  0.5411770000000  0.5420000000000 1.0
END
