TITL C-1379266-1300-70 -1.0411462821076e-06 1000000 -1676.63134188322 0 0 260 (Th) n - 1
REM
REM in /nfs/bkarasulu/CARBON/AIRSS/Generating-Clusters/GAP-ML-2020/Higher-Symm/Selected-Sizes/TryA-Only_Ih-Symm/Larger-Clusters/Try2-MINAMP_6A
REM
REM
REM
REM
REM
REM ./C.cell (31579ac4e95a012ec27f3239692ae8a5)
REM
REM compiler GCC version 9.2.1 20190827 (Red Hat 9.2.1-1)
REM options -cpp -mtune=generic -march=x86-64 -g -O0 -fpre-include=/usr/include/finclude/math-vector-fortran.h
REM seed 1864123892 -2134719064 -1410233153 -1449404021 -1836397210 -2103649513 1170547533 1132469938 1914587601 -1323015347 -584334321 1199664933 -1114448791 -1109820537 2000500839 848391131 1119723785 1647196156 -16687961 1713518180 1225809237 1494727461 1305600926 1981586212 -1278558351 1030835782 -1219487486 390545363 280921493 1616266215 -1475622783 -536523907 1215702676
REM
CELL 1.54180  100.00000  100.00000  100.00000   90.00000   90.00000   90.00000
LATT -1
SFAC C  
C      1  0.5515230000000  0.4864310000000  0.4748340000000 1.0
C      1  0.4864220000000  0.4747760000000  0.5515900000000 1.0
C      1  0.4747680000000  0.5515320000000  0.4864890000000 1.0
C      1  0.5515230000000  0.5134360000000  0.5251490000000 1.0
C      1  0.4483270000000  0.4864310000000  0.5251490000000 1.0
C      1  0.4483270000000  0.5134360000000  0.4748340000000 1.0
C      1  0.4864220000000  0.5250910000000  0.4483930000000 1.0
C      1  0.5134280000000  0.4747760000000  0.4483930000000 1.0
C      1  0.5134280000000  0.5250910000000  0.5515900000000 1.0
C      1  0.4747680000000  0.4483350000000  0.5134940000000 1.0
C      1  0.5250820000000  0.5515320000000  0.5134940000000 1.0
C      1  0.5250820000000  0.4483350000000  0.4864890000000 1.0
C      1  0.4483270000000  0.4864310000000  0.4748340000000 1.0
C      1  0.5134280000000  0.4747760000000  0.5515900000000 1.0
C      1  0.5250820000000  0.5515320000000  0.4864890000000 1.0
C      1  0.4483270000000  0.5134360000000  0.5251490000000 1.0
C      1  0.5515230000000  0.4864310000000  0.5251490000000 1.0
C      1  0.5515230000000  0.5134360000000  0.4748340000000 1.0
C      1  0.5134280000000  0.5250910000000  0.4483930000000 1.0
C      1  0.4864220000000  0.4747760000000  0.4483930000000 1.0
C      1  0.4864220000000  0.5250910000000  0.5515900000000 1.0
C      1  0.5250820000000  0.4483350000000  0.5134940000000 1.0
C      1  0.4747680000000  0.5515320000000  0.5134940000000 1.0
C      1  0.4747680000000  0.4483350000000  0.4864890000000 1.0
C      1  0.4311340000000  0.5074050000000  0.5438500000000 1.0
C      1  0.5073960000000  0.5437920000000  0.4312010000000 1.0
C      1  0.5437830000000  0.4311430000000  0.5074630000000 1.0
C      1  0.4311340000000  0.4924620000000  0.4561330000000 1.0
C      1  0.5687160000000  0.5074050000000  0.4561330000000 1.0
C      1  0.5687160000000  0.4924620000000  0.5438500000000 1.0
C      1  0.5073960000000  0.4560750000000  0.5687820000000 1.0
C      1  0.4924540000000  0.5437920000000  0.5687820000000 1.0
C      1  0.4924540000000  0.4560750000000  0.4312010000000 1.0
C      1  0.5437830000000  0.5687240000000  0.4925200000000 1.0
C      1  0.4560670000000  0.4311430000000  0.4925200000000 1.0
C      1  0.4560670000000  0.5687240000000  0.5074630000000 1.0
C      1  0.5687160000000  0.5074050000000  0.5438500000000 1.0
C      1  0.4924540000000  0.5437920000000  0.4312010000000 1.0
C      1  0.4560670000000  0.4311430000000  0.5074630000000 1.0
C      1  0.5687160000000  0.4924620000000  0.4561330000000 1.0
C      1  0.4311340000000  0.5074050000000  0.4561330000000 1.0
C      1  0.4311340000000  0.4924620000000  0.5438500000000 1.0
C      1  0.4924540000000  0.4560750000000  0.5687820000000 1.0
C      1  0.5073960000000  0.5437920000000  0.5687820000000 1.0
C      1  0.5073960000000  0.4560750000000  0.4312010000000 1.0
C      1  0.4560670000000  0.5687240000000  0.4925200000000 1.0
C      1  0.5437830000000  0.4311430000000  0.4925200000000 1.0
C      1  0.5437830000000  0.5687240000000  0.5074630000000 1.0
C      1  0.4621110000000  0.4447200000000  0.4620990000000 1.0
C      1  0.4447110000000  0.4620410000000  0.4621770000000 1.0
C      1  0.4620320000000  0.4621190000000  0.4447780000000 1.0
C      1  0.4621110000000  0.5551470000000  0.5378840000000 1.0
C      1  0.5377390000000  0.4447200000000  0.5378840000000 1.0
C      1  0.5377390000000  0.5551470000000  0.4620990000000 1.0
C      1  0.4447110000000  0.5378260000000  0.5378060000000 1.0
C      1  0.5551390000000  0.4620410000000  0.5378060000000 1.0
C      1  0.5551390000000  0.5378260000000  0.4621770000000 1.0
C      1  0.4620320000000  0.5377480000000  0.5552050000000 1.0
C      1  0.5378180000000  0.4621190000000  0.5552050000000 1.0
C      1  0.5378180000000  0.5377480000000  0.4447780000000 1.0
C      1  0.5377390000000  0.4447200000000  0.4620990000000 1.0
C      1  0.5551390000000  0.4620410000000  0.4621770000000 1.0
C      1  0.5378180000000  0.4621190000000  0.4447780000000 1.0
C      1  0.5377390000000  0.5551470000000  0.5378840000000 1.0
C      1  0.4621110000000  0.4447200000000  0.5378840000000 1.0
C      1  0.4621110000000  0.5551470000000  0.4620990000000 1.0
C      1  0.5551390000000  0.5378260000000  0.5378060000000 1.0
C      1  0.4447110000000  0.4620410000000  0.5378060000000 1.0
C      1  0.4447110000000  0.5378260000000  0.4621770000000 1.0
C      1  0.5378180000000  0.5377480000000  0.5552050000000 1.0
C      1  0.4620320000000  0.4621190000000  0.5552050000000 1.0
C      1  0.4620320000000  0.5377480000000  0.4447780000000 1.0
C      1  0.4401810000000  0.5257660000000  0.4701420000000 1.0
C      1  0.5257580000000  0.4700840000000  0.4402470000000 1.0
C      1  0.4700750000000  0.4401890000000  0.5258240000000 1.0
C      1  0.4401810000000  0.4741010000000  0.5298410000000 1.0
C      1  0.5596690000000  0.5257660000000  0.5298410000000 1.0
C      1  0.5596690000000  0.4741010000000  0.4701420000000 1.0
C      1  0.5257580000000  0.5297830000000  0.5597360000000 1.0
C      1  0.4740920000000  0.4700840000000  0.5597360000000 1.0
C      1  0.4740920000000  0.5297830000000  0.4402470000000 1.0
C      1  0.4700750000000  0.5596780000000  0.4741590000000 1.0
C      1  0.5297750000000  0.4401890000000  0.4741590000000 1.0
C      1  0.5297750000000  0.5596780000000  0.5258240000000 1.0
C      1  0.5596690000000  0.5257660000000  0.4701420000000 1.0
C      1  0.4740920000000  0.4700840000000  0.4402470000000 1.0
C      1  0.5297750000000  0.4401890000000  0.5258240000000 1.0
C      1  0.5596690000000  0.4741010000000  0.5298410000000 1.0
C      1  0.4401810000000  0.5257660000000  0.5298410000000 1.0
C      1  0.4401810000000  0.4741010000000  0.4701420000000 1.0
C      1  0.4740920000000  0.5297830000000  0.5597360000000 1.0
C      1  0.5257580000000  0.4700840000000  0.5597360000000 1.0
C      1  0.5257580000000  0.5297830000000  0.4402470000000 1.0
C      1  0.5297750000000  0.5596780000000  0.4741590000000 1.0
C      1  0.4700750000000  0.4401890000000  0.4741590000000 1.0
C      1  0.4700750000000  0.5596780000000  0.5258240000000 1.0
C      1  0.4653310000000  0.5430590000000  0.4930440000000 1.0
C      1  0.5430500000000  0.4929860000000  0.4653980000000 1.0
C      1  0.4929780000000  0.4653400000000  0.5431170000000 1.0
C      1  0.4653310000000  0.4568080000000  0.5069390000000 1.0
C      1  0.5345190000000  0.5430590000000  0.5069390000000 1.0
C      1  0.5345190000000  0.4568080000000  0.4930440000000 1.0
C      1  0.5430500000000  0.5068810000000  0.5345850000000 1.0
C      1  0.4568000000000  0.4929860000000  0.5345850000000 1.0
C      1  0.4568000000000  0.5068810000000  0.4653980000000 1.0
C      1  0.4929780000000  0.5345270000000  0.4568660000000 1.0
C      1  0.5068720000000  0.4653400000000  0.4568660000000 1.0
C      1  0.5068720000000  0.5345270000000  0.5431170000000 1.0
C      1  0.5345190000000  0.5430590000000  0.4930440000000 1.0
C      1  0.4568000000000  0.4929860000000  0.4653980000000 1.0
C      1  0.5068720000000  0.4653400000000  0.5431170000000 1.0
C      1  0.5345190000000  0.4568080000000  0.5069390000000 1.0
C      1  0.4653310000000  0.5430590000000  0.5069390000000 1.0
C      1  0.4653310000000  0.4568080000000  0.4930440000000 1.0
C      1  0.4568000000000  0.5068810000000  0.5345850000000 1.0
C      1  0.5430500000000  0.4929860000000  0.5345850000000 1.0
C      1  0.5430500000000  0.5068810000000  0.4653980000000 1.0
C      1  0.5068720000000  0.5345270000000  0.4568660000000 1.0
C      1  0.4929780000000  0.4653400000000  0.4568660000000 1.0
C      1  0.4929780000000  0.5345270000000  0.5431170000000 1.0
C      1  0.4755590000000  0.4428890000000  0.4616150000000 1.0
C      1  0.4428810000000  0.4615570000000  0.4756250000000 1.0
C      1  0.4615480000000  0.4755670000000  0.4429470000000 1.0
C      1  0.4755590000000  0.5569780000000  0.5383680000000 1.0
C      1  0.5242910000000  0.4428890000000  0.5383680000000 1.0
C      1  0.5242910000000  0.5569780000000  0.4616150000000 1.0
C      1  0.4428810000000  0.5383100000000  0.5243580000000 1.0
C      1  0.5569690000000  0.4615570000000  0.5243580000000 1.0
C      1  0.5569690000000  0.5383100000000  0.4756250000000 1.0
C      1  0.4615480000000  0.5243000000000  0.5570360000000 1.0
C      1  0.5383020000000  0.4755670000000  0.5570360000000 1.0
C      1  0.5383020000000  0.5243000000000  0.4429470000000 1.0
C      1  0.5242910000000  0.4428890000000  0.4616150000000 1.0
C      1  0.5569690000000  0.4615570000000  0.4756250000000 1.0
C      1  0.5383020000000  0.4755670000000  0.4429470000000 1.0
C      1  0.5242910000000  0.5569780000000  0.5383680000000 1.0
C      1  0.4755590000000  0.4428890000000  0.5383680000000 1.0
C      1  0.4755590000000  0.5569780000000  0.4616150000000 1.0
C      1  0.5569690000000  0.5383100000000  0.5243580000000 1.0
C      1  0.4428810000000  0.4615570000000  0.5243580000000 1.0
C      1  0.4428810000000  0.5383100000000  0.4756250000000 1.0
C      1  0.5383020000000  0.5243000000000  0.5570360000000 1.0
C      1  0.4615480000000  0.4755670000000  0.5570360000000 1.0
C      1  0.4615480000000  0.5243000000000  0.4429470000000 1.0
C      1  0.4493270000000  0.4555390000000  0.4873290000000 1.0
C      1  0.4555300000000  0.4872710000000  0.4493940000000 1.0
C      1  0.4872630000000  0.4493360000000  0.4555970000000 1.0
C      1  0.4493270000000  0.5443280000000  0.5126540000000 1.0
C      1  0.5505230000000  0.4555390000000  0.5126540000000 1.0
C      1  0.5505230000000  0.5443280000000  0.4873290000000 1.0
C      1  0.4555300000000  0.5125960000000  0.5505890000000 1.0
C      1  0.5443200000000  0.4872710000000  0.5505890000000 1.0
C      1  0.5443200000000  0.5125960000000  0.4493940000000 1.0
C      1  0.4872630000000  0.5505310000000  0.5443860000000 1.0
C      1  0.5125870000000  0.4493360000000  0.5443860000000 1.0
C      1  0.5125870000000  0.5505310000000  0.4555970000000 1.0
C      1  0.5505230000000  0.4555390000000  0.4873290000000 1.0
C      1  0.5443200000000  0.4872710000000  0.4493940000000 1.0
C      1  0.5125870000000  0.4493360000000  0.4555970000000 1.0
C      1  0.5505230000000  0.5443280000000  0.5126540000000 1.0
C      1  0.4493270000000  0.4555390000000  0.5126540000000 1.0
C      1  0.4493270000000  0.5443280000000  0.4873290000000 1.0
C      1  0.5443200000000  0.5125960000000  0.5505890000000 1.0
C      1  0.4555300000000  0.4872710000000  0.5505890000000 1.0
C      1  0.4555300000000  0.5125960000000  0.4493940000000 1.0
C      1  0.5125870000000  0.5505310000000  0.5443860000000 1.0
C      1  0.4872630000000  0.4493360000000  0.5443860000000 1.0
C      1  0.4872630000000  0.5505310000000  0.4555970000000 1.0
C      1  0.4883140000000  0.5516720000000  0.5584190000000 1.0
C      1  0.5516630000000  0.5583610000000  0.4883810000000 1.0
C      1  0.5583520000000  0.4883230000000  0.5517300000000 1.0
C      1  0.4883140000000  0.4481950000000  0.4415640000000 1.0
C      1  0.5115360000000  0.5516720000000  0.4415640000000 1.0
C      1  0.5115360000000  0.4481950000000  0.5584190000000 1.0
C      1  0.5516630000000  0.4415060000000  0.5116020000000 1.0
C      1  0.4481870000000  0.5583610000000  0.5116020000000 1.0
C      1  0.4481870000000  0.4415060000000  0.4883810000000 1.0
C      1  0.5583520000000  0.5115440000000  0.4482530000000 1.0
C      1  0.4414980000000  0.4883230000000  0.4482530000000 1.0
C      1  0.4414980000000  0.5115440000000  0.5517300000000 1.0
C      1  0.5115360000000  0.5516720000000  0.5584190000000 1.0
C      1  0.4481870000000  0.5583610000000  0.4883810000000 1.0
C      1  0.4414980000000  0.4883230000000  0.5517300000000 1.0
C      1  0.5115360000000  0.4481950000000  0.4415640000000 1.0
C      1  0.4883140000000  0.5516720000000  0.4415640000000 1.0
C      1  0.4883140000000  0.4481950000000  0.5584190000000 1.0
C      1  0.4481870000000  0.4415060000000  0.5116020000000 1.0
C      1  0.5516630000000  0.5583610000000  0.5116020000000 1.0
C      1  0.5516630000000  0.4415060000000  0.4883810000000 1.0
C      1  0.4414980000000  0.5115440000000  0.4482530000000 1.0
C      1  0.5583520000000  0.4883230000000  0.4482530000000 1.0
C      1  0.5583520000000  0.5115440000000  0.5517300000000 1.0
C      1  0.4788230000000  0.4359300000000  0.5067700000000 1.0
C      1  0.4359220000000  0.5067120000000  0.4788900000000 1.0
C      1  0.5067030000000  0.4788320000000  0.4359880000000 1.0
C      1  0.4788230000000  0.5639370000000  0.4932130000000 1.0
C      1  0.5210270000000  0.4359300000000  0.4932130000000 1.0
C      1  0.5210270000000  0.5639370000000  0.5067700000000 1.0
C      1  0.4359220000000  0.4931550000000  0.5210930000000 1.0
C      1  0.5639290000000  0.5067120000000  0.5210930000000 1.0
C      1  0.5639290000000  0.4931550000000  0.4788900000000 1.0
C      1  0.5067030000000  0.5210350000000  0.5639950000000 1.0
C      1  0.4931470000000  0.4788320000000  0.5639950000000 1.0
C      1  0.4931470000000  0.5210350000000  0.4359880000000 1.0
C      1  0.5210270000000  0.4359300000000  0.5067700000000 1.0
C      1  0.5639290000000  0.5067120000000  0.4788900000000 1.0
C      1  0.4931470000000  0.4788320000000  0.4359880000000 1.0
C      1  0.5210270000000  0.5639370000000  0.4932130000000 1.0
C      1  0.4788230000000  0.4359300000000  0.4932130000000 1.0
C      1  0.4788230000000  0.5639370000000  0.5067700000000 1.0
C      1  0.5639290000000  0.4931550000000  0.5210930000000 1.0
C      1  0.4359220000000  0.5067120000000  0.5210930000000 1.0
C      1  0.4359220000000  0.4931550000000  0.4788900000000 1.0
C      1  0.4931470000000  0.5210350000000  0.5639950000000 1.0
C      1  0.5067030000000  0.4788320000000  0.5639950000000 1.0
C      1  0.5067030000000  0.5210350000000  0.4359880000000 1.0
C      1  0.4686210000000  0.5707570000000  0.4847970000000 1.0
C      1  0.5707480000000  0.4847390000000  0.4686880000000 1.0
C      1  0.4847310000000  0.4686300000000  0.5708150000000 1.0
C      1  0.4686210000000  0.4291100000000  0.5151860000000 1.0
C      1  0.5312290000000  0.5707570000000  0.5151860000000 1.0
C      1  0.5312290000000  0.4291100000000  0.4847970000000 1.0
C      1  0.5707480000000  0.5151280000000  0.5312950000000 1.0
C      1  0.4291020000000  0.4847390000000  0.5312950000000 1.0
C      1  0.4291020000000  0.5151280000000  0.4686880000000 1.0
C      1  0.4847310000000  0.5312370000000  0.4291680000000 1.0
C      1  0.5151190000000  0.4686300000000  0.4291680000000 1.0
C      1  0.5151190000000  0.5312370000000  0.5708150000000 1.0
C      1  0.5312290000000  0.5707570000000  0.4847970000000 1.0
C      1  0.4291020000000  0.4847390000000  0.4686880000000 1.0
C      1  0.5151190000000  0.4686300000000  0.5708150000000 1.0
C      1  0.5312290000000  0.4291100000000  0.5151860000000 1.0
C      1  0.4686210000000  0.5707570000000  0.5151860000000 1.0
C      1  0.4686210000000  0.4291100000000  0.4847970000000 1.0
C      1  0.4291020000000  0.5151280000000  0.5312950000000 1.0
C      1  0.5707480000000  0.4847390000000  0.5312950000000 1.0
C      1  0.5707480000000  0.5151280000000  0.4686880000000 1.0
C      1  0.5151190000000  0.5312370000000  0.4291680000000 1.0
C      1  0.4847310000000  0.4686300000000  0.4291680000000 1.0
C      1  0.4847310000000  0.5312370000000  0.5708150000000 1.0
C      1  0.5558970000000  0.4658960000000  0.4999920000000 1.0
C      1  0.4439530000000  0.5339710000000  0.4999920000000 1.0
C      1  0.4658880000000  0.4999340000000  0.5559640000000 1.0
C      1  0.4999250000000  0.5559060000000  0.4659540000000 1.0
C      1  0.4658880000000  0.4999340000000  0.4440190000000 1.0
C      1  0.5339620000000  0.4999340000000  0.4440190000000 1.0
C      1  0.5339620000000  0.4999340000000  0.5559640000000 1.0
C      1  0.4999250000000  0.4439610000000  0.5340290000000 1.0
C      1  0.5558970000000  0.5339710000000  0.4999920000000 1.0
C      1  0.4439530000000  0.4658960000000  0.4999920000000 1.0
C      1  0.4999250000000  0.5559060000000  0.5340290000000 1.0
C      1  0.4999250000000  0.4439610000000  0.4659540000000 1.0
C      1  0.5446470000000  0.5446550000000  0.4552700000000 1.0
C      1  0.4552030000000  0.5446550000000  0.5447130000000 1.0
C      1  0.5446470000000  0.4552120000000  0.5447130000000 1.0
C      1  0.4552030000000  0.5446550000000  0.4552700000000 1.0
C      1  0.4552030000000  0.4552120000000  0.5447130000000 1.0
C      1  0.5446470000000  0.4552120000000  0.4552700000000 1.0
C      1  0.4552030000000  0.4552120000000  0.4552700000000 1.0
C      1  0.5446470000000  0.5446550000000  0.5447130000000 1.0
END
