TITL C-1379266-1300-405 1.69544879071227e-07 1000000 -2376.85988204801 0 0 340 (D2d) n - 1
REM
REM in /nfs/bkarasulu/CARBON/AIRSS/Generating-Clusters/GAP-ML-2020/Higher-Symm/Selected-Sizes/TryA-Only_Ih-Symm/Larger-Clusters/Try2-MINAMP_6A
REM
REM
REM
REM
REM
REM ./C.cell (31579ac4e95a012ec27f3239692ae8a5)
REM
REM compiler GCC version 9.2.1 20190827 (Red Hat 9.2.1-1)
REM options -cpp -mtune=generic -march=x86-64 -g -O0 -fpre-include=/usr/include/finclude/math-vector-fortran.h
REM seed -1788261971 2067004551 -1469394722 -1868058062 1402937684 -892534354 -1683776909 1516764288 -1718909941 -1943768891 -1437720380 -1873454430 327387281 308023537 298926973 -1405630475 -1045470994 -1112320682 236445378 36737463 -1412094339 1325282121 1670720919 -999974743 -1185710043 -1899044215 994750396 -213181475 -2118375999 1081808759 -1710140074 605958738 -700265224
REM
CELL 1.54180  100.00000  100.00000  100.00000   90.00000   90.00000   90.00000
LATT -1
SFAC C  
C      1  0.4415120000000  0.4782100000000  0.5399290000000 1.0
C      1  0.4787810000000  0.5389380000000  0.4422420000000 1.0
C      1  0.5397800000000  0.4413080000000  0.4785950000000 1.0
C      1  0.5584410000000  0.4782100000000  0.4595880000000 1.0
C      1  0.5584420000000  0.5212610000000  0.5399300000000 1.0
C      1  0.4415120000000  0.5212620000000  0.4595880000000 1.0
C      1  0.5211730000000  0.5389380000000  0.5572760000000 1.0
C      1  0.5211730000000  0.4605330000000  0.4422420000000 1.0
C      1  0.4787810000000  0.4605330000000  0.5572750000000 1.0
C      1  0.4601740000000  0.4413080000000  0.5209230000000 1.0
C      1  0.4601740000000  0.5581630000000  0.4785950000000 1.0
C      1  0.5397800000000  0.5581630000000  0.5209230000000 1.0
C      1  0.5401470000000  0.4782100000000  0.4412940000000 1.0
C      1  0.4424600000000  0.5389380000000  0.4785630000000 1.0
C      1  0.4788130000000  0.4413080000000  0.5395620000000 1.0
C      1  0.4598060000000  0.4782100000000  0.5582240000000 1.0
C      1  0.5401480000000  0.5212610000000  0.5582240000000 1.0
C      1  0.4598060000000  0.5212620000000  0.4412940000000 1.0
C      1  0.5574940000000  0.5389380000000  0.5209550000000 1.0
C      1  0.4424600000000  0.4605330000000  0.5209550000000 1.0
C      1  0.5574930000000  0.4605330000000  0.4785630000000 1.0
C      1  0.5211410000000  0.4413080000000  0.4599550000000 1.0
C      1  0.4788130000000  0.5581630000000  0.4599560000000 1.0
C      1  0.5211410000000  0.5581630000000  0.5395620000000 1.0
C      1  0.5166450000000  0.5715330000000  0.4927080000000 1.0
C      1  0.5701440000000  0.4929560000000  0.5159100000000 1.0
C      1  0.4935290000000  0.5160390000000  0.5697970000000 1.0
C      1  0.4833100000000  0.5715330000000  0.5068090000000 1.0
C      1  0.4833100000000  0.4279400000000  0.4927090000000 1.0
C      1  0.5166440000000  0.4279400000000  0.5068080000000 1.0
C      1  0.4298100000000  0.4929560000000  0.4836080000000 1.0
C      1  0.4298110000000  0.5065150000000  0.5159100000000 1.0
C      1  0.5701430000000  0.5065150000000  0.4836080000000 1.0
C      1  0.5064250000000  0.5160390000000  0.4297210000000 1.0
C      1  0.5064260000000  0.4834320000000  0.5697970000000 1.0
C      1  0.4935280000000  0.4834320000000  0.4297210000000 1.0
C      1  0.4929270000000  0.5715330000000  0.5164270000000 1.0
C      1  0.5161280000000  0.4929560000000  0.5699260000000 1.0
C      1  0.5700150000000  0.5160390000000  0.4933100000000 1.0
C      1  0.5070280000000  0.5715330000000  0.4830910000000 1.0
C      1  0.4929270000000  0.4279400000000  0.4830920000000 1.0
C      1  0.5070270000000  0.4279400000000  0.5164260000000 1.0
C      1  0.4838260000000  0.4929560000000  0.4295920000000 1.0
C      1  0.5161280000000  0.5065150000000  0.4295920000000 1.0
C      1  0.4838260000000  0.5065150000000  0.5699250000000 1.0
C      1  0.4299390000000  0.5160390000000  0.5062070000000 1.0
C      1  0.5700150000000  0.4834320000000  0.5062070000000 1.0
C      1  0.4299390000000  0.4834320000000  0.4933100000000 1.0
C      1  0.5515120000000  0.4727420000000  0.4828010000000 1.0
C      1  0.4720180000000  0.4826990000000  0.5468270000000 1.0
C      1  0.4832270000000  0.5542450000000  0.4729180000000 1.0
C      1  0.4484410000000  0.4727420000000  0.5167160000000 1.0
C      1  0.4484410000000  0.5267300000000  0.4828010000000 1.0
C      1  0.5515130000000  0.5267290000000  0.5167160000000 1.0
C      1  0.5279350000000  0.4826990000000  0.4526900000000 1.0
C      1  0.5279360000000  0.5167730000000  0.5468280000000 1.0
C      1  0.4720180000000  0.5167730000000  0.4526900000000 1.0
C      1  0.5167270000000  0.5542450000000  0.5266000000000 1.0
C      1  0.5167270000000  0.4452270000000  0.4729180000000 1.0
C      1  0.4832270000000  0.4452270000000  0.5266000000000 1.0
C      1  0.4830200000000  0.4727420000000  0.5512950000000 1.0
C      1  0.5470450000000  0.4826990000000  0.4718000000000 1.0
C      1  0.4731360000000  0.5542450000000  0.4830090000000 1.0
C      1  0.5169340000000  0.4727420000000  0.4482230000000 1.0
C      1  0.4830190000000  0.5267300000000  0.4482230000000 1.0
C      1  0.5169350000000  0.5267290000000  0.5512950000000 1.0
C      1  0.4529090000000  0.4826990000000  0.5277180000000 1.0
C      1  0.5470460000000  0.5167730000000  0.5277180000000 1.0
C      1  0.4529080000000  0.5167730000000  0.4718000000000 1.0
C      1  0.5268180000000  0.5542450000000  0.5165090000000 1.0
C      1  0.4731360000000  0.4452270000000  0.5165090000000 1.0
C      1  0.5268180000000  0.4452270000000  0.4830090000000 1.0
C      1  0.4147630000000  0.4834000000000  0.5260200000000 1.0
C      1  0.4827680000000  0.5256280000000  0.4150950000000 1.0
C      1  0.5269610000000  0.4138040000000  0.4821740000000 1.0
C      1  0.5851900000000  0.4833990000000  0.4734970000000 1.0
C      1  0.5851910000000  0.5160710000000  0.5260200000000 1.0
C      1  0.4147630000000  0.5160720000000  0.4734980000000 1.0
C      1  0.5171860000000  0.5256280000000  0.5844220000000 1.0
C      1  0.5171850000000  0.4738440000000  0.4150950000000 1.0
C      1  0.4827690000000  0.4738430000000  0.5844220000000 1.0
C      1  0.4729930000000  0.4138040000000  0.5173430000000 1.0
C      1  0.4729930000000  0.5856680000000  0.4821750000000 1.0
C      1  0.5269610000000  0.5856670000000  0.5173430000000 1.0
C      1  0.5262380000000  0.4834000000000  0.4145450000000 1.0
C      1  0.4153130000000  0.5256280000000  0.4825500000000 1.0
C      1  0.4823920000000  0.4138040000000  0.5267430000000 1.0
C      1  0.4737160000000  0.4834000000000  0.5849720000000 1.0
C      1  0.5262380000000  0.5160710000000  0.5849730000000 1.0
C      1  0.4737160000000  0.5160720000000  0.4145450000000 1.0
C      1  0.5846410000000  0.5256280000000  0.5169670000000 1.0
C      1  0.4153140000000  0.4738440000000  0.5169680000000 1.0
C      1  0.5846400000000  0.4738430000000  0.4825500000000 1.0
C      1  0.5175610000000  0.4138040000000  0.4727750000000 1.0
C      1  0.4823930000000  0.5856680000000  0.4727750000000 1.0
C      1  0.5175620000000  0.5856670000000  0.5267430000000 1.0
C      1  0.5391080000000  0.5630100000000  0.4915600000000 1.0
C      1  0.5616720000000  0.4917300000000  0.5380820000000 1.0
C      1  0.4918040000000  0.5386580000000  0.5618300000000 1.0
C      1  0.4608460000000  0.5630110000000  0.5079580000000 1.0
C      1  0.4608460000000  0.4364610000000  0.4915600000000 1.0
C      1  0.5391070000000  0.4364610000000  0.5079570000000 1.0
C      1  0.4382820000000  0.4917310000000  0.4614350000000 1.0
C      1  0.4382830000000  0.5077410000000  0.5380820000000 1.0
C      1  0.5616710000000  0.5077410000000  0.4614350000000 1.0
C      1  0.5081500000000  0.5386580000000  0.4376880000000 1.0
C      1  0.5081510000000  0.4608130000000  0.5618300000000 1.0
C      1  0.4918030000000  0.4608140000000  0.4376880000000 1.0
C      1  0.4917780000000  0.5630110000000  0.5388900000000 1.0
C      1  0.5383010000000  0.4917300000000  0.5614540000000 1.0
C      1  0.5620480000000  0.5386580000000  0.4915850000000 1.0
C      1  0.5081760000000  0.5630110000000  0.4606280000000 1.0
C      1  0.4917780000000  0.4364610000000  0.4606280000000 1.0
C      1  0.5081750000000  0.4364610000000  0.5388890000000 1.0
C      1  0.4616530000000  0.4917310000000  0.4380640000000 1.0
C      1  0.5383000000000  0.5077410000000  0.4380640000000 1.0
C      1  0.4616540000000  0.5077410000000  0.5614530000000 1.0
C      1  0.4379060000000  0.5386580000000  0.5079330000000 1.0
C      1  0.5620480000000  0.4608130000000  0.5079320000000 1.0
C      1  0.4379060000000  0.4608140000000  0.4915850000000 1.0
C      1  0.5506070000000  0.4980510000000  0.5605330000000 1.0
C      1  0.4981270000000  0.5615000000000  0.5510620000000 1.0
C      1  0.5611860000000  0.5508990000000  0.4979120000000 1.0
C      1  0.4493470000000  0.4980520000000  0.4389850000000 1.0
C      1  0.4493480000000  0.5014200000000  0.5605330000000 1.0
C      1  0.5506060000000  0.5014200000000  0.4389850000000 1.0
C      1  0.5018270000000  0.5615010000000  0.4484560000000 1.0
C      1  0.5018270000000  0.4379710000000  0.5510620000000 1.0
C      1  0.4981270000000  0.4379710000000  0.4484560000000 1.0
C      1  0.4387680000000  0.5508990000000  0.5016050000000 1.0
C      1  0.4387680000000  0.4485720000000  0.4979120000000 1.0
C      1  0.5611850000000  0.4485720000000  0.5016050000000 1.0
C      1  0.5607510000000  0.4980510000000  0.5503890000000 1.0
C      1  0.5512800000000  0.5615000000000  0.4979090000000 1.0
C      1  0.4981310000000  0.5508990000000  0.5609680000000 1.0
C      1  0.4392020000000  0.4980520000000  0.4491290000000 1.0
C      1  0.5607510000000  0.5014200000000  0.4491290000000 1.0
C      1  0.4392030000000  0.5014200000000  0.5503880000000 1.0
C      1  0.4486740000000  0.5615010000000  0.5016090000000 1.0
C      1  0.5512800000000  0.4379710000000  0.5016080000000 1.0
C      1  0.4486740000000  0.4379710000000  0.4979090000000 1.0
C      1  0.5018230000000  0.5508990000000  0.4385500000000 1.0
C      1  0.4981300000000  0.4485720000000  0.4385500000000 1.0
C      1  0.5018230000000  0.4485720000000  0.5609670000000 1.0
C      1  0.4969240000000  0.5510850000000  0.4768120000000 1.0
C      1  0.5495990000000  0.4767530000000  0.4964820000000 1.0
C      1  0.4774370000000  0.4970150000000  0.5485080000000 1.0
C      1  0.5030300000000  0.5510850000000  0.5227060000000 1.0
C      1  0.5030300000000  0.4483870000000  0.4768120000000 1.0
C      1  0.4969240000000  0.4483870000000  0.5227060000000 1.0
C      1  0.4503550000000  0.4767530000000  0.5030360000000 1.0
C      1  0.4503550000000  0.5227180000000  0.4964820000000 1.0
C      1  0.5495990000000  0.5227180000000  0.5030360000000 1.0
C      1  0.5225170000000  0.4970160000000  0.4510090000000 1.0
C      1  0.5225180000000  0.5024560000000  0.5485080000000 1.0
C      1  0.4774360000000  0.5024560000000  0.4510090000000 1.0
C      1  0.4770300000000  0.5510850000000  0.4967060000000 1.0
C      1  0.4967000000000  0.4767530000000  0.5493810000000 1.0
C      1  0.5487260000000  0.4970150000000  0.4772180000000 1.0
C      1  0.5229240000000  0.5510850000000  0.5028120000000 1.0
C      1  0.4770300000000  0.4483870000000  0.5028120000000 1.0
C      1  0.5229240000000  0.4483870000000  0.4967060000000 1.0
C      1  0.5032530000000  0.4767530000000  0.4501370000000 1.0
C      1  0.4967000000000  0.5227180000000  0.4501370000000 1.0
C      1  0.5032540000000  0.5227180000000  0.5493810000000 1.0
C      1  0.4512280000000  0.4970160000000  0.5222990000000 1.0
C      1  0.5487270000000  0.5024560000000  0.5223000000000 1.0
C      1  0.4512270000000  0.5024560000000  0.4772180000000 1.0
C      1  0.5092980000000  0.5305680000000  0.4498750000000 1.0
C      1  0.5305780000000  0.4484610000000  0.5092970000000 1.0
C      1  0.4504120000000  0.5095570000000  0.5297150000000 1.0
C      1  0.4906560000000  0.5305680000000  0.5496430000000 1.0
C      1  0.4906550000000  0.4689030000000  0.4498750000000 1.0
C      1  0.5092990000000  0.4689030000000  0.5496430000000 1.0
C      1  0.4693760000000  0.4484610000000  0.4902200000000 1.0
C      1  0.4693760000000  0.5510110000000  0.5092980000000 1.0
C      1  0.5305780000000  0.5510110000000  0.4902200000000 1.0
C      1  0.5495420000000  0.5095570000000  0.4698030000000 1.0
C      1  0.5495420000000  0.4899140000000  0.5297150000000 1.0
C      1  0.4504110000000  0.4899140000000  0.4698030000000 1.0
C      1  0.4500930000000  0.5305680000000  0.5090800000000 1.0
C      1  0.5095160000000  0.4484610000000  0.5303600000000 1.0
C      1  0.5299320000000  0.5095570000000  0.4501940000000 1.0
C      1  0.5498610000000  0.5305680000000  0.4904380000000 1.0
C      1  0.4500930000000  0.4689030000000  0.4904370000000 1.0
C      1  0.5498610000000  0.4689030000000  0.5090800000000 1.0
C      1  0.4904380000000  0.4484610000000  0.4691580000000 1.0
C      1  0.5095160000000  0.5510110000000  0.4691580000000 1.0
C      1  0.4904380000000  0.5510110000000  0.5303600000000 1.0
C      1  0.4700210000000  0.5095570000000  0.5493240000000 1.0
C      1  0.5299330000000  0.4899140000000  0.5493240000000 1.0
C      1  0.4700200000000  0.4899140000000  0.4501930000000 1.0
C      1  0.4698920000000  0.4952510000000  0.4269560000000 1.0
C      1  0.4958900000000  0.4256330000000  0.4691200000000 1.0
C      1  0.4273430000000  0.4694940000000  0.4958500000000 1.0
C      1  0.5300620000000  0.4952510000000  0.5725620000000 1.0
C      1  0.5300610000000  0.5042200000000  0.4269560000000 1.0
C      1  0.4698930000000  0.5042200000000  0.5725610000000 1.0
C      1  0.5040630000000  0.4256330000000  0.5303980000000 1.0
C      1  0.5040640000000  0.5738390000000  0.4691190000000 1.0
C      1  0.4958900000000  0.5738390000000  0.5303990000000 1.0
C      1  0.5726100000000  0.4694930000000  0.5036680000000 1.0
C      1  0.5726100000000  0.5299780000000  0.4958500000000 1.0
C      1  0.4273440000000  0.5299780000000  0.5036680000000 1.0
C      1  0.4271740000000  0.4952510000000  0.4696740000000 1.0
C      1  0.4693380000000  0.4256330000000  0.4956720000000 1.0
C      1  0.4960670000000  0.4694940000000  0.4271250000000 1.0
C      1  0.5727800000000  0.4952510000000  0.5298430000000 1.0
C      1  0.4271750000000  0.5042200000000  0.5298430000000 1.0
C      1  0.5727790000000  0.5042200000000  0.4696740000000 1.0
C      1  0.5306160000000  0.4256330000000  0.5038450000000 1.0
C      1  0.4693370000000  0.5738390000000  0.5038460000000 1.0
C      1  0.5306170000000  0.5738390000000  0.4956720000000 1.0
C      1  0.5038860000000  0.4694930000000  0.5723920000000 1.0
C      1  0.4960680000000  0.5299780000000  0.5723920000000 1.0
C      1  0.5038860000000  0.5299780000000  0.4271250000000 1.0
C      1  0.5510210000000  0.5126490000000  0.5610610000000 1.0
C      1  0.5127110000000  0.5607620000000  0.5507380000000 1.0
C      1  0.5606250000000  0.5502170000000  0.5124550000000 1.0
C      1  0.4489330000000  0.5126490000000  0.4384570000000 1.0
C      1  0.4489340000000  0.4868230000000  0.5610610000000 1.0
C      1  0.5510200000000  0.4868230000000  0.4384570000000 1.0
C      1  0.4872430000000  0.5607620000000  0.4487800000000 1.0
C      1  0.4872430000000  0.4387090000000  0.5507380000000 1.0
C      1  0.5127110000000  0.4387090000000  0.4487790000000 1.0
C      1  0.4393290000000  0.5502180000000  0.4870630000000 1.0
C      1  0.4393290000000  0.4492540000000  0.5124550000000 1.0
C      1  0.5606250000000  0.4492540000000  0.4870620000000 1.0
C      1  0.5612790000000  0.5126490000000  0.5508020000000 1.0
C      1  0.5509560000000  0.5607620000000  0.5124930000000 1.0
C      1  0.5126740000000  0.5502170000000  0.5604070000000 1.0
C      1  0.4386750000000  0.5126490000000  0.4487150000000 1.0
C      1  0.5612780000000  0.4868220000000  0.4487160000000 1.0
C      1  0.4386750000000  0.4868230000000  0.5508020000000 1.0
C      1  0.4489980000000  0.5607620000000  0.4870250000000 1.0
C      1  0.5509560000000  0.4387090000000  0.4870240000000 1.0
C      1  0.4489980000000  0.4387090000000  0.5124930000000 1.0
C      1  0.4872810000000  0.5502180000000  0.4391110000000 1.0
C      1  0.5126730000000  0.4492540000000  0.4391100000000 1.0
C      1  0.4872810000000  0.4492540000000  0.5604070000000 1.0
C      1  0.4703240000000  0.4792630000000  0.4600140000000 1.0
C      1  0.4801040000000  0.4586320000000  0.4697700000000 1.0
C      1  0.4601140000000  0.4690420000000  0.4800430000000 1.0
C      1  0.5296300000000  0.4792630000000  0.5395030000000 1.0
C      1  0.5296290000000  0.5202080000000  0.4600150000000 1.0
C      1  0.4703250000000  0.5202080000000  0.5395030000000 1.0
C      1  0.5198500000000  0.4586320000000  0.5297480000000 1.0
C      1  0.5198490000000  0.5408400000000  0.4697700000000 1.0
C      1  0.4801050000000  0.5408400000000  0.5297480000000 1.0
C      1  0.5398400000000  0.4690410000000  0.5194750000000 1.0
C      1  0.5398400000000  0.5304300000000  0.4800430000000 1.0
C      1  0.4601150000000  0.5304300000000  0.5194740000000 1.0
C      1  0.4602320000000  0.4792630000000  0.4701060000000 1.0
C      1  0.4699880000000  0.4586320000000  0.4798860000000 1.0
C      1  0.4802610000000  0.4690420000000  0.4598960000000 1.0
C      1  0.5397210000000  0.4792630000000  0.5294120000000 1.0
C      1  0.4602330000000  0.5202080000000  0.5294110000000 1.0
C      1  0.5397210000000  0.5202080000000  0.4701070000000 1.0
C      1  0.5299660000000  0.4586320000000  0.5196310000000 1.0
C      1  0.4699880000000  0.5408400000000  0.5196310000000 1.0
C      1  0.5299660000000  0.5408400000000  0.4798870000000 1.0
C      1  0.5196930000000  0.4690410000000  0.5396220000000 1.0
C      1  0.4802620000000  0.5304300000000  0.5396220000000 1.0
C      1  0.5196920000000  0.5304300000000  0.4598960000000 1.0
C      1  0.5344530000000  0.5438390000000  0.5538640000000 1.0
C      1  0.5440690000000  0.5539170000000  0.5339990000000 1.0
C      1  0.5548460000000  0.5344100000000  0.5444770000000 1.0
C      1  0.4655020000000  0.5438390000000  0.4456540000000 1.0
C      1  0.4655020000000  0.4556320000000  0.5538640000000 1.0
C      1  0.5344520000000  0.4556320000000  0.4456530000000 1.0
C      1  0.4558850000000  0.5539170000000  0.4655190000000 1.0
C      1  0.4558850000000  0.4455540000000  0.5339990000000 1.0
C      1  0.5440690000000  0.4455540000000  0.4655180000000 1.0
C      1  0.4451080000000  0.5344110000000  0.4550410000000 1.0
C      1  0.4451080000000  0.4650610000000  0.5444770000000 1.0
C      1  0.5548450000000  0.4650610000000  0.4550410000000 1.0
C      1  0.5540820000000  0.5438390000000  0.5342340000000 1.0
C      1  0.5342170000000  0.5539170000000  0.5438510000000 1.0
C      1  0.5446950000000  0.5344100000000  0.5546280000000 1.0
C      1  0.4458720000000  0.5438390000000  0.4652840000000 1.0
C      1  0.5540820000000  0.4556320000000  0.4652830000000 1.0
C      1  0.4458720000000  0.4556320000000  0.5342340000000 1.0
C      1  0.4657370000000  0.5539170000000  0.4556670000000 1.0
C      1  0.5342170000000  0.4455540000000  0.4556670000000 1.0
C      1  0.4657370000000  0.4455540000000  0.5438510000000 1.0
C      1  0.4552590000000  0.5344110000000  0.4448900000000 1.0
C      1  0.5446940000000  0.4650610000000  0.4448900000000 1.0
C      1  0.4552590000000  0.4650610000000  0.5546280000000 1.0
C      1  0.5112220000000  0.4991190000000  0.4421910000000 1.0
C      1  0.4997320000000  0.4405900000000  0.5107430000000 1.0
C      1  0.4425050000000  0.5107800000000  0.4992900000000 1.0
C      1  0.4887320000000  0.4991190000000  0.5573270000000 1.0
C      1  0.4887310000000  0.5003530000000  0.4421900000000 1.0
C      1  0.5112230000000  0.5003520000000  0.5573270000000 1.0
C      1  0.5002220000000  0.4405900000000  0.4887740000000 1.0
C      1  0.5002220000000  0.5588830000000  0.5107430000000 1.0
C      1  0.4997320000000  0.5588830000000  0.4887740000000 1.0
C      1  0.5574480000000  0.5107800000000  0.5002270000000 1.0
C      1  0.5574480000000  0.4886910000000  0.4992910000000 1.0
C      1  0.4425050000000  0.4886910000000  0.5002270000000 1.0
C      1  0.4424090000000  0.4991190000000  0.5110040000000 1.0
C      1  0.5109610000000  0.4405900000000  0.4995140000000 1.0
C      1  0.4995080000000  0.5107800000000  0.4422870000000 1.0
C      1  0.5575450000000  0.4991190000000  0.4885130000000 1.0
C      1  0.4424090000000  0.5003530000000  0.4885130000000 1.0
C      1  0.5575450000000  0.5003520000000  0.5110040000000 1.0
C      1  0.4889920000000  0.4405900000000  0.5000040000000 1.0
C      1  0.5109620000000  0.5588830000000  0.5000040000000 1.0
C      1  0.4889920000000  0.5588830000000  0.4995140000000 1.0
C      1  0.5004460000000  0.5107800000000  0.5572300000000 1.0
C      1  0.4995090000000  0.4886910000000  0.5572310000000 1.0
C      1  0.5004450000000  0.4886910000000  0.4422870000000 1.0
C      1  0.4929560000000  0.4181410000000  0.5325620000000 1.0
C      1  0.4196920000000  0.5318940000000  0.4927540000000 1.0
C      1  0.5321880000000  0.4940100000000  0.4182430000000 1.0
C      1  0.5069970000000  0.4181410000000  0.4669550000000 1.0
C      1  0.5069980000000  0.5813300000000  0.5325630000000 1.0
C      1  0.4929560000000  0.5813310000000  0.4669550000000 1.0
C      1  0.5802630000000  0.5318940000000  0.5067640000000 1.0
C      1  0.5802620000000  0.4675770000000  0.4927530000000 1.0
C      1  0.4196910000000  0.4675770000000  0.5067640000000 1.0
C      1  0.4677660000000  0.4940090000000  0.5812750000000 1.0
C      1  0.4677650000000  0.5054620000000  0.4182430000000 1.0
C      1  0.5321890000000  0.5054620000000  0.5812750000000 1.0
C      1  0.5327800000000  0.4181410000000  0.4927380000000 1.0
C      1  0.4929720000000  0.5318940000000  0.4194730000000 1.0
C      1  0.4184610000000  0.4940100000000  0.5319700000000 1.0
C      1  0.4671730000000  0.4181410000000  0.5067790000000 1.0
C      1  0.5327810000000  0.5813300000000  0.5067790000000 1.0
C      1  0.4671730000000  0.5813310000000  0.4927380000000 1.0
C      1  0.5069820000000  0.5318940000000  0.5800440000000 1.0
C      1  0.4929720000000  0.4675770000000  0.5800440000000 1.0
C      1  0.5069820000000  0.4675770000000  0.4194730000000 1.0
C      1  0.5814930000000  0.4940090000000  0.4675470000000 1.0
C      1  0.4184610000000  0.5054620000000  0.4675480000000 1.0
C      1  0.5814930000000  0.5054610000000  0.5319700000000 1.0
C      1  0.4656250000000  0.5192810000000  0.4654070000000 1.0
C      1  0.5343280000000  0.4801910000000  0.4654070000000 1.0
C      1  0.4656260000000  0.4801910000000  0.5341100000000 1.0
C      1  0.5343290000000  0.5192800000000  0.5341110000000 1.0
END
