TITL C-1379268-1316-30 -1.42033640230267e-06 1000000 -3799.35511883113 0 0 520 (C1) n - 1
REM
REM in /nfs/bkarasulu/CARBON/AIRSS/Generating-Clusters/GAP-ML-2020/Higher-Symm/Selected-Sizes/TryA-Only_Ih-Symm/Larger-Clusters/Try2-MINAMP_6A
REM
REM
REM
REM
REM
REM ./C.cell (31579ac4e95a012ec27f3239692ae8a5)
REM
REM compiler GCC version 9.2.1 20190827 (Red Hat 9.2.1-1)
REM options -cpp -mtune=generic -march=x86-64 -g -O0 -fpre-include=/usr/include/finclude/math-vector-fortran.h
REM seed -692771493 1861412216 1598232206 790192754 723788052 -1581738585 373535081 -781458140 -1791740245 -452693357 -1071206881 -1139589444 -1316503281 -1490130990 2031359752 18179578 -1946912961 -78115815 830668615 1934949757 389651335 1120730089 1784466422 -263365091 921042624 -891034725 -374088309 -1679849665 468671507 1329321855 -980558196 1545629700 -1706405343
REM
CELL 1.54180  100.00000  100.00000  100.00000   90.00000   90.00000   90.00000
LATT -1
SFAC C  
C      1  0.4658010000000  0.4287480000000  0.4737850000000 1.0
C      1  0.4752270000000  0.4644170000000  0.4278910000000 1.0
C      1  0.4282920000000  0.4745580000000  0.4641630000000 1.0
C      1  0.5365080000000  0.5715190000000  0.4750650000000 1.0
C      1  0.5359190000000  0.4284880000000  0.5254070000000 1.0
C      1  0.4666430000000  0.5703890000000  0.5256420000000 1.0
C      1  0.5263910000000  0.5346380000000  0.4283760000000 1.0
C      1  0.5262090000000  0.4661290000000  0.5706650000000 1.0
C      1  0.4752160000000  0.5362340000000  0.5716660000000 1.0
C      1  0.5702750000000  0.5257680000000  0.4666750000000 1.0
C      1  0.5709610000000  0.4755440000000  0.5358740000000 1.0
C      1  0.4283870000000  0.5260720000000  0.5346400000000 1.0
C      1  0.4283260000000  0.4654240000000  0.4740280000000 1.0
C      1  0.4662220000000  0.4743990000000  0.4290210000000 1.0
C      1  0.4749020000000  0.4276830000000  0.4638850000000 1.0
C      1  0.5711800000000  0.5358440000000  0.4755680000000 1.0
C      1  0.4284020000000  0.5359430000000  0.5254990000000 1.0
C      1  0.5700500000000  0.4666520000000  0.5257940000000 1.0
C      1  0.5362470000000  0.5254820000000  0.4284520000000 1.0
C      1  0.4661840000000  0.5262810000000  0.5707600000000 1.0
C      1  0.5361870000000  0.4751280000000  0.5715970000000 1.0
C      1  0.5265470000000  0.5706880000000  0.4660420000000 1.0
C      1  0.4755770000000  0.5713870000000  0.5356780000000 1.0
C      1  0.5260300000000  0.4284860000000  0.5345220000000 1.0
C      1  0.4453140000000  0.4557220000000  0.5650150000000 1.0
C      1  0.5649020000000  0.4457790000000  0.4562720000000 1.0
C      1  0.4554030000000  0.5646280000000  0.4456610000000 1.0
C      1  0.5545480000000  0.5437110000000  0.5640450000000 1.0
C      1  0.5552500000000  0.4566460000000  0.4357900000000 1.0
C      1  0.4450790000000  0.5440090000000  0.4361340000000 1.0
C      1  0.4353440000000  0.5543520000000  0.4566540000000 1.0
C      1  0.4352500000000  0.4450960000000  0.5447570000000 1.0
C      1  0.5644560000000  0.5542430000000  0.5436240000000 1.0
C      1  0.5444170000000  0.4364590000000  0.4463680000000 1.0
C      1  0.5440470000000  0.5641280000000  0.5541340000000 1.0
C      1  0.4557010000000  0.4353100000000  0.5550910000000 1.0
C      1  0.4558170000000  0.4452510000000  0.5649510000000 1.0
C      1  0.4452010000000  0.5642920000000  0.4564130000000 1.0
C      1  0.5649400000000  0.4562940000000  0.4457590000000 1.0
C      1  0.5440300000000  0.5542870000000  0.5640220000000 1.0
C      1  0.4552910000000  0.5547460000000  0.4357480000000 1.0
C      1  0.5444450000000  0.4464700000000  0.4363790000000 1.0
C      1  0.5551750000000  0.4358450000000  0.4565830000000 1.0
C      1  0.4451640000000  0.4352300000000  0.5446400000000 1.0
C      1  0.5546180000000  0.5641380000000  0.5436060000000 1.0
C      1  0.4353180000000  0.5438570000000  0.4461810000000 1.0
C      1  0.5644150000000  0.5436880000000  0.5541810000000 1.0
C      1  0.4353190000000  0.4556200000000  0.5552220000000 1.0
C      1  0.5304040000000  0.4925360000000  0.5411430000000 1.0
C      1  0.5405300000000  0.5304190000000  0.4924930000000 1.0
C      1  0.4927470000000  0.5407760000000  0.5305240000000 1.0
C      1  0.4673420000000  0.5065520000000  0.5422010000000 1.0
C      1  0.4673550000000  0.4936950000000  0.4587980000000 1.0
C      1  0.5304020000000  0.5066890000000  0.4580550000000 1.0
C      1  0.4577060000000  0.4680700000000  0.4929260000000 1.0
C      1  0.4583710000000  0.5305260000000  0.5071540000000 1.0
C      1  0.5405600000000  0.4675350000000  0.5060200000000 1.0
C      1  0.5070370000000  0.4580000000000  0.5314710000000 1.0
C      1  0.5066310000000  0.5422290000000  0.4669850000000 1.0
C      1  0.4918790000000  0.4583550000000  0.4687740000000 1.0
C      1  0.4927250000000  0.5306600000000  0.5411510000000 1.0
C      1  0.5305650000000  0.5410930000000  0.4924630000000 1.0
C      1  0.5403640000000  0.4925510000000  0.5304430000000 1.0
C      1  0.5063800000000  0.4672540000000  0.5419890000000 1.0
C      1  0.4919100000000  0.4689110000000  0.4585990000000 1.0
C      1  0.5072570000000  0.5317310000000  0.4577670000000 1.0
C      1  0.4668740000000  0.4575410000000  0.4934190000000 1.0
C      1  0.5302040000000  0.4580700000000  0.5065680000000 1.0
C      1  0.4678600000000  0.5408920000000  0.5062130000000 1.0
C      1  0.4579050000000  0.5071070000000  0.5319060000000 1.0
C      1  0.5407680000000  0.5060610000000  0.4674920000000 1.0
C      1  0.4581730000000  0.4928080000000  0.4694430000000 1.0
C      1  0.5469160000000  0.4824800000000  0.4352970000000 1.0
C      1  0.4351490000000  0.5470360000000  0.4825880000000 1.0
C      1  0.4821330000000  0.4352960000000  0.5477510000000 1.0
C      1  0.4529230000000  0.5181460000000  0.4364400000000 1.0
C      1  0.4525890000000  0.4822130000000  0.5649290000000 1.0
C      1  0.5459860000000  0.5169870000000  0.5632980000000 1.0
C      1  0.5628230000000  0.4535900000000  0.4820030000000 1.0
C      1  0.5633700000000  0.5457030000000  0.5169290000000 1.0
C      1  0.4350940000000  0.4521090000000  0.5180910000000 1.0
C      1  0.5173840000000  0.5632990000000  0.5458120000000 1.0
C      1  0.5176420000000  0.4359580000000  0.4533110000000 1.0
C      1  0.4823200000000  0.5648630000000  0.4525140000000 1.0
C      1  0.4822550000000  0.5478730000000  0.4351970000000 1.0
C      1  0.5468520000000  0.4352830000000  0.4823880000000 1.0
C      1  0.4352160000000  0.4820900000000  0.5479790000000 1.0
C      1  0.5176810000000  0.4534930000000  0.4359430000000 1.0
C      1  0.4821700000000  0.4526000000000  0.5648070000000 1.0
C      1  0.5173490000000  0.5460190000000  0.5633150000000 1.0
C      1  0.4532180000000  0.5634920000000  0.4820500000000 1.0
C      1  0.5460610000000  0.5632980000000  0.5168690000000 1.0
C      1  0.4523170000000  0.4350680000000  0.5180120000000 1.0
C      1  0.5632940000000  0.5169640000000  0.5457520000000 1.0
C      1  0.4350580000000  0.5176040000000  0.4530090000000 1.0
C      1  0.5628950000000  0.4819900000000  0.4536200000000 1.0
C      1  0.4233660000000  0.5415110000000  0.4775270000000 1.0
C      1  0.4763880000000  0.4238740000000  0.5423090000000 1.0
C      1  0.5429300000000  0.4774690000000  0.4229130000000 1.0
C      1  0.5747020000000  0.4589660000000  0.4771290000000 1.0
C      1  0.5752550000000  0.5413750000000  0.5230720000000 1.0
C      1  0.4237550000000  0.4575900000000  0.5239800000000 1.0
C      1  0.5235100000000  0.5751010000000  0.5413570000000 1.0
C      1  0.5238720000000  0.4248600000000  0.4591250000000 1.0
C      1  0.4765020000000  0.5761980000000  0.4579370000000 1.0
C      1  0.4583590000000  0.5235650000000  0.4249130000000 1.0
C      1  0.4581420000000  0.4765740000000  0.5763040000000 1.0
C      1  0.5417820000000  0.5232180000000  0.5751450000000 1.0
C      1  0.5427860000000  0.4229410000000  0.4773470000000 1.0
C      1  0.4237760000000  0.4763310000000  0.5425880000000 1.0
C      1  0.4761980000000  0.5425940000000  0.4238760000000 1.0
C      1  0.4587660000000  0.5750940000000  0.4768680000000 1.0
C      1  0.5419250000000  0.5752170000000  0.5230450000000 1.0
C      1  0.4577410000000  0.4237060000000  0.5237970000000 1.0
C      1  0.5751840000000  0.5230720000000  0.5414030000000 1.0
C      1  0.4234930000000  0.5229120000000  0.4587600000000 1.0
C      1  0.5747680000000  0.4770990000000  0.4590070000000 1.0
C      1  0.5239390000000  0.4593520000000  0.4248820000000 1.0
C      1  0.4766490000000  0.4581370000000  0.5762470000000 1.0
C      1  0.5234620000000  0.5416720000000  0.5751650000000 1.0
C      1  0.5254670000000  0.4506220000000  0.4827630000000 1.0
C      1  0.4823270000000  0.5277720000000  0.4516410000000 1.0
C      1  0.4513610000000  0.4821430000000  0.5278300000000 1.0
C      1  0.4724260000000  0.5472830000000  0.4820580000000 1.0
C      1  0.4721540000000  0.4514010000000  0.5179660000000 1.0
C      1  0.5261210000000  0.5481000000000  0.5160960000000 1.0
C      1  0.5154030000000  0.4732350000000  0.4513750000000 1.0
C      1  0.5162700000000  0.5260280000000  0.5481900000000 1.0
C      1  0.4820900000000  0.4723080000000  0.5484290000000 1.0
C      1  0.5476440000000  0.5161610000000  0.5259940000000 1.0
C      1  0.5463550000000  0.4819770000000  0.4722060000000 1.0
C      1  0.4506970000000  0.5164330000000  0.4736890000000 1.0
C      1  0.4507040000000  0.5262890000000  0.4835590000000 1.0
C      1  0.5255350000000  0.4828550000000  0.4506530000000 1.0
C      1  0.4822410000000  0.4514830000000  0.5276680000000 1.0
C      1  0.5463110000000  0.4722160000000  0.4819720000000 1.0
C      1  0.4513330000000  0.4721910000000  0.5179190000000 1.0
C      1  0.5476750000000  0.5259980000000  0.5161480000000 1.0
C      1  0.4723250000000  0.5180040000000  0.4525090000000 1.0
C      1  0.5260440000000  0.5161440000000  0.5481660000000 1.0
C      1  0.4722560000000  0.4821570000000  0.5484790000000 1.0
C      1  0.5163390000000  0.5479300000000  0.5259820000000 1.0
C      1  0.4821870000000  0.5481840000000  0.4721690000000 1.0
C      1  0.5153210000000  0.4512220000000  0.4731680000000 1.0
C      1  0.5558790000000  0.4932160000000  0.4352800000000 1.0
C      1  0.4345900000000  0.5563700000000  0.4930530000000 1.0
C      1  0.4937370000000  0.4351490000000  0.5554220000000 1.0
C      1  0.4450320000000  0.5068890000000  0.4347640000000 1.0
C      1  0.4451770000000  0.4939580000000  0.5651820000000 1.0
C      1  0.5560390000000  0.5075400000000  0.5656690000000 1.0
C      1  0.5645090000000  0.4458740000000  0.4933770000000 1.0
C      1  0.5658930000000  0.5558590000000  0.5075730000000 1.0
C      1  0.4349930000000  0.4445750000000  0.5063670000000 1.0
C      1  0.5078740000000  0.5657340000000  0.5558140000000 1.0
C      1  0.5079590000000  0.4337610000000  0.4434050000000 1.0
C      1  0.4941680000000  0.5649890000000  0.4452310000000 1.0
C      1  0.4940300000000  0.5553200000000  0.4352310000000 1.0
C      1  0.5557470000000  0.4352370000000  0.4931820000000 1.0
C      1  0.4351530000000  0.4937830000000  0.5555250000000 1.0
C      1  0.5080110000000  0.4435980000000  0.4336110000000 1.0
C      1  0.4938700000000  0.4451320000000  0.5651150000000 1.0
C      1  0.5078160000000  0.5560180000000  0.5655910000000 1.0
C      1  0.4452900000000  0.5651950000000  0.4932730000000 1.0
C      1  0.5561890000000  0.5656330000000  0.5074850000000 1.0
C      1  0.4449620000000  0.4348510000000  0.5062170000000 1.0
C      1  0.5657600000000  0.5075880000000  0.5559070000000 1.0
C      1  0.4344270000000  0.5070920000000  0.4437100000000 1.0
C      1  0.5646380000000  0.4933640000000  0.4459150000000 1.0
C      1  0.5691950000000  0.4880940000000  0.5303160000000 1.0
C      1  0.5306360000000  0.5702100000000  0.4875930000000 1.0
C      1  0.4877450000000  0.5302860000000  0.5704980000000 1.0
C      1  0.4336260000000  0.5136800000000  0.5273230000000 1.0
C      1  0.4338550000000  0.4868370000000  0.4705280000000 1.0
C      1  0.5643660000000  0.5140920000000  0.4738210000000 1.0
C      1  0.4732090000000  0.4340440000000  0.4858140000000 1.0
C      1  0.4738590000000  0.5647510000000  0.5138330000000 1.0
C      1  0.5295980000000  0.4341080000000  0.5131400000000 1.0
C      1  0.5142150000000  0.4735050000000  0.5654620000000 1.0
C      1  0.5140040000000  0.5272900000000  0.4335380000000 1.0
C      1  0.4877250000000  0.4704550000000  0.4289950000000 1.0
C      1  0.4881000000000  0.5699570000000  0.5299080000000 1.0
C      1  0.5693530000000  0.5302920000000  0.4881150000000 1.0
C      1  0.5303170000000  0.4876700000000  0.5704050000000 1.0
C      1  0.5136680000000  0.4336470000000  0.5271310000000 1.0
C      1  0.4874120000000  0.4286000000000  0.4700690000000 1.0
C      1  0.5145410000000  0.5654630000000  0.4733970000000 1.0
C      1  0.4334450000000  0.4727680000000  0.4864480000000 1.0
C      1  0.5641890000000  0.4738090000000  0.5141070000000 1.0
C      1  0.4340660000000  0.5296050000000  0.5132680000000 1.0
C      1  0.4735950000000  0.5142770000000  0.5655760000000 1.0
C      1  0.5298680000000  0.5132740000000  0.4341410000000 1.0
C      1  0.4734430000000  0.4862500000000  0.4347570000000 1.0
C      1  0.5669120000000  0.4534460000000  0.5282940000000 1.0
C      1  0.5290110000000  0.5668210000000  0.4529770000000 1.0
C      1  0.4531610000000  0.5287470000000  0.5667330000000 1.0
C      1  0.4330060000000  0.5488680000000  0.5283350000000 1.0
C      1  0.4331860000000  0.4524730000000  0.4714550000000 1.0
C      1  0.5685850000000  0.5491990000000  0.4724620000000 1.0
C      1  0.4723190000000  0.4319180000000  0.4507560000000 1.0
C      1  0.4726280000000  0.5683700000000  0.5490000000000 1.0
C      1  0.5285830000000  0.4332620000000  0.5475110000000 1.0
C      1  0.5494790000000  0.4722600000000  0.5683560000000 1.0
C      1  0.5491780000000  0.5284070000000  0.4329330000000 1.0
C      1  0.4531610000000  0.4718690000000  0.4327550000000 1.0
C      1  0.4535090000000  0.5669750000000  0.5281540000000 1.0
C      1  0.5671820000000  0.5282760000000  0.4534590000000 1.0
C      1  0.5286560000000  0.4530780000000  0.5667370000000 1.0
C      1  0.5488460000000  0.4329640000000  0.5283640000000 1.0
C      1  0.4528460000000  0.4330430000000  0.4713070000000 1.0
C      1  0.5498130000000  0.5683600000000  0.4722080000000 1.0
C      1  0.4329620000000  0.4717720000000  0.4512480000000 1.0
C      1  0.5682980000000  0.4724580000000  0.5492190000000 1.0
C      1  0.4331740000000  0.5286730000000  0.5476210000000 1.0
C      1  0.4724280000000  0.5494890000000  0.5681890000000 1.0
C      1  0.5289550000000  0.5476380000000  0.4331110000000 1.0
C      1  0.4725050000000  0.4512170000000  0.4317480000000 1.0
C      1  0.5514530000000  0.5405610000000  0.4401320000000 1.0
C      1  0.4402800000000  0.5511480000000  0.5404510000000 1.0
C      1  0.5408270000000  0.4402730000000  0.5503310000000 1.0
C      1  0.4502050000000  0.4593130000000  0.4388310000000 1.0
C      1  0.4502430000000  0.5412190000000  0.5605360000000 1.0
C      1  0.5517950000000  0.4597580000000  0.5615760000000 1.0
C      1  0.5611390000000  0.4502630000000  0.5408920000000 1.0
C      1  0.5621300000000  0.5515570000000  0.4598370000000 1.0
C      1  0.4402940000000  0.4497870000000  0.4592370000000 1.0
C      1  0.4600360000000  0.5618420000000  0.5513800000000 1.0
C      1  0.4598610000000  0.4387170000000  0.4483380000000 1.0
C      1  0.5415140000000  0.5607010000000  0.4500240000000 1.0
C      1  0.5411810000000  0.5504070000000  0.4401840000000 1.0
C      1  0.5511220000000  0.4401710000000  0.5405200000000 1.0
C      1  0.4403480000000  0.5408790000000  0.5503000000000 1.0
C      1  0.4599550000000  0.4487600000000  0.4383010000000 1.0
C      1  0.5411610000000  0.4500990000000  0.5606410000000 1.0
C      1  0.4599360000000  0.5518310000000  0.5614050000000 1.0
C      1  0.4503930000000  0.5611570000000  0.5407550000000 1.0
C      1  0.5521390000000  0.5615950000000  0.4597040000000 1.0
C      1  0.4500590000000  0.4394360000000  0.4588720000000 1.0
C      1  0.5618040000000  0.4598560000000  0.5515590000000 1.0
C      1  0.4402390000000  0.4596680000000  0.4489750000000 1.0
C      1  0.5614490000000  0.5408890000000  0.4502500000000 1.0
C      1  0.4520720000000  0.5051580000000  0.5694470000000 1.0
C      1  0.5690800000000  0.4524970000000  0.5046720000000 1.0
C      1  0.5054120000000  0.5694280000000  0.4519350000000 1.0
C      1  0.5514320000000  0.4963080000000  0.5722770000000 1.0
C      1  0.5508440000000  0.5046470000000  0.4296320000000 1.0
C      1  0.4520540000000  0.4956740000000  0.4304770000000 1.0
C      1  0.4296420000000  0.5505080000000  0.5044810000000 1.0
C      1  0.4302970000000  0.4512450000000  0.4952650000000 1.0
C      1  0.5725730000000  0.5513260000000  0.4963560000000 1.0
C      1  0.4965880000000  0.4283880000000  0.4491680000000 1.0
C      1  0.4966320000000  0.5721660000000  0.5510110000000 1.0
C      1  0.5048210000000  0.4304740000000  0.5487110000000 1.0
C      1  0.5050700000000  0.4520180000000  0.5694170000000 1.0
C      1  0.4523680000000  0.5693390000000  0.5044970000000 1.0
C      1  0.5692740000000  0.5046410000000  0.4525280000000 1.0
C      1  0.4965290000000  0.5513010000000  0.5720070000000 1.0
C      1  0.5051650000000  0.5488390000000  0.4303650000000 1.0
C      1  0.4966830000000  0.4494300000000  0.4282200000000 1.0
C      1  0.5506030000000  0.4296360000000  0.5045930000000 1.0
C      1  0.4517790000000  0.4304260000000  0.4950240000000 1.0
C      1  0.5517080000000  0.5723050000000  0.4962390000000 1.0
C      1  0.4295680000000  0.4956500000000  0.4496270000000 1.0
C      1  0.5723680000000  0.4963360000000  0.5513610000000 1.0
C      1  0.4304160000000  0.5048580000000  0.5488430000000 1.0
C      1  0.5169800000000  0.4717540000000  0.5502670000000 1.0
C      1  0.5492850000000  0.5166790000000  0.4716910000000 1.0
C      1  0.4720690000000  0.5495290000000  0.5167060000000 1.0
C      1  0.4787730000000  0.5280980000000  0.5445120000000 1.0
C      1  0.4779570000000  0.4718090000000  0.4554860000000 1.0
C      1  0.5177590000000  0.5274220000000  0.4488590000000 1.0
C      1  0.4493760000000  0.4819780000000  0.4718660000000 1.0
C      1  0.4489400000000  0.5175890000000  0.5275810000000 1.0
C      1  0.5436010000000  0.4785810000000  0.5277190000000 1.0
C      1  0.5281040000000  0.4495030000000  0.5176230000000 1.0
C      1  0.5280660000000  0.5444400000000  0.4784940000000 1.0
C      1  0.4715020000000  0.4493260000000  0.4827470000000 1.0
C      1  0.4719930000000  0.5171840000000  0.5503640000000 1.0
C      1  0.5172900000000  0.5503330000000  0.4715870000000 1.0
C      1  0.5490690000000  0.4717310000000  0.5166630000000 1.0
C      1  0.5278670000000  0.4785690000000  0.5444570000000 1.0
C      1  0.4715330000000  0.4831920000000  0.4500620000000 1.0
C      1  0.5283420000000  0.5177720000000  0.4494920000000 1.0
C      1  0.4779210000000  0.4551240000000  0.4715480000000 1.0
C      1  0.5174830000000  0.4489660000000  0.5272110000000 1.0
C      1  0.4787990000000  0.5440360000000  0.5278410000000 1.0
C      1  0.4496070000000  0.5282760000000  0.5180690000000 1.0
C      1  0.5438150000000  0.5277230000000  0.4785410000000 1.0
C      1  0.4487190000000  0.4725000000000  0.4825270000000 1.0
C      1  0.5530140000000  0.5098690000000  0.4977430000000 1.0
C      1  0.4979080000000  0.5534740000000  0.5098190000000 1.0
C      1  0.5099700000000  0.4976710000000  0.5539990000000 1.0
C      1  0.4519470000000  0.4891490000000  0.5012060000000 1.0
C      1  0.4459270000000  0.5096510000000  0.5024170000000 1.0
C      1  0.5472640000000  0.4891810000000  0.4988510000000 1.0
C      1  0.4984410000000  0.4517630000000  0.5102520000000 1.0
C      1  0.4991450000000  0.5481840000000  0.4889080000000 1.0
C      1  0.4970370000000  0.4457040000000  0.4895870000000 1.0
C      1  0.4891610000000  0.4989260000000  0.5484470000000 1.0
C      1  0.4889270000000  0.5008970000000  0.4521210000000 1.0
C      1  0.5094720000000  0.5019670000000  0.4459770000000 1.0
C      1  0.5101410000000  0.5538060000000  0.4975200000000 1.0
C      1  0.5529480000000  0.4977420000000  0.5098860000000 1.0
C      1  0.4976870000000  0.5100430000000  0.5539980000000 1.0
C      1  0.4885830000000  0.4514590000000  0.5007140000000 1.0
C      1  0.5092890000000  0.4458650000000  0.5017890000000 1.0
C      1  0.4895030000000  0.5477550000000  0.4986860000000 1.0
C      1  0.4519990000000  0.4988340000000  0.5108630000000 1.0
C      1  0.5473290000000  0.4988590000000  0.4891640000000 1.0
C      1  0.4458730000000  0.4976230000000  0.4903980000000 1.0
C      1  0.4988590000000  0.4891680000000  0.5484350000000 1.0
C      1  0.4972530000000  0.4897920000000  0.4461280000000 1.0
C      1  0.4987220000000  0.5104900000000  0.4519280000000 1.0
C      1  0.4992480000000  0.4213420000000  0.4896770000000 1.0
C      1  0.4891190000000  0.5019850000000  0.4180440000000 1.0
C      1  0.4177190000000  0.4883990000000  0.5019490000000 1.0
C      1  0.4989670000000  0.5821810000000  0.4886230000000 1.0
C      1  0.4984030000000  0.4176830000000  0.5117710000000 1.0
C      1  0.4992970000000  0.5780220000000  0.5105140000000 1.0
C      1  0.5115110000000  0.5016240000000  0.4214370000000 1.0
C      1  0.5108390000000  0.4989900000000  0.5784030000000 1.0
C      1  0.4888610000000  0.4986380000000  0.5823050000000 1.0
C      1  0.5775420000000  0.5109420000000  0.4990680000000 1.0
C      1  0.5817150000000  0.4892420000000  0.4991790000000 1.0
C      1  0.4214690000000  0.5106330000000  0.5018360000000 1.0
C      1  0.4214180000000  0.4983420000000  0.4895190000000 1.0
C      1  0.4994620000000  0.4899780000000  0.4216350000000 1.0
C      1  0.4887820000000  0.4177510000000  0.5018150000000 1.0
C      1  0.5817650000000  0.4991070000000  0.4893170000000 1.0
C      1  0.4177460000000  0.4982270000000  0.5117400000000 1.0
C      1  0.5774900000000  0.4990120000000  0.5109970000000 1.0
C      1  0.4986230000000  0.5120360000000  0.4176950000000 1.0
C      1  0.4990960000000  0.5108010000000  0.5784300000000 1.0
C      1  0.4986820000000  0.4888220000000  0.5822830000000 1.0
C      1  0.5111340000000  0.5782310000000  0.4987700000000 1.0
C      1  0.4892180000000  0.5819310000000  0.4985170000000 1.0
C      1  0.5112050000000  0.4213440000000  0.5014730000000 1.0
C      1  0.5787120000000  0.4754290000000  0.4954810000000 1.0
C      1  0.4953110000000  0.5794960000000  0.4746300000000 1.0
C      1  0.4748740000000  0.4950200000000  0.5795470000000 1.0
C      1  0.4200310000000  0.5255760000000  0.4955530000000 1.0
C      1  0.4203530000000  0.4743750000000  0.5057630000000 1.0
C      1  0.5809140000000  0.5257070000000  0.5055280000000 1.0
C      1  0.5063540000000  0.4194230000000  0.4746720000000 1.0
C      1  0.5060400000000  0.5807780000000  0.5255680000000 1.0
C      1  0.4945120000000  0.4203590000000  0.5256790000000 1.0
C      1  0.5260180000000  0.5058090000000  0.5810270000000 1.0
C      1  0.5265440000000  0.4957130000000  0.4196730000000 1.0
C      1  0.4751150000000  0.5055960000000  0.4209980000000 1.0
C      1  0.4753510000000  0.5789430000000  0.4948620000000 1.0
C      1  0.5788140000000  0.4954220000000  0.4754880000000 1.0
C      1  0.4950370000000  0.4748490000000  0.5795280000000 1.0
C      1  0.5263350000000  0.4196410000000  0.4955530000000 1.0
C      1  0.4746700000000  0.4204530000000  0.5053760000000 1.0
C      1  0.5262330000000  0.5810600000000  0.5055670000000 1.0
C      1  0.4200360000000  0.5047100000000  0.4745680000000 1.0
C      1  0.5808190000000  0.5054760000000  0.5257720000000 1.0
C      1  0.4204070000000  0.4944370000000  0.5257470000000 1.0
C      1  0.5059850000000  0.5259490000000  0.5809560000000 1.0
C      1  0.4947580000000  0.5259760000000  0.4202750000000 1.0
C      1  0.5064520000000  0.4749870000000  0.4195230000000 1.0
C      1  0.4252770000000  0.5361740000000  0.4542010000000 1.0
C      1  0.4530770000000  0.4248610000000  0.5371710000000 1.0
C      1  0.5369390000000  0.4543700000000  0.4262700000000 1.0
C      1  0.5747530000000  0.4639930000000  0.4539210000000 1.0
C      1  0.5744720000000  0.5361640000000  0.5463020000000 1.0
C      1  0.4249190000000  0.4630460000000  0.5473400000000 1.0
C      1  0.5467920000000  0.5743070000000  0.5361490000000 1.0
C      1  0.5473040000000  0.4254250000000  0.4640910000000 1.0
C      1  0.4532780000000  0.5743660000000  0.4639410000000 1.0
C      1  0.4627040000000  0.5469270000000  0.4252530000000 1.0
C      1  0.4633800000000  0.4532390000000  0.5751900000000 1.0
C      1  0.5365740000000  0.5464860000000  0.5742100000000 1.0
C      1  0.5368870000000  0.4263150000000  0.4542040000000 1.0
C      1  0.4248700000000  0.4529880000000  0.5373370000000 1.0
C      1  0.4530040000000  0.5365420000000  0.4258790000000 1.0
C      1  0.4629800000000  0.5749760000000  0.4535510000000 1.0
C      1  0.5365990000000  0.5742560000000  0.5462550000000 1.0
C      1  0.4631480000000  0.4249740000000  0.5471640000000 1.0
C      1  0.5745180000000  0.5463170000000  0.5361480000000 1.0
C      1  0.4252730000000  0.5463250000000  0.4643700000000 1.0
C      1  0.5747110000000  0.4539000000000  0.4640130000000 1.0
C      1  0.5474080000000  0.4642030000000  0.4253850000000 1.0
C      1  0.4533260000000  0.4632530000000  0.5752610000000 1.0
C      1  0.5466930000000  0.5363050000000  0.5742230000000 1.0
C      1  0.4582050000000  0.5203840000000  0.4500650000000 1.0
C      1  0.4484890000000  0.4581710000000  0.5206570000000 1.0
C      1  0.5178560000000  0.4494320000000  0.4590370000000 1.0
C      1  0.5397830000000  0.4801380000000  0.4482280000000 1.0
C      1  0.5403150000000  0.5184630000000  0.5500030000000 1.0
C      1  0.4582720000000  0.4794250000000  0.5514540000000 1.0
C      1  0.5499890000000  0.5402160000000  0.5184090000000 1.0
C      1  0.5490930000000  0.4582520000000  0.4793120000000 1.0
C      1  0.4484340000000  0.5405080000000  0.4810960000000 1.0
C      1  0.4793830000000  0.5513890000000  0.4582540000000 1.0
C      1  0.4796540000000  0.4486520000000  0.5417140000000 1.0
C      1  0.5187870000000  0.5499110000000  0.5402310000000 1.0
C      1  0.5178980000000  0.4591110000000  0.4494610000000 1.0
C      1  0.4581670000000  0.4485190000000  0.5208150000000 1.0
C      1  0.4484000000000  0.5189440000000  0.4594670000000 1.0
C      1  0.4796030000000  0.5417530000000  0.4485550000000 1.0
C      1  0.5187810000000  0.5402810000000  0.5499970000000 1.0
C      1  0.4793880000000  0.4583120000000  0.5513460000000 1.0
C      1  0.5403840000000  0.5500170000000  0.5184170000000 1.0
C      1  0.4583080000000  0.5498420000000  0.4798080000000 1.0
C      1  0.5397350000000  0.4482360000000  0.4800820000000 1.0
C      1  0.5491480000000  0.4793020000000  0.4582470000000 1.0
C      1  0.4485540000000  0.4794670000000  0.5418600000000 1.0
C      1  0.5499230000000  0.5184370000000  0.5402150000000 1.0
C      1  0.5442570000000  0.4953410000000  0.4760480000000 1.0
C      1  0.4763500000000  0.5445040000000  0.4953350000000 1.0
C      1  0.4954950000000  0.4759190000000  0.5455830000000 1.0
C      1  0.4530540000000  0.5031410000000  0.4781030000000 1.0
C      1  0.4541360000000  0.4956110000000  0.5241060000000 1.0
C      1  0.5454190000000  0.5027630000000  0.5218840000000 1.0
C      1  0.5214600000000  0.4529700000000  0.4961990000000 1.0
C      1  0.5220590000000  0.5463220000000  0.5026190000000 1.0
C      1  0.4754500000000  0.4540950000000  0.5043910000000 1.0
C      1  0.5027660000000  0.5220560000000  0.5464660000000 1.0
C      1  0.5020600000000  0.4774710000000  0.4534860000000 1.0
C      1  0.4957950000000  0.5238610000000  0.4541030000000 1.0
C      1  0.4957030000000  0.5456220000000  0.4756450000000 1.0
C      1  0.5441270000000  0.4760770000000  0.4953180000000 1.0
C      1  0.4759000000000  0.4955760000000  0.5457090000000 1.0
C      1  0.5019320000000  0.4531550000000  0.4773680000000 1.0
C      1  0.4955920000000  0.4542090000000  0.5236100000000 1.0
C      1  0.5028860000000  0.5459590000000  0.5219280000000 1.0
C      1  0.4531420000000  0.5218940000000  0.4968490000000 1.0
C      1  0.5455180000000  0.5218770000000  0.5027410000000 1.0
C      1  0.4540550000000  0.4758960000000  0.5044370000000 1.0
C      1  0.5219150000000  0.5026870000000  0.5464370000000 1.0
C      1  0.4758850000000  0.5045640000000  0.4552550000000 1.0
C      1  0.5216270000000  0.4963310000000  0.4530020000000 1.0
C      1  0.5036410000000  0.4268640000000  0.5345070000000 1.0
C      1  0.5366190000000  0.5039110000000  0.4261310000000 1.0
C      1  0.4266430000000  0.5360750000000  0.5033160000000 1.0
C      1  0.4979820000000  0.5761250000000  0.5365580000000 1.0
C      1  0.4982080000000  0.4240280000000  0.4635060000000 1.0
C      1  0.5047340000000  0.5729530000000  0.4661180000000 1.0
C      1  0.4663530000000  0.4963230000000  0.4274660000000 1.0
C      1  0.4662990000000  0.5043880000000  0.5729300000000 1.0
C      1  0.5369870000000  0.4976470000000  0.5763960000000 1.0
C      1  0.5721030000000  0.4667110000000  0.5045280000000 1.0
C      1  0.5762840000000  0.5367950000000  0.4975980000000 1.0
C      1  0.4266810000000  0.4654800000000  0.4965310000000 1.0
C      1  0.4268150000000  0.5036300000000  0.5346170000000 1.0
C      1  0.5040690000000  0.5346980000000  0.4266220000000 1.0
C      1  0.5363720000000  0.4261420000000  0.5037610000000 1.0
C      1  0.5761160000000  0.4975680000000  0.5368430000000 1.0
C      1  0.4266000000000  0.4969210000000  0.4640680000000 1.0
C      1  0.5722710000000  0.5044900000000  0.4667470000000 1.0
C      1  0.4983380000000  0.4638310000000  0.4241040000000 1.0
C      1  0.5043490000000  0.4662480000000  0.5728860000000 1.0
C      1  0.4978540000000  0.5369270000000  0.5762870000000 1.0
C      1  0.4666510000000  0.5722670000000  0.5039770000000 1.0
C      1  0.5372450000000  0.5763870000000  0.4974980000000 1.0
C      1  0.4660200000000  0.4268710000000  0.4958770000000 1.0
C      1  0.5172400000000  0.5646390000000  0.4457400000000 1.0
C      1  0.4459100000000  0.5169830000000  0.5645650000000 1.0
C      1  0.5651240000000  0.4460280000000  0.5165820000000 1.0
C      1  0.4844640000000  0.4339900000000  0.4438220000000 1.0
C      1  0.4844680000000  0.5670240000000  0.5566300000000 1.0
C      1  0.5167730000000  0.4355290000000  0.5546650000000 1.0
C      1  0.5571510000000  0.4841190000000  0.5672280000000 1.0
C      1  0.5563360000000  0.5165730000000  0.4351330000000 1.0
C      1  0.4458810000000  0.4836650000000  0.4348170000000 1.0
C      1  0.4352740000000  0.5559090000000  0.5164440000000 1.0
C      1  0.4353770000000  0.4452830000000  0.4832730000000 1.0
C      1  0.5675970000000  0.5570930000000  0.4841770000000 1.0
C      1  0.5653940000000  0.5165670000000  0.4460390000000 1.0
C      1  0.5168870000000  0.4458670000000  0.5645340000000 1.0
C      1  0.4461170000000  0.5650730000000  0.5164430000000 1.0
C      1  0.4351830000000  0.4836730000000  0.4441840000000 1.0
C      1  0.5672970000000  0.4841810000000  0.5570950000000 1.0
C      1  0.4354840000000  0.5168500000000  0.5547570000000 1.0
C      1  0.4843910000000  0.5569250000000  0.5667720000000 1.0
C      1  0.5171320000000  0.5548080000000  0.4353650000000 1.0
C      1  0.4845390000000  0.4441160000000  0.4337860000000 1.0
C      1  0.5560380000000  0.4351440000000  0.5165470000000 1.0
C      1  0.4456760000000  0.4353140000000  0.4831360000000 1.0
C      1  0.5574850000000  0.5672660000000  0.4840760000000 1.0
C      1  0.4715460000000  0.5800520000000  0.4809980000000 1.0
C      1  0.4810680000000  0.4711060000000  0.5807540000000 1.0
C      1  0.5796050000000  0.4815620000000  0.4717580000000 1.0
C      1  0.5299280000000  0.4178570000000  0.4816690000000 1.0
C      1  0.5295370000000  0.5813580000000  0.5192290000000 1.0
C      1  0.4707280000000  0.4192210000000  0.5193360000000 1.0
C      1  0.5196350000000  0.5292800000000  0.5812890000000 1.0
C      1  0.5202180000000  0.4719120000000  0.4188440000000 1.0
C      1  0.4807550000000  0.5296140000000  0.4193750000000 1.0
C      1  0.4183860000000  0.5186520000000  0.4716020000000 1.0
C      1  0.4191940000000  0.4805360000000  0.5295790000000 1.0
C      1  0.5812710000000  0.5191670000000  0.5290060000000 1.0
C      1  0.5795600000000  0.4716960000000  0.4816250000000 1.0
C      1  0.4711200000000  0.4810400000000  0.5807690000000 1.0
C      1  0.4812740000000  0.5805380000000  0.4709150000000 1.0
C      1  0.4183260000000  0.5286030000000  0.4816280000000 1.0
C      1  0.5813200000000  0.5289520000000  0.5192170000000 1.0
C      1  0.4191850000000  0.4705850000000  0.5196830000000 1.0
C      1  0.5293960000000  0.5194580000000  0.5813090000000 1.0
C      1  0.4711330000000  0.5194520000000  0.4198950000000 1.0
C      1  0.5300840000000  0.4818300000000  0.4178450000000 1.0
C      1  0.5201260000000  0.4188010000000  0.4716710000000 1.0
C      1  0.4805790000000  0.4192280000000  0.5293380000000 1.0
C      1  0.5196890000000  0.5811990000000  0.5289530000000 1.0
C      1  0.5161140000000  0.5672670000000  0.4892520000000 1.0
C      1  0.4894470000000  0.5158220000000  0.5675120000000 1.0
C      1  0.5661560000000  0.4897460000000  0.5157670000000 1.0
C      1  0.4890410000000  0.4319420000000  0.4843850000000 1.0
C      1  0.4897850000000  0.5668580000000  0.5154330000000 1.0
C      1  0.5147310000000  0.4324860000000  0.5109340000000 1.0
C      1  0.5158320000000  0.4893700000000  0.5674250000000 1.0
C      1  0.5149900000000  0.5111090000000  0.4325080000000 1.0
C      1  0.4893420000000  0.4847650000000  0.4324670000000 1.0
C      1  0.4325920000000  0.5146910000000  0.5112230000000 1.0
C      1  0.4324500000000  0.4888790000000  0.4854390000000 1.0
C      1  0.5662650000000  0.5157480000000  0.4897650000000 1.0
C      1  0.5381580000000  0.5381600000000  0.4712930000000 1.0
C      1  0.4715610000000  0.5381470000000  0.5381660000000 1.0
C      1  0.5378960000000  0.4713150000000  0.5381190000000 1.0
C      1  0.4705740000000  0.4619050000000  0.4618990000000 1.0
END
