TITL C-1379267-1329-323 1.14069043820512e-07 1000000 -1471.95339325792 0 0 220 (C1) n - 1
REM
REM in /nfs/bkarasulu/CARBON/AIRSS/Generating-Clusters/GAP-ML-2020/Higher-Symm/Selected-Sizes/TryA-Only_Ih-Symm/Larger-Clusters/Try2-MINAMP_6A
REM
REM
REM
REM
REM
REM ./C.cell (31579ac4e95a012ec27f3239692ae8a5)
REM
REM compiler GCC version 9.2.1 20190827 (Red Hat 9.2.1-1)
REM options -cpp -mtune=generic -march=x86-64 -g -O0 -fpre-include=/usr/include/finclude/math-vector-fortran.h
REM seed -692813357 2061321210 576701071 1508108821 -1478143080 1368572499 -683238607 -407617205 -897098596 -1974793114 2100298208 -1922549091 980514335 -1437229266 -1393487107 -1403446585 357504598 1024238530 -2073477109 -1118913242 -1411774119 1097512496 -163481753 -415936407 -1610754969 -1104800120 872390184 1970356718 739098971 103841248 948735820 1120193933 911232065
REM
CELL 1.54180  100.00000  100.00000  100.00000   90.00000   90.00000   90.00000
LATT -1
SFAC C  
C      1  0.5512880000000  0.5058980000000  0.4739300000000 1.0
C      1  0.4543620000000  0.5626590000000  0.5266260000000 1.0
C      1  0.5255780000000  0.4649010000000  0.5569670000000 1.0
C      1  0.4418790000000  0.5120620000000  0.5419470000000 1.0
C      1  0.5692140000000  0.4900240000000  0.5371910000000 1.0
C      1  0.4332270000000  0.4755100000000  0.4528150000000 1.0
C      1  0.5492330000000  0.5469110000000  0.4715090000000 1.0
C      1  0.4508730000000  0.4337250000000  0.4743370000000 1.0
C      1  0.5465410000000  0.4423960000000  0.5211390000000 1.0
C      1  0.4714560000000  0.4498340000000  0.4322630000000 1.0
C      1  0.5229760000000  0.5338440000000  0.4330970000000 1.0
C      1  0.4700140000000  0.5429660000000  0.5694480000000 1.0
C      1  0.4604660000000  0.5132970000000  0.5621070000000 1.0
C      1  0.5241800000000  0.5537830000000  0.4494010000000 1.0
C      1  0.5632550000000  0.4640990000000  0.5198000000000 1.0
C      1  0.5406970000000  0.5061040000000  0.4484660000000 1.0
C      1  0.5513730000000  0.4842580000000  0.5565590000000 1.0
C      1  0.4512100000000  0.4725460000000  0.4305900000000 1.0
C      1  0.4663810000000  0.5665500000000  0.5553660000000 1.0
C      1  0.4723060000000  0.4297590000000  0.4511250000000 1.0
C      1  0.5235730000000  0.4449190000000  0.5421240000000 1.0
C      1  0.4336170000000  0.4573080000000  0.4798590000000 1.0
C      1  0.4396000000000  0.5402780000000  0.5253470000000 1.0
C      1  0.5624740000000  0.5294950000000  0.4925850000000 1.0
C      1  0.5268700000000  0.5669190000000  0.5222940000000 1.0
C      1  0.5182790000000  0.5323130000000  0.5726470000000 1.0
C      1  0.5657160000000  0.5269490000000  0.5322490000000 1.0
C      1  0.4824800000000  0.5626080000000  0.4850960000000 1.0
C      1  0.5254590000000  0.4319780000000  0.4805540000000 1.0
C      1  0.4744790000000  0.4350000000000  0.5120250000000 1.0
C      1  0.4846080000000  0.5403750000000  0.4254760000000 1.0
C      1  0.5141980000000  0.4722610000000  0.4373110000000 1.0
C      1  0.4873690000000  0.4719480000000  0.5566460000000 1.0
C      1  0.4437880000000  0.5171700000000  0.4709130000000 1.0
C      1  0.5514630000000  0.4754920000000  0.4715540000000 1.0
C      1  0.4381500000000  0.4830410000000  0.5215300000000 1.0
C      1  0.5156940000000  0.5640010000000  0.5303600000000 1.0
C      1  0.5605160000000  0.5396680000000  0.5253810000000 1.0
C      1  0.5296370000000  0.5221540000000  0.5721390000000 1.0
C      1  0.4906810000000  0.5592760000000  0.4631710000000 1.0
C      1  0.4856230000000  0.4346800000000  0.5224470000000 1.0
C      1  0.5143310000000  0.4328180000000  0.4699790000000 1.0
C      1  0.4433600000000  0.5266620000000  0.4827500000000 1.0
C      1  0.4386350000000  0.4735760000000  0.5111630000000 1.0
C      1  0.5599830000000  0.4675710000000  0.4799220000000 1.0
C      1  0.4793440000000  0.5276140000000  0.4281060000000 1.0
C      1  0.4771700000000  0.4799080000000  0.5504600000000 1.0
C      1  0.5237170000000  0.4817770000000  0.4326660000000 1.0
C      1  0.4452520000000  0.4830830000000  0.4522660000000 1.0
C      1  0.4555990000000  0.4449090000000  0.4816860000000 1.0
C      1  0.4806370000000  0.4513480000000  0.4428770000000 1.0
C      1  0.5579880000000  0.4976820000000  0.5364050000000 1.0
C      1  0.4556200000000  0.5078860000000  0.5390700000000 1.0
C      1  0.5373890000000  0.5041240000000  0.4727460000000 1.0
C      1  0.5437340000000  0.4515070000000  0.5109120000000 1.0
C      1  0.4576970000000  0.5544840000000  0.5158630000000 1.0
C      1  0.5435580000000  0.5433020000000  0.4840390000000 1.0
C      1  0.5161190000000  0.4671930000000  0.5468520000000 1.0
C      1  0.4802090000000  0.5467470000000  0.5605930000000 1.0
C      1  0.5107290000000  0.5370080000000  0.4394230000000 1.0
C      1  0.4542900000000  0.4818370000000  0.4402790000000 1.0
C      1  0.4813660000000  0.4408680000000  0.4531100000000 1.0
C      1  0.4475100000000  0.4571140000000  0.4834300000000 1.0
C      1  0.5485350000000  0.4951060000000  0.5478350000000 1.0
C      1  0.5320050000000  0.5021040000000  0.4593860000000 1.0
C      1  0.4651930000000  0.5088690000000  0.5496420000000 1.0
C      1  0.5152700000000  0.4559940000000  0.5372650000000 1.0
C      1  0.5112910000000  0.5487770000000  0.4485510000000 1.0
C      1  0.4778060000000  0.5589560000000  0.5522070000000 1.0
C      1  0.5528320000000  0.4632710000000  0.5104020000000 1.0
C      1  0.5506370000000  0.5365320000000  0.4942460000000 1.0
C      1  0.4497670000000  0.5418330000000  0.5155870000000 1.0
C      1  0.4486660000000  0.4742610000000  0.5379680000000 1.0
C      1  0.5453640000000  0.4420710000000  0.4656000000000 1.0
C      1  0.4744150000000  0.5533090000000  0.4396080000000 1.0
C      1  0.5461210000000  0.4626740000000  0.4508120000000 1.0
C      1  0.4556750000000  0.5344350000000  0.4530900000000 1.0
C      1  0.5607550000000  0.5308720000000  0.5571200000000 1.0
C      1  0.4559140000000  0.4480410000000  0.5262980000000 1.0
C      1  0.5439760000000  0.5607340000000  0.5330820000000 1.0
C      1  0.4623330000000  0.5573960000000  0.4809190000000 1.0
C      1  0.5310800000000  0.5509360000000  0.5582860000000 1.0
C      1  0.4812180000000  0.4530160000000  0.5508850000000 1.0
C      1  0.5196530000000  0.4529790000000  0.4434680000000 1.0
C      1  0.5379140000000  0.4700900000000  0.4428780000000 1.0
C      1  0.4723900000000  0.4460070000000  0.5426750000000 1.0
C      1  0.4549170000000  0.5490350000000  0.4721000000000 1.0
C      1  0.4571230000000  0.4659850000000  0.5453980000000 1.0
C      1  0.4640090000000  0.5292650000000  0.4432670000000 1.0
C      1  0.5498050000000  0.5375330000000  0.5620120000000 1.0
C      1  0.5278910000000  0.4441020000000  0.4501030000000 1.0
C      1  0.5229660000000  0.5564360000000  0.5485410000000 1.0
C      1  0.4686320000000  0.5560580000000  0.4517980000000 1.0
C      1  0.5507670000000  0.5535700000000  0.5428640000000 1.0
C      1  0.5548230000000  0.4487080000000  0.4733980000000 1.0
C      1  0.4481940000000  0.4560300000000  0.5183480000000 1.0
C      1  0.4530950000000  0.5688400000000  0.5374210000000 1.0
C      1  0.5365530000000  0.4678240000000  0.5619450000000 1.0
C      1  0.5618470000000  0.5106420000000  0.4785720000000 1.0
C      1  0.5465270000000  0.5524440000000  0.4606270000000 1.0
C      1  0.4525720000000  0.4245230000000  0.4659780000000 1.0
C      1  0.5444730000000  0.4348290000000  0.5310120000000 1.0
C      1  0.4615940000000  0.4534510000000  0.4257260000000 1.0
C      1  0.5322860000000  0.5256800000000  0.4349030000000 1.0
C      1  0.4619910000000  0.5351860000000  0.5752240000000 1.0
C      1  0.4364900000000  0.5230290000000  0.5394500000000 1.0
C      1  0.5757380000000  0.4791470000000  0.5367360000000 1.0
C      1  0.4245710000000  0.4683950000000  0.4585060000000 1.0
C      1  0.5360680000000  0.5547690000000  0.4527720000000 1.0
C      1  0.5703270000000  0.4697970000000  0.5282020000000 1.0
C      1  0.4598680000000  0.5231150000000  0.5696190000000 1.0
C      1  0.4564730000000  0.5724230000000  0.5500530000000 1.0
C      1  0.4625310000000  0.4248230000000  0.4569040000000 1.0
C      1  0.5337130000000  0.4388240000000  0.5382740000000 1.0
C      1  0.4277340000000  0.4618860000000  0.4698230000000 1.0
C      1  0.4326410000000  0.5347940000000  0.5342040000000 1.0
C      1  0.5677810000000  0.5196840000000  0.4866570000000 1.0
C      1  0.5388870000000  0.5156910000000  0.4404920000000 1.0
C      1  0.5479370000000  0.4746180000000  0.5638060000000 1.0
C      1  0.4514730000000  0.4621900000000  0.4233010000000 1.0
C      1  0.5191790000000  0.5003530000000  0.4548250000000 1.0
C      1  0.4511680000000  0.5299600000000  0.5093260000000 1.0
C      1  0.5100470000000  0.4521360000000  0.5253000000000 1.0
C      1  0.4793060000000  0.5092760000000  0.5488090000000 1.0
C      1  0.5366170000000  0.5004460000000  0.5518720000000 1.0
C      1  0.4674730000000  0.4860330000000  0.4404380000000 1.0
C      1  0.5433030000000  0.5323280000000  0.5064740000000 1.0
C      1  0.4515040000000  0.4700050000000  0.4859980000000 1.0
C      1  0.5526670000000  0.4752860000000  0.5033400000000 1.0
C      1  0.4878140000000  0.4416800000000  0.4647970000000 1.0
C      1  0.5031740000000  0.5531830000000  0.4599630000000 1.0
C      1  0.4831670000000  0.5624550000000  0.5400260000000 1.0
C      1  0.4572900000000  0.5060540000000  0.5256460000000 1.0
C      1  0.5036530000000  0.5252220000000  0.4403560000000 1.0
C      1  0.5316670000000  0.4478310000000  0.5054430000000 1.0
C      1  0.5301540000000  0.5066140000000  0.4843230000000 1.0
C      1  0.5563040000000  0.5054190000000  0.5233370000000 1.0
C      1  0.4473000000000  0.4891060000000  0.4642330000000 1.0
C      1  0.4897160000000  0.5369980000000  0.5607250000000 1.0
C      1  0.4872420000000  0.4632840000000  0.4443130000000 1.0
C      1  0.5114910000000  0.4806740000000  0.5481070000000 1.0
C      1  0.4684470000000  0.4438430000000  0.4855210000000 1.0
C      1  0.4699190000000  0.5580180000000  0.5074350000000 1.0
C      1  0.5297120000000  0.5461930000000  0.4843760000000 1.0
C      1  0.4885810000000  0.4761550000000  0.4442150000000 1.0
C      1  0.4472060000000  0.4927300000000  0.4775900000000 1.0
C      1  0.4813720000000  0.4408550000000  0.4884820000000 1.0
C      1  0.5143970000000  0.4918940000000  0.5526460000000 1.0
C      1  0.4964570000000  0.5249300000000  0.5605720000000 1.0
C      1  0.5022540000000  0.5127960000000  0.4424630000000 1.0
C      1  0.5574510000000  0.4986510000000  0.5113480000000 1.0
C      1  0.4531620000000  0.5058750000000  0.5137080000000 1.0
C      1  0.5305750000000  0.5135040000000  0.4952210000000 1.0
C      1  0.5189770000000  0.4432660000000  0.5032590000000 1.0
C      1  0.4804840000000  0.5628660000000  0.5151660000000 1.0
C      1  0.5184500000000  0.5502220000000  0.4811500000000 1.0
C      1  0.4494080000000  0.4824710000000  0.4874380000000 1.0
C      1  0.4798710000000  0.4863120000000  0.4424150000000 1.0
C      1  0.4917120000000  0.4401040000000  0.4777750000000 1.0
C      1  0.5559030000000  0.4874450000000  0.5054990000000 1.0
C      1  0.5342050000000  0.5225030000000  0.5034370000000 1.0
C      1  0.4500310000000  0.5168630000000  0.5049380000000 1.0
C      1  0.5238130000000  0.5019280000000  0.5567760000000 1.0
C      1  0.5088520000000  0.5021730000000  0.4475540000000 1.0
C      1  0.4892730000000  0.5147790000000  0.5535140000000 1.0
C      1  0.5080900000000  0.4448830000000  0.5138690000000 1.0
C      1  0.5069500000000  0.5539330000000  0.4748070000000 1.0
C      1  0.4835500000000  0.5644680000000  0.5274330000000 1.0
C      1  0.4856110000000  0.5433620000000  0.4401160000000 1.0
C      1  0.4520470000000  0.4798020000000  0.5240670000000 1.0
C      1  0.5163260000000  0.4374460000000  0.4900880000000 1.0
C      1  0.5096960000000  0.5229470000000  0.5662420000000 1.0
C      1  0.4893130000000  0.4642430000000  0.5445840000000 1.0
C      1  0.5144930000000  0.4654340000000  0.4503570000000 1.0
C      1  0.5406430000000  0.4702000000000  0.4798430000000 1.0
C      1  0.4455840000000  0.5066840000000  0.4801670000000 1.0
C      1  0.5561920000000  0.5195520000000  0.5248470000000 1.0
C      1  0.4841440000000  0.4384550000000  0.5023700000000 1.0
C      1  0.5332010000000  0.5536560000000  0.5246760000000 1.0
C      1  0.4714390000000  0.5576750000000  0.4933790000000 1.0
C      1  0.4460570000000  0.5157860000000  0.4912470000000 1.0
C      1  0.5246250000000  0.4764030000000  0.4473760000000 1.0
C      1  0.4947440000000  0.4391080000000  0.5124020000000 1.0
C      1  0.5507290000000  0.5315930000000  0.5185920000000 1.0
C      1  0.5492560000000  0.4586240000000  0.4834380000000 1.0
C      1  0.4525890000000  0.4696730000000  0.5132170000000 1.0
C      1  0.4853250000000  0.4771410000000  0.5384850000000 1.0
C      1  0.4793110000000  0.5294550000000  0.4429120000000 1.0
C      1  0.5206390000000  0.5135620000000  0.5648730000000 1.0
C      1  0.5055650000000  0.4371810000000  0.4800860000000 1.0
C      1  0.5209270000000  0.5509200000000  0.5343530000000 1.0
C      1  0.4939710000000  0.5595320000000  0.4777660000000 1.0
C      1  0.5227080000000  0.5696230000000  0.5425730000000 1.0
C      1  0.5389120000000  0.5325870000000  0.5700310000000 1.0
C      1  0.5614300000000  0.5459670000000  0.5380630000000 1.0
C      1  0.4771010000000  0.5625510000000  0.4611840000000 1.0
C      1  0.5240110000000  0.4346010000000  0.4600680000000 1.0
C      1  0.4756550000000  0.4368140000000  0.5321620000000 1.0
C      1  0.4656400000000  0.5333840000000  0.4298280000000 1.0
C      1  0.5326050000000  0.4698360000000  0.4296160000000 1.0
C      1  0.4664740000000  0.4708490000000  0.5551100000000 1.0
C      1  0.4474510000000  0.5372330000000  0.4746230000000 1.0
C      1  0.5634310000000  0.4591300000000  0.4683960000000 1.0
C      1  0.4359150000000  0.4627240000000  0.5213290000000 1.0
C      1  0.5350950000000  0.5719780000000  0.5335340000000 1.0
C      1  0.5655520000000  0.5337730000000  0.5447850000000 1.0
C      1  0.5279530000000  0.5419480000000  0.5690920000000 1.0
C      1  0.4726240000000  0.5647120000000  0.4741570000000 1.0
C      1  0.4652720000000  0.4380360000000  0.5220990000000 1.0
C      1  0.5347260000000  0.4332290000000  0.4699120000000 1.0
C      1  0.4479170000000  0.5281010000000  0.4632880000000 1.0
C      1  0.4356840000000  0.4725370000000  0.5321540000000 1.0
C      1  0.5561350000000  0.4681340000000  0.4596720000000 1.0
C      1  0.4710760000000  0.5470460000000  0.4276310000000 1.0
C      1  0.4768690000000  0.4625130000000  0.5607910000000 1.0
C      1  0.5213330000000  0.4606560000000  0.4318010000000 1.0
C      1  0.5407620000000  0.4496200000000  0.4540300000000 1.0
C      1  0.4585420000000  0.5479670000000  0.4576460000000 1.0
C      1  0.4602270000000  0.4531910000000  0.5391970000000 1.0
C      1  0.5447550000000  0.5492820000000  0.5549250000000 1.0
END
