TITL C-1379267-1329-351 -8.43132251744793e-07 1000000 -2721.2607143576 0 0 380 (Th) n - 1
REM
REM in /nfs/bkarasulu/CARBON/AIRSS/Generating-Clusters/GAP-ML-2020/Higher-Symm/Selected-Sizes/TryA-Only_Ih-Symm/Larger-Clusters/Try2-MINAMP_6A
REM
REM
REM
REM
REM
REM ./C.cell (31579ac4e95a012ec27f3239692ae8a5)
REM
REM compiler GCC version 9.2.1 20190827 (Red Hat 9.2.1-1)
REM options -cpp -mtune=generic -march=x86-64 -g -O0 -fpre-include=/usr/include/finclude/math-vector-fortran.h
REM seed 1950856840 939785874 -154599272 433115325 2114090702 -1303643212 -187735927 926497473 268097616 935308475 993614824 -673041437 1696059694 250315721 591711328 1806187228 541549734 -924378811 621877821 -1133509416 -1381186509 1080001629 -1982236733 -52566679 1284892308 1832558181 927841530 -1155368894 -368369858 638298307 -1527315328 -1251925122 315557433
REM
CELL 1.54180  100.00000  100.00000  100.00000   90.00000   90.00000   90.00000
LATT -1
SFAC C  
C      1  0.4839260000000  0.5606120000000  0.5456440000000 1.0
C      1  0.5605810000000  0.5456850000000  0.4839160000000 1.0
C      1  0.5456540000000  0.4839570000000  0.5605710000000 1.0
C      1  0.5161560000000  0.5606120000000  0.4544190000000 1.0
C      1  0.5161560000000  0.4395320000000  0.5456440000000 1.0
C      1  0.4839260000000  0.4395320000000  0.4544180000000 1.0
C      1  0.4395010000000  0.5456850000000  0.5161460000000 1.0
C      1  0.4395010000000  0.4544590000000  0.4839160000000 1.0
C      1  0.5605810000000  0.4544590000000  0.5161460000000 1.0
C      1  0.4544280000000  0.4839570000000  0.4394910000000 1.0
C      1  0.4544280000000  0.5161870000000  0.5605710000000 1.0
C      1  0.5456540000000  0.5161870000000  0.4394910000000 1.0
C      1  0.4839260000000  0.4395320000000  0.5456440000000 1.0
C      1  0.5605810000000  0.4544590000000  0.4839160000000 1.0
C      1  0.5456530000000  0.5161870000000  0.5605710000000 1.0
C      1  0.5161560000000  0.4395320000000  0.4544180000000 1.0
C      1  0.5161560000000  0.5606120000000  0.5456440000000 1.0
C      1  0.4839260000000  0.5606120000000  0.4544190000000 1.0
C      1  0.4395010000000  0.4544590000000  0.5161460000000 1.0
C      1  0.4395010000000  0.5456850000000  0.4839160000000 1.0
C      1  0.5605810000000  0.5456850000000  0.5161460000000 1.0
C      1  0.4544280000000  0.5161870000000  0.4394910000000 1.0
C      1  0.4544280000000  0.4839570000000  0.5605710000000 1.0
C      1  0.5456540000000  0.4839570000000  0.4394910000000 1.0
C      1  0.4340780000000  0.4903110000000  0.4504820000000 1.0
C      1  0.4902800000000  0.4505230000000  0.4340680000000 1.0
C      1  0.4504920000000  0.4341090000000  0.4902700000000 1.0
C      1  0.5660040000000  0.4903110000000  0.5495800000000 1.0
C      1  0.5660040000000  0.5098330000000  0.4504820000000 1.0
C      1  0.4340780000000  0.5098330000000  0.5495800000000 1.0
C      1  0.5098020000000  0.4505230000000  0.5659940000000 1.0
C      1  0.5098020000000  0.5496210000000  0.4340680000000 1.0
C      1  0.4902800000000  0.5496210000000  0.5659940000000 1.0
C      1  0.5495900000000  0.4341090000000  0.5097920000000 1.0
C      1  0.5495900000000  0.5660350000000  0.4902700000000 1.0
C      1  0.4504920000000  0.5660350000000  0.5097920000000 1.0
C      1  0.4340780000000  0.5098330000000  0.4504820000000 1.0
C      1  0.4902800000000  0.5496210000000  0.4340680000000 1.0
C      1  0.4504920000000  0.5660350000000  0.4902700000000 1.0
C      1  0.5660040000000  0.5098330000000  0.5495800000000 1.0
C      1  0.5660040000000  0.4903110000000  0.4504820000000 1.0
C      1  0.4340780000000  0.4903110000000  0.5495800000000 1.0
C      1  0.5098020000000  0.5496210000000  0.5659940000000 1.0
C      1  0.5098020000000  0.4505230000000  0.4340680000000 1.0
C      1  0.4902800000000  0.4505230000000  0.5659940000000 1.0
C      1  0.5495900000000  0.5660350000000  0.5097920000000 1.0
C      1  0.5495900000000  0.4341090000000  0.4902700000000 1.0
C      1  0.4504920000000  0.4341090000000  0.5097920000000 1.0
C      1  0.5331940000000  0.5156670000000  0.5682610000000 1.0
C      1  0.5156360000000  0.5683020000000  0.5331840000000 1.0
C      1  0.5682710000000  0.5332250000000  0.5156260000000 1.0
C      1  0.4668880000000  0.5156670000000  0.4318010000000 1.0
C      1  0.4668880000000  0.4844770000000  0.5682610000000 1.0
C      1  0.5331940000000  0.4844770000000  0.4318010000000 1.0
C      1  0.4844460000000  0.5683020000000  0.4668780000000 1.0
C      1  0.4844460000000  0.4318420000000  0.5331840000000 1.0
C      1  0.5156360000000  0.4318420000000  0.4668780000000 1.0
C      1  0.4318110000000  0.5332250000000  0.4844360000000 1.0
C      1  0.4318110000000  0.4669190000000  0.5156260000000 1.0
C      1  0.5682710000000  0.4669190000000  0.4844360000000 1.0
C      1  0.5331940000000  0.4844770000000  0.5682610000000 1.0
C      1  0.5156360000000  0.4318420000000  0.5331840000000 1.0
C      1  0.5682710000000  0.4669190000000  0.5156260000000 1.0
C      1  0.4668880000000  0.4844770000000  0.4318010000000 1.0
C      1  0.4668880000000  0.5156670000000  0.5682610000000 1.0
C      1  0.5331940000000  0.5156670000000  0.4318010000000 1.0
C      1  0.4844460000000  0.4318420000000  0.4668780000000 1.0
C      1  0.4844460000000  0.5683020000000  0.5331840000000 1.0
C      1  0.5156360000000  0.5683020000000  0.4668780000000 1.0
C      1  0.4318110000000  0.4669190000000  0.4844360000000 1.0
C      1  0.4318110000000  0.5332250000000  0.5156260000000 1.0
C      1  0.5682710000000  0.5332250000000  0.4844360000000 1.0
C      1  0.5290710000000  0.5724720000000  0.5332470000000 1.0
C      1  0.5724410000000  0.5332880000000  0.5290610000000 1.0
C      1  0.5332570000000  0.5291020000000  0.5724310000000 1.0
C      1  0.4710110000000  0.5724720000000  0.4668150000000 1.0
C      1  0.4710110000000  0.4276720000000  0.5332470000000 1.0
C      1  0.5290710000000  0.4276720000000  0.4668150000000 1.0
C      1  0.4276410000000  0.5332880000000  0.4710010000000 1.0
C      1  0.4276410000000  0.4668560000000  0.5290610000000 1.0
C      1  0.5724410000000  0.4668560000000  0.4710010000000 1.0
C      1  0.4668250000000  0.5291020000000  0.4276310000000 1.0
C      1  0.4668250000000  0.4710420000000  0.5724310000000 1.0
C      1  0.5332570000000  0.4710420000000  0.4276310000000 1.0
C      1  0.5290710000000  0.4276720000000  0.5332470000000 1.0
C      1  0.5724410000000  0.4668560000000  0.5290610000000 1.0
C      1  0.5332570000000  0.4710420000000  0.5724310000000 1.0
C      1  0.4710110000000  0.4276720000000  0.4668150000000 1.0
C      1  0.4710110000000  0.5724720000000  0.5332470000000 1.0
C      1  0.5290710000000  0.5724720000000  0.4668150000000 1.0
C      1  0.4276410000000  0.4668560000000  0.4710010000000 1.0
C      1  0.4276410000000  0.5332880000000  0.5290610000000 1.0
C      1  0.5724410000000  0.5332880000000  0.4710010000000 1.0
C      1  0.4668250000000  0.4710420000000  0.4276310000000 1.0
C      1  0.4668250000000  0.5291020000000  0.5724310000000 1.0
C      1  0.5332570000000  0.5291020000000  0.4276310000000 1.0
C      1  0.5105900000000  0.5291260000000  0.5758320000000 1.0
C      1  0.5290950000000  0.5758730000000  0.5105810000000 1.0
C      1  0.5758420000000  0.5106220000000  0.5290850000000 1.0
C      1  0.4894910000000  0.5291260000000  0.4242300000000 1.0
C      1  0.4894910000000  0.4710180000000  0.5758320000000 1.0
C      1  0.5105900000000  0.4710180000000  0.4242300000000 1.0
C      1  0.4709870000000  0.5758730000000  0.4894820000000 1.0
C      1  0.4709870000000  0.4242710000000  0.5105810000000 1.0
C      1  0.5290950000000  0.4242710000000  0.4894820000000 1.0
C      1  0.4242400000000  0.5106220000000  0.4709770000000 1.0
C      1  0.4242400000000  0.4895230000000  0.5290850000000 1.0
C      1  0.5758420000000  0.4895230000000  0.4709770000000 1.0
C      1  0.5105900000000  0.4710180000000  0.5758320000000 1.0
C      1  0.5290950000000  0.4242710000000  0.5105810000000 1.0
C      1  0.5758420000000  0.4895230000000  0.5290850000000 1.0
C      1  0.4894910000000  0.4710180000000  0.4242300000000 1.0
C      1  0.4894910000000  0.5291260000000  0.5758320000000 1.0
C      1  0.5105900000000  0.5291260000000  0.4242300000000 1.0
C      1  0.4709870000000  0.4242710000000  0.4894820000000 1.0
C      1  0.4709870000000  0.5758730000000  0.5105810000000 1.0
C      1  0.5290950000000  0.5758730000000  0.4894820000000 1.0
C      1  0.4242400000000  0.4895230000000  0.4709770000000 1.0
C      1  0.4242400000000  0.5106220000000  0.5290850000000 1.0
C      1  0.5758420000000  0.5106220000000  0.4709770000000 1.0
C      1  0.5074680000000  0.4490950000000  0.5514750000000 1.0
C      1  0.4490640000000  0.5515160000000  0.5074580000000 1.0
C      1  0.5514850000000  0.5074990000000  0.4490540000000 1.0
C      1  0.4926140000000  0.4490950000000  0.4485870000000 1.0
C      1  0.4926140000000  0.5510490000000  0.5514750000000 1.0
C      1  0.5074680000000  0.5510490000000  0.4485870000000 1.0
C      1  0.5510180000000  0.5515160000000  0.4926040000000 1.0
C      1  0.5510180000000  0.4486280000000  0.5074580000000 1.0
C      1  0.4490640000000  0.4486280000000  0.4926040000000 1.0
C      1  0.4485970000000  0.5074990000000  0.5510080000000 1.0
C      1  0.4485970000000  0.4926450000000  0.4490540000000 1.0
C      1  0.5514850000000  0.4926450000000  0.5510080000000 1.0
C      1  0.5074680000000  0.5510490000000  0.5514750000000 1.0
C      1  0.4490640000000  0.4486280000000  0.5074580000000 1.0
C      1  0.5514850000000  0.4926450000000  0.4490540000000 1.0
C      1  0.4926140000000  0.5510490000000  0.4485870000000 1.0
C      1  0.4926140000000  0.4490950000000  0.5514750000000 1.0
C      1  0.5074680000000  0.4490950000000  0.4485870000000 1.0
C      1  0.5510180000000  0.4486280000000  0.4926040000000 1.0
C      1  0.5510180000000  0.5515160000000  0.5074580000000 1.0
C      1  0.4490640000000  0.5515160000000  0.4926040000000 1.0
C      1  0.4485970000000  0.4926450000000  0.5510080000000 1.0
C      1  0.4485970000000  0.5074990000000  0.4490540000000 1.0
C      1  0.5514850000000  0.5074990000000  0.5510080000000 1.0
C      1  0.5185710000000  0.5327480000000  0.5376060000000 1.0
C      1  0.5327170000000  0.5376470000000  0.5185610000000 1.0
C      1  0.5376160000000  0.5186020000000  0.5327070000000 1.0
C      1  0.4815110000000  0.5327480000000  0.4624560000000 1.0
C      1  0.4815110000000  0.4673960000000  0.5376060000000 1.0
C      1  0.5185710000000  0.4673960000000  0.4624560000000 1.0
C      1  0.4673650000000  0.5376470000000  0.4815010000000 1.0
C      1  0.4673650000000  0.4624970000000  0.5185610000000 1.0
C      1  0.5327170000000  0.4624970000000  0.4815010000000 1.0
C      1  0.4624660000000  0.5186020000000  0.4673550000000 1.0
C      1  0.4624660000000  0.4815420000000  0.5327070000000 1.0
C      1  0.5376160000000  0.4815420000000  0.4673550000000 1.0
C      1  0.5185710000000  0.4673960000000  0.5376060000000 1.0
C      1  0.5327170000000  0.4624970000000  0.5185610000000 1.0
C      1  0.5376160000000  0.4815420000000  0.5327070000000 1.0
C      1  0.4815110000000  0.4673960000000  0.4624560000000 1.0
C      1  0.4815110000000  0.5327480000000  0.5376060000000 1.0
C      1  0.5185710000000  0.5327480000000  0.4624560000000 1.0
C      1  0.4673650000000  0.4624970000000  0.4815010000000 1.0
C      1  0.4673650000000  0.5376470000000  0.5185610000000 1.0
C      1  0.5327170000000  0.5376470000000  0.4815010000000 1.0
C      1  0.4624660000000  0.4815420000000  0.4673550000000 1.0
C      1  0.4624660000000  0.5186020000000  0.5327070000000 1.0
C      1  0.5376160000000  0.5186020000000  0.4673550000000 1.0
C      1  0.5729120000000  0.4919910000000  0.5154730000000 1.0
C      1  0.4919600000000  0.5155140000000  0.5729020000000 1.0
C      1  0.5154830000000  0.5729430000000  0.4919500000000 1.0
C      1  0.4271700000000  0.4919910000000  0.4845890000000 1.0
C      1  0.4271700000000  0.5081530000000  0.5154730000000 1.0
C      1  0.5729120000000  0.5081530000000  0.4845890000000 1.0
C      1  0.5081220000000  0.5155140000000  0.4271600000000 1.0
C      1  0.5081220000000  0.4846300000000  0.5729020000000 1.0
C      1  0.4919600000000  0.4846300000000  0.4271600000000 1.0
C      1  0.4845990000000  0.5729430000000  0.5081120000000 1.0
C      1  0.4845990000000  0.4272010000000  0.4919500000000 1.0
C      1  0.5154830000000  0.4272010000000  0.5081120000000 1.0
C      1  0.5729120000000  0.5081530000000  0.5154730000000 1.0
C      1  0.4919600000000  0.4846300000000  0.5729020000000 1.0
C      1  0.5154830000000  0.4272010000000  0.4919500000000 1.0
C      1  0.4271700000000  0.5081530000000  0.4845890000000 1.0
C      1  0.4271700000000  0.4919910000000  0.5154730000000 1.0
C      1  0.5729120000000  0.4919910000000  0.4845890000000 1.0
C      1  0.5081220000000  0.4846300000000  0.4271600000000 1.0
C      1  0.5081220000000  0.5155140000000  0.5729020000000 1.0
C      1  0.4919600000000  0.5155140000000  0.4271600000000 1.0
C      1  0.4845990000000  0.4272010000000  0.5081120000000 1.0
C      1  0.4845990000000  0.5729430000000  0.4919500000000 1.0
C      1  0.5154830000000  0.5729430000000  0.5081120000000 1.0
C      1  0.4301480000000  0.4797090000000  0.4926230000000 1.0
C      1  0.4796780000000  0.4926640000000  0.4301380000000 1.0
C      1  0.4926330000000  0.4301790000000  0.4796680000000 1.0
C      1  0.5699340000000  0.4797090000000  0.5074390000000 1.0
C      1  0.5699340000000  0.5204350000000  0.4926230000000 1.0
C      1  0.4301480000000  0.5204350000000  0.5074390000000 1.0
C      1  0.5204040000000  0.4926640000000  0.5699240000000 1.0
C      1  0.5204040000000  0.5074800000000  0.4301380000000 1.0
C      1  0.4796780000000  0.5074800000000  0.5699240000000 1.0
C      1  0.5074490000000  0.4301790000000  0.5203940000000 1.0
C      1  0.5074490000000  0.5699650000000  0.4796680000000 1.0
C      1  0.4926330000000  0.5699650000000  0.5203940000000 1.0
C      1  0.4301480000000  0.5204350000000  0.4926230000000 1.0
C      1  0.4796780000000  0.5074800000000  0.4301380000000 1.0
C      1  0.4926330000000  0.5699650000000  0.4796680000000 1.0
C      1  0.5699340000000  0.5204350000000  0.5074390000000 1.0
C      1  0.5699340000000  0.4797090000000  0.4926230000000 1.0
C      1  0.4301480000000  0.4797090000000  0.5074390000000 1.0
C      1  0.5204040000000  0.5074800000000  0.5699240000000 1.0
C      1  0.5204040000000  0.4926640000000  0.4301380000000 1.0
C      1  0.4796780000000  0.4926640000000  0.5699240000000 1.0
C      1  0.5074490000000  0.5699650000000  0.5203940000000 1.0
C      1  0.5074490000000  0.4301790000000  0.4796680000000 1.0
C      1  0.4926330000000  0.4301790000000  0.5203940000000 1.0
C      1  0.5406010000000  0.4619640000000  0.5635060000000 1.0
C      1  0.4619330000000  0.5635470000000  0.5405910000000 1.0
C      1  0.5635160000000  0.5406320000000  0.4619230000000 1.0
C      1  0.4594810000000  0.4619640000000  0.4365560000000 1.0
C      1  0.4594810000000  0.5381800000000  0.5635060000000 1.0
C      1  0.5406010000000  0.5381800000000  0.4365560000000 1.0
C      1  0.5381490000000  0.5635470000000  0.4594710000000 1.0
C      1  0.5381490000000  0.4365970000000  0.5405910000000 1.0
C      1  0.4619330000000  0.4365970000000  0.4594710000000 1.0
C      1  0.4365660000000  0.5406320000000  0.5381390000000 1.0
C      1  0.4365660000000  0.4595120000000  0.4619230000000 1.0
C      1  0.5635160000000  0.4595120000000  0.5381390000000 1.0
C      1  0.5406010000000  0.5381800000000  0.5635060000000 1.0
C      1  0.4619330000000  0.4365970000000  0.5405910000000 1.0
C      1  0.5635160000000  0.4595120000000  0.4619230000000 1.0
C      1  0.4594810000000  0.5381800000000  0.4365560000000 1.0
C      1  0.4594810000000  0.4619640000000  0.5635060000000 1.0
C      1  0.5406010000000  0.4619640000000  0.4365560000000 1.0
C      1  0.5381490000000  0.4365970000000  0.4594710000000 1.0
C      1  0.5381490000000  0.5635470000000  0.5405910000000 1.0
C      1  0.4619330000000  0.5635470000000  0.4594710000000 1.0
C      1  0.4365660000000  0.4595120000000  0.5381390000000 1.0
C      1  0.4365660000000  0.5406320000000  0.4619230000000 1.0
C      1  0.5635160000000  0.5406320000000  0.5381390000000 1.0
C      1  0.5330680000000  0.5498690000000  0.5615290000000 1.0
C      1  0.5498380000000  0.5615700000000  0.5330580000000 1.0
C      1  0.5615390000000  0.5330990000000  0.5498280000000 1.0
C      1  0.4670140000000  0.5498690000000  0.4385330000000 1.0
C      1  0.4670140000000  0.4502750000000  0.5615290000000 1.0
C      1  0.5330680000000  0.4502750000000  0.4385330000000 1.0
C      1  0.4502440000000  0.5615700000000  0.4670040000000 1.0
C      1  0.4502440000000  0.4385740000000  0.5330580000000 1.0
C      1  0.5498380000000  0.4385740000000  0.4670040000000 1.0
C      1  0.4385430000000  0.5330990000000  0.4502340000000 1.0
C      1  0.4385430000000  0.4670450000000  0.5498280000000 1.0
C      1  0.5615390000000  0.4670450000000  0.4502340000000 1.0
C      1  0.5330680000000  0.4502750000000  0.5615290000000 1.0
C      1  0.5498380000000  0.4385740000000  0.5330580000000 1.0
C      1  0.5615390000000  0.4670450000000  0.5498280000000 1.0
C      1  0.4670140000000  0.4502750000000  0.4385330000000 1.0
C      1  0.4670140000000  0.5498690000000  0.5615290000000 1.0
C      1  0.5330680000000  0.5498690000000  0.4385330000000 1.0
C      1  0.4502440000000  0.4385740000000  0.4670040000000 1.0
C      1  0.4502440000000  0.5615700000000  0.5330580000000 1.0
C      1  0.5498380000000  0.5615700000000  0.4670040000000 1.0
C      1  0.4385430000000  0.4670450000000  0.4502340000000 1.0
C      1  0.4385430000000  0.5330990000000  0.5498280000000 1.0
C      1  0.5615390000000  0.5330990000000  0.4502350000000 1.0
C      1  0.4699350000000  0.4423030000000  0.4497810000000 1.0
C      1  0.4422720000000  0.4498220000000  0.4699250000000 1.0
C      1  0.4497910000000  0.4699660000000  0.4422620000000 1.0
C      1  0.5301470000000  0.4423030000000  0.5502810000000 1.0
C      1  0.5301470000000  0.5578410000000  0.4497810000000 1.0
C      1  0.4699350000000  0.5578410000000  0.5502810000000 1.0
C      1  0.5578100000000  0.4498220000000  0.5301370000000 1.0
C      1  0.5578100000000  0.5503220000000  0.4699250000000 1.0
C      1  0.4422720000000  0.5503220000000  0.5301370000000 1.0
C      1  0.5502910000000  0.4699660000000  0.5578010000000 1.0
C      1  0.5502910000000  0.5301780000000  0.4422620000000 1.0
C      1  0.4497910000000  0.5301780000000  0.5578000000000 1.0
C      1  0.4699350000000  0.5578410000000  0.4497810000000 1.0
C      1  0.4422710000000  0.5503220000000  0.4699250000000 1.0
C      1  0.4497910000000  0.5301780000000  0.4422620000000 1.0
C      1  0.5301470000000  0.5578410000000  0.5502810000000 1.0
C      1  0.5301470000000  0.4423030000000  0.4497810000000 1.0
C      1  0.4699350000000  0.4423030000000  0.5502810000000 1.0
C      1  0.5578100000000  0.5503220000000  0.5301370000000 1.0
C      1  0.5578100000000  0.4498220000000  0.4699250000000 1.0
C      1  0.4422720000000  0.4498220000000  0.5301370000000 1.0
C      1  0.5502910000000  0.5301780000000  0.5578000000000 1.0
C      1  0.5502910000000  0.4699660000000  0.4422620000000 1.0
C      1  0.4497910000000  0.4699660000000  0.5578010000000 1.0
C      1  0.4926740000000  0.4632040000000  0.4570250000000 1.0
C      1  0.4631740000000  0.4570660000000  0.4926640000000 1.0
C      1  0.4570350000000  0.4927050000000  0.4631630000000 1.0
C      1  0.5074080000000  0.4632040000000  0.5430370000000 1.0
C      1  0.5074080000000  0.5369390000000  0.4570250000000 1.0
C      1  0.4926740000000  0.5369390000000  0.5430370000000 1.0
C      1  0.5369090000000  0.4570660000000  0.5073980000000 1.0
C      1  0.5369090000000  0.5430780000000  0.4926640000000 1.0
C      1  0.4631730000000  0.5430780000000  0.5073980000000 1.0
C      1  0.5430470000000  0.4927050000000  0.5368990000000 1.0
C      1  0.5430470000000  0.5074390000000  0.4631640000000 1.0
C      1  0.4570350000000  0.5074390000000  0.5368990000000 1.0
C      1  0.4926740000000  0.5369390000000  0.4570250000000 1.0
C      1  0.4631730000000  0.5430780000000  0.4926640000000 1.0
C      1  0.4570350000000  0.5074390000000  0.4631630000000 1.0
C      1  0.5074080000000  0.5369400000000  0.5430370000000 1.0
C      1  0.5074080000000  0.4632040000000  0.4570250000000 1.0
C      1  0.4926740000000  0.4632040000000  0.5430370000000 1.0
C      1  0.5369090000000  0.5430780000000  0.5073980000000 1.0
C      1  0.5369090000000  0.4570660000000  0.4926640000000 1.0
C      1  0.4631740000000  0.4570660000000  0.5073980000000 1.0
C      1  0.5430470000000  0.5074390000000  0.5368980000000 1.0
C      1  0.5430470000000  0.4927050000000  0.4631640000000 1.0
C      1  0.4570350000000  0.4927050000000  0.5368990000000 1.0
C      1  0.4290380000000  0.4777530000000  0.5483500000000 1.0
C      1  0.4777220000000  0.5483910000000  0.4290280000000 1.0
C      1  0.5483600000000  0.4290690000000  0.4777120000000 1.0
C      1  0.5710440000000  0.4777530000000  0.4517120000000 1.0
C      1  0.5710440000000  0.5223910000000  0.5483500000000 1.0
C      1  0.4290380000000  0.5223910000000  0.4517120000000 1.0
C      1  0.5223600000000  0.5483910000000  0.5710340000000 1.0
C      1  0.5223600000000  0.4517530000000  0.4290280000000 1.0
C      1  0.4777220000000  0.4517530000000  0.5710340000000 1.0
C      1  0.4517220000000  0.4290690000000  0.5223500000000 1.0
C      1  0.4517220000000  0.5710750000000  0.4777120000000 1.0
C      1  0.5483600000000  0.5710750000000  0.5223500000000 1.0
C      1  0.4290380000000  0.5223910000000  0.5483500000000 1.0
C      1  0.4777220000000  0.4517530000000  0.4290280000000 1.0
C      1  0.5483600000000  0.5710750000000  0.4777120000000 1.0
C      1  0.5710440000000  0.5223910000000  0.4517120000000 1.0
C      1  0.5710440000000  0.4777530000000  0.5483500000000 1.0
C      1  0.4290380000000  0.4777530000000  0.4517120000000 1.0
C      1  0.5223600000000  0.4517530000000  0.5710340000000 1.0
C      1  0.5223600000000  0.5483910000000  0.4290280000000 1.0
C      1  0.4777220000000  0.5483910000000  0.5710340000000 1.0
C      1  0.4517220000000  0.5710750000000  0.5223500000000 1.0
C      1  0.4517220000000  0.4290690000000  0.4777120000000 1.0
C      1  0.5483600000000  0.4290690000000  0.5223500000000 1.0
C      1  0.4774170000000  0.4645520000000  0.4223810000000 1.0
C      1  0.4645210000000  0.4224220000000  0.4774070000000 1.0
C      1  0.4223910000000  0.4774480000000  0.4645120000000 1.0
C      1  0.5226650000000  0.4645530000000  0.5776810000000 1.0
C      1  0.5226650000000  0.5355920000000  0.4223810000000 1.0
C      1  0.4774170000000  0.5355920000000  0.5776810000000 1.0
C      1  0.5355610000000  0.4224220000000  0.5226550000000 1.0
C      1  0.5355600000000  0.5777220000000  0.4774070000000 1.0
C      1  0.4645210000000  0.5777220000000  0.5226550000000 1.0
C      1  0.5776910000000  0.4774480000000  0.5355510000000 1.0
C      1  0.5776910000000  0.5226960000000  0.4645120000000 1.0
C      1  0.4223910000000  0.5226960000000  0.5355510000000 1.0
C      1  0.4774170000000  0.5355920000000  0.4223810000000 1.0
C      1  0.4645210000000  0.5777220000000  0.4774070000000 1.0
C      1  0.4223910000000  0.5226960000000  0.4645120000000 1.0
C      1  0.5226650000000  0.5355920000000  0.5776810000000 1.0
C      1  0.5226650000000  0.4645520000000  0.4223810000000 1.0
C      1  0.4774170000000  0.4645530000000  0.5776810000000 1.0
C      1  0.5355600000000  0.5777220000000  0.5226550000000 1.0
C      1  0.5355610000000  0.4224220000000  0.4774070000000 1.0
C      1  0.4645210000000  0.4224220000000  0.5226550000000 1.0
C      1  0.5776910000000  0.5226960000000  0.5355510000000 1.0
C      1  0.5776910000000  0.4774480000000  0.4645120000000 1.0
C      1  0.4223910000000  0.4774480000000  0.5355510000000 1.0
C      1  0.4284070000000  0.5000720000000  0.4608550000000 1.0
C      1  0.5000410000000  0.4608960000000  0.4283970000000 1.0
C      1  0.5392170000000  0.4284380000000  0.5000310000000 1.0
C      1  0.4608650000000  0.5717060000000  0.5000310000000 1.0
C      1  0.5716750000000  0.5000720000000  0.5392070000000 1.0
C      1  0.5716750000000  0.5000720000000  0.4608550000000 1.0
C      1  0.4284070000000  0.5000720000000  0.5392070000000 1.0
C      1  0.5000410000000  0.4608960000000  0.5716650000000 1.0
C      1  0.5000410000000  0.5392480000000  0.4283970000000 1.0
C      1  0.5000410000000  0.5392480000000  0.5716650000000 1.0
C      1  0.4608650000000  0.4284380000000  0.5000310000000 1.0
C      1  0.5392170000000  0.5717060000000  0.5000310000000 1.0
C      1  0.4696760000000  0.5304370000000  0.5303960000000 1.0
C      1  0.5304060000000  0.5304370000000  0.4696660000000 1.0
C      1  0.5304060000000  0.4697070000000  0.5303960000000 1.0
C      1  0.4696760000000  0.4697070000000  0.4696660000000 1.0
C      1  0.4696760000000  0.4697070000000  0.5303960000000 1.0
C      1  0.5304060000000  0.4697070000000  0.4696660000000 1.0
C      1  0.5304060000000  0.5304370000000  0.5303960000000 1.0
C      1  0.4696760000000  0.5304370000000  0.4696660000000 1.0
END
