TITL C-1379266-1300-214 -1.29671355147729e-06 1000000 -3153.68917135153 0 0 440 (Th) n - 1
REM
REM in /nfs/bkarasulu/CARBON/AIRSS/Generating-Clusters/GAP-ML-2020/Higher-Symm/Selected-Sizes/TryA-Only_Ih-Symm/Larger-Clusters/Try2-MINAMP_6A
REM
REM
REM
REM
REM
REM ./C.cell (31579ac4e95a012ec27f3239692ae8a5)
REM
REM compiler GCC version 9.2.1 20190827 (Red Hat 9.2.1-1)
REM options -cpp -mtune=generic -march=x86-64 -g -O0 -fpre-include=/usr/include/finclude/math-vector-fortran.h
REM seed -732272350 1714917554 -493927593 -191984527 -1096192829 -1847197215 505017045 1923063775 -782792357 -1435652181 811274 -1931508744 1493392025 1125097281 206692647 102104456 -1969338208 -1862707134 1007064436 1935953441 227002443 -782133225 -1941224261 -882591527 -611897096 -1287108918 1831696460 -729131991 -577959067 -1340947018 883042324 -99362364 186376836
REM
CELL 1.54180  100.00000  100.00000  100.00000   90.00000   90.00000   90.00000
LATT -1
SFAC C  
C      1  0.5120560000000  0.5763080000000  0.5305620000000 1.0
C      1  0.5764720000000  0.5305860000000  0.5118690000000 1.0
C      1  0.5307490000000  0.5118930000000  0.5762850000000 1.0
C      1  0.4879910000000  0.5763080000000  0.4691110000000 1.0
C      1  0.4879910000000  0.4234120000000  0.5305620000000 1.0
C      1  0.5120560000000  0.4234120000000  0.4691110000000 1.0
C      1  0.4235750000000  0.5305860000000  0.4878040000000 1.0
C      1  0.4235750000000  0.4691340000000  0.5118690000000 1.0
C      1  0.5764720000000  0.4691340000000  0.4878040000000 1.0
C      1  0.4692980000000  0.5118930000000  0.4233880000000 1.0
C      1  0.4692980000000  0.4878270000000  0.5762850000000 1.0
C      1  0.5307490000000  0.4878270000000  0.4233880000000 1.0
C      1  0.5120560000000  0.4234120000000  0.5305620000000 1.0
C      1  0.5764720000000  0.4691340000000  0.5118690000000 1.0
C      1  0.5307490000000  0.4878270000000  0.5762850000000 1.0
C      1  0.4879910000000  0.4234120000000  0.4691110000000 1.0
C      1  0.4879910000000  0.5763080000000  0.5305620000000 1.0
C      1  0.5120560000000  0.5763080000000  0.4691110000000 1.0
C      1  0.4235750000000  0.4691340000000  0.4878040000000 1.0
C      1  0.4235750000000  0.5305860000000  0.5118690000000 1.0
C      1  0.5764720000000  0.5305860000000  0.4878040000000 1.0
C      1  0.4692980000000  0.4878270000000  0.4233880000000 1.0
C      1  0.4692980000000  0.5118930000000  0.5762850000000 1.0
C      1  0.5307490000000  0.5118930000000  0.4233880000000 1.0
C      1  0.5517300000000  0.4824830000000  0.4366330000000 1.0
C      1  0.4826470000000  0.4366560000000  0.5515430000000 1.0
C      1  0.4368200000000  0.5515660000000  0.4824600000000 1.0
C      1  0.4483170000000  0.4824830000000  0.5630400000000 1.0
C      1  0.4483170000000  0.5172370000000  0.4366330000000 1.0
C      1  0.5517300000000  0.5172370000000  0.5630400000000 1.0
C      1  0.5174000000000  0.4366560000000  0.4481300000000 1.0
C      1  0.5174000000000  0.5630640000000  0.5515430000000 1.0
C      1  0.4826470000000  0.5630640000000  0.4481300000000 1.0
C      1  0.5632270000000  0.5515660000000  0.5172130000000 1.0
C      1  0.5632270000000  0.4481540000000  0.4824600000000 1.0
C      1  0.4368200000000  0.4481540000000  0.5172130000000 1.0
C      1  0.5517300000000  0.5172370000000  0.4366330000000 1.0
C      1  0.4826470000000  0.5630640000000  0.5515430000000 1.0
C      1  0.4368200000000  0.4481540000000  0.4824600000000 1.0
C      1  0.4483170000000  0.5172370000000  0.5630400000000 1.0
C      1  0.4483170000000  0.4824830000000  0.4366330000000 1.0
C      1  0.5517300000000  0.4824830000000  0.5630400000000 1.0
C      1  0.5174000000000  0.5630640000000  0.4481300000000 1.0
C      1  0.5174000000000  0.4366560000000  0.5515430000000 1.0
C      1  0.4826470000000  0.4366560000000  0.4481300000000 1.0
C      1  0.5632270000000  0.4481540000000  0.5172130000000 1.0
C      1  0.5632270000000  0.5515660000000  0.4824600000000 1.0
C      1  0.4368200000000  0.5515660000000  0.5172130000000 1.0
C      1  0.5310240000000  0.5491510000000  0.4352870000000 1.0
C      1  0.5493150000000  0.4353100000000  0.5308370000000 1.0
C      1  0.4354740000000  0.5308610000000  0.5491270000000 1.0
C      1  0.4690230000000  0.5491510000000  0.5643860000000 1.0
C      1  0.4690230000000  0.4505690000000  0.4352870000000 1.0
C      1  0.5310240000000  0.4505690000000  0.5643860000000 1.0
C      1  0.4507330000000  0.4353100000000  0.4688360000000 1.0
C      1  0.4507330000000  0.5644100000000  0.5308370000000 1.0
C      1  0.5493150000000  0.5644100000000  0.4688360000000 1.0
C      1  0.5645730000000  0.5308610000000  0.4505450000000 1.0
C      1  0.5645730000000  0.4688590000000  0.5491270000000 1.0
C      1  0.4354740000000  0.4688590000000  0.4505450000000 1.0
C      1  0.5310240000000  0.4505690000000  0.4352870000000 1.0
C      1  0.5493150000000  0.5644100000000  0.5308370000000 1.0
C      1  0.4354740000000  0.4688590000000  0.5491270000000 1.0
C      1  0.4690230000000  0.4505690000000  0.5643860000000 1.0
C      1  0.4690230000000  0.5491510000000  0.4352870000000 1.0
C      1  0.5310240000000  0.5491510000000  0.5643860000000 1.0
C      1  0.4507330000000  0.5644100000000  0.4688360000000 1.0
C      1  0.4507330000000  0.4353100000000  0.5308370000000 1.0
C      1  0.5493150000000  0.4353100000000  0.4688360000000 1.0
C      1  0.5645730000000  0.4688590000000  0.4505450000000 1.0
C      1  0.5645730000000  0.5308610000000  0.5491270000000 1.0
C      1  0.4354740000000  0.5308610000000  0.4505450000000 1.0
C      1  0.4654860000000  0.5149570000000  0.5416190000000 1.0
C      1  0.5151200000000  0.5416430000000  0.4652990000000 1.0
C      1  0.5418060000000  0.4653220000000  0.5149330000000 1.0
C      1  0.5345610000000  0.5149570000000  0.4580540000000 1.0
C      1  0.5345610000000  0.4847630000000  0.5416190000000 1.0
C      1  0.4654860000000  0.4847630000000  0.4580540000000 1.0
C      1  0.4849270000000  0.5416430000000  0.5343740000000 1.0
C      1  0.4849270000000  0.4580780000000  0.4652990000000 1.0
C      1  0.5151200000000  0.4580780000000  0.5343740000000 1.0
C      1  0.4582410000000  0.4653220000000  0.4847400000000 1.0
C      1  0.4582410000000  0.5343980000000  0.5149330000000 1.0
C      1  0.5418060000000  0.5343980000000  0.4847400000000 1.0
C      1  0.4654860000000  0.4847630000000  0.5416190000000 1.0
C      1  0.5151200000000  0.4580780000000  0.4652990000000 1.0
C      1  0.5418060000000  0.5343980000000  0.5149330000000 1.0
C      1  0.5345610000000  0.4847630000000  0.4580540000000 1.0
C      1  0.5345610000000  0.5149570000000  0.5416190000000 1.0
C      1  0.4654860000000  0.5149570000000  0.4580540000000 1.0
C      1  0.4849270000000  0.4580780000000  0.5343740000000 1.0
C      1  0.4849270000000  0.5416430000000  0.4652990000000 1.0
C      1  0.5151200000000  0.5416430000000  0.5343740000000 1.0
C      1  0.4582410000000  0.5343980000000  0.4847400000000 1.0
C      1  0.4582410000000  0.4653220000000  0.5149330000000 1.0
C      1  0.5418060000000  0.4653220000000  0.4847400000000 1.0
C      1  0.5738210000000  0.4865710000000  0.5309510000000 1.0
C      1  0.4867340000000  0.5309750000000  0.5736340000000 1.0
C      1  0.5311380000000  0.5736580000000  0.4865470000000 1.0
C      1  0.4262260000000  0.4865710000000  0.4687220000000 1.0
C      1  0.4262260000000  0.5131490000000  0.5309510000000 1.0
C      1  0.5738210000000  0.5131490000000  0.4687220000000 1.0
C      1  0.5133130000000  0.5309750000000  0.4260390000000 1.0
C      1  0.5133130000000  0.4687460000000  0.5736340000000 1.0
C      1  0.4867340000000  0.4687460000000  0.4260390000000 1.0
C      1  0.4689090000000  0.5736580000000  0.5131260000000 1.0
C      1  0.4689090000000  0.4260620000000  0.4865470000000 1.0
C      1  0.5311380000000  0.4260620000000  0.5131260000000 1.0
C      1  0.5738210000000  0.5131490000000  0.5309510000000 1.0
C      1  0.4867340000000  0.4687460000000  0.5736340000000 1.0
C      1  0.5311380000000  0.4260620000000  0.4865470000000 1.0
C      1  0.4262260000000  0.5131490000000  0.4687220000000 1.0
C      1  0.4262260000000  0.4865710000000  0.5309510000000 1.0
C      1  0.5738210000000  0.4865710000000  0.4687220000000 1.0
C      1  0.5133130000000  0.4687460000000  0.4260390000000 1.0
C      1  0.5133130000000  0.5309750000000  0.5736340000000 1.0
C      1  0.4867340000000  0.5309750000000  0.4260390000000 1.0
C      1  0.4689090000000  0.4260620000000  0.5131260000000 1.0
C      1  0.4689090000000  0.5736580000000  0.4865470000000 1.0
C      1  0.5311380000000  0.5736580000000  0.5131260000000 1.0
C      1  0.4833760000000  0.4929370000000  0.4248940000000 1.0
C      1  0.4931010000000  0.4249180000000  0.4831890000000 1.0
C      1  0.4250810000000  0.4832130000000  0.4929140000000 1.0
C      1  0.5166710000000  0.4929370000000  0.5747790000000 1.0
C      1  0.5166710000000  0.5067830000000  0.4248940000000 1.0
C      1  0.4833760000000  0.5067830000000  0.5747790000000 1.0
C      1  0.5069460000000  0.4249180000000  0.5164840000000 1.0
C      1  0.5069460000000  0.5748020000000  0.4831890000000 1.0
C      1  0.4931010000000  0.5748020000000  0.5164840000000 1.0
C      1  0.5749660000000  0.4832130000000  0.5067590000000 1.0
C      1  0.5749660000000  0.5165070000000  0.4929140000000 1.0
C      1  0.4250810000000  0.5165070000000  0.5067590000000 1.0
C      1  0.4833760000000  0.5067830000000  0.4248940000000 1.0
C      1  0.4931010000000  0.5748020000000  0.4831890000000 1.0
C      1  0.4250810000000  0.5165070000000  0.4929140000000 1.0
C      1  0.5166710000000  0.5067830000000  0.5747790000000 1.0
C      1  0.5166710000000  0.4929370000000  0.4248940000000 1.0
C      1  0.4833760000000  0.4929370000000  0.5747790000000 1.0
C      1  0.5069460000000  0.5748020000000  0.5164840000000 1.0
C      1  0.5069460000000  0.4249180000000  0.4831890000000 1.0
C      1  0.4931010000000  0.4249180000000  0.5164840000000 1.0
C      1  0.5749660000000  0.5165070000000  0.5067590000000 1.0
C      1  0.5749660000000  0.4832130000000  0.4929140000000 1.0
C      1  0.4250810000000  0.4832130000000  0.5067590000000 1.0
C      1  0.4794430000000  0.5870340000000  0.4676710000000 1.0
C      1  0.5871970000000  0.4676950000000  0.4792560000000 1.0
C      1  0.4678580000000  0.4792790000000  0.5870100000000 1.0
C      1  0.5206040000000  0.5870340000000  0.5320020000000 1.0
C      1  0.5206040000000  0.4126860000000  0.4676710000000 1.0
C      1  0.4794430000000  0.4126860000000  0.5320020000000 1.0
C      1  0.4128500000000  0.4676950000000  0.5204170000000 1.0
C      1  0.4128500000000  0.5320250000000  0.4792560000000 1.0
C      1  0.5871970000000  0.5320250000000  0.5204170000000 1.0
C      1  0.5321890000000  0.4792790000000  0.4126630000000 1.0
C      1  0.5321890000000  0.5204410000000  0.5870100000000 1.0
C      1  0.4678580000000  0.5204410000000  0.4126630000000 1.0
C      1  0.4794430000000  0.4126860000000  0.4676710000000 1.0
C      1  0.5871970000000  0.5320250000000  0.4792560000000 1.0
C      1  0.4678580000000  0.5204410000000  0.5870100000000 1.0
C      1  0.5206040000000  0.4126860000000  0.5320020000000 1.0
C      1  0.5206040000000  0.5870340000000  0.4676710000000 1.0
C      1  0.4794430000000  0.5870340000000  0.5320020000000 1.0
C      1  0.4128500000000  0.5320250000000  0.5204170000000 1.0
C      1  0.4128500000000  0.4676950000000  0.4792560000000 1.0
C      1  0.5871970000000  0.4676950000000  0.5204170000000 1.0
C      1  0.5321890000000  0.5204410000000  0.4126630000000 1.0
C      1  0.5321890000000  0.4792790000000  0.5870100000000 1.0
C      1  0.4678580000000  0.4792790000000  0.4126630000000 1.0
C      1  0.4608230000000  0.5563700000000  0.5556400000000 1.0
C      1  0.5565330000000  0.5556640000000  0.4606350000000 1.0
C      1  0.5558270000000  0.4606590000000  0.5563460000000 1.0
C      1  0.5392250000000  0.5563700000000  0.4440330000000 1.0
C      1  0.5392250000000  0.4433500000000  0.5556400000000 1.0
C      1  0.4608230000000  0.4433500000000  0.4440330000000 1.0
C      1  0.4435140000000  0.5556640000000  0.5390370000000 1.0
C      1  0.4435140000000  0.4440560000000  0.4606350000000 1.0
C      1  0.5565330000000  0.4440560000000  0.5390370000000 1.0
C      1  0.4442200000000  0.4606590000000  0.4433270000000 1.0
C      1  0.4442200000000  0.5390610000000  0.5563460000000 1.0
C      1  0.5558270000000  0.5390610000000  0.4433270000000 1.0
C      1  0.4608230000000  0.4433500000000  0.5556400000000 1.0
C      1  0.5565330000000  0.4440560000000  0.4606350000000 1.0
C      1  0.5558270000000  0.5390610000000  0.5563460000000 1.0
C      1  0.5392250000000  0.4433500000000  0.4440330000000 1.0
C      1  0.5392250000000  0.5563700000000  0.5556400000000 1.0
C      1  0.4608230000000  0.5563700000000  0.4440330000000 1.0
C      1  0.4435140000000  0.4440560000000  0.5390370000000 1.0
C      1  0.4435140000000  0.5556640000000  0.4606350000000 1.0
C      1  0.5565330000000  0.5556640000000  0.5390370000000 1.0
C      1  0.4442200000000  0.5390610000000  0.4433270000000 1.0
C      1  0.4442200000000  0.4606590000000  0.5563460000000 1.0
C      1  0.5558270000000  0.4606590000000  0.4433270000000 1.0
C      1  0.5528460000000  0.5621930000000  0.5168500000000 1.0
C      1  0.5623560000000  0.5168740000000  0.5526590000000 1.0
C      1  0.5170370000000  0.5526830000000  0.5621690000000 1.0
C      1  0.4472010000000  0.5621930000000  0.4828230000000 1.0
C      1  0.4472010000000  0.4375270000000  0.5168500000000 1.0
C      1  0.5528460000000  0.4375270000000  0.4828230000000 1.0
C      1  0.4376910000000  0.5168740000000  0.4470140000000 1.0
C      1  0.4376910000000  0.4828460000000  0.5526590000000 1.0
C      1  0.5623560000000  0.4828460000000  0.4470140000000 1.0
C      1  0.4830100000000  0.5526830000000  0.4375040000000 1.0
C      1  0.4830100000000  0.4470370000000  0.5621690000000 1.0
C      1  0.5170370000000  0.4470370000000  0.4375040000000 1.0
C      1  0.5528460000000  0.4375270000000  0.5168500000000 1.0
C      1  0.5623560000000  0.4828460000000  0.5526590000000 1.0
C      1  0.5170370000000  0.4470370000000  0.5621690000000 1.0
C      1  0.4472010000000  0.4375270000000  0.4828230000000 1.0
C      1  0.4472010000000  0.5621930000000  0.5168500000000 1.0
C      1  0.5528460000000  0.5621930000000  0.4828230000000 1.0
C      1  0.4376910000000  0.4828460000000  0.4470140000000 1.0
C      1  0.4376910000000  0.5168740000000  0.5526590000000 1.0
C      1  0.5623560000000  0.5168740000000  0.4470140000000 1.0
C      1  0.4830100000000  0.4470370000000  0.4375040000000 1.0
C      1  0.4830100000000  0.5526830000000  0.5621690000000 1.0
C      1  0.5170370000000  0.5526830000000  0.4375040000000 1.0
C      1  0.5701260000000  0.5361170000000  0.4622790000000 1.0
C      1  0.5362810000000  0.4623020000000  0.5699390000000 1.0
C      1  0.4624660000000  0.5699630000000  0.5360930000000 1.0
C      1  0.4299210000000  0.5361170000000  0.5373940000000 1.0
C      1  0.4299210000000  0.4636030000000  0.4622790000000 1.0
C      1  0.5701260000000  0.4636030000000  0.5373940000000 1.0
C      1  0.4637670000000  0.4623020000000  0.4297340000000 1.0
C      1  0.4637670000000  0.5374180000000  0.5699390000000 1.0
C      1  0.5362810000000  0.5374180000000  0.4297340000000 1.0
C      1  0.5375810000000  0.5699630000000  0.4635790000000 1.0
C      1  0.5375810000000  0.4297570000000  0.5360930000000 1.0
C      1  0.4624660000000  0.4297570000000  0.4635790000000 1.0
C      1  0.5701260000000  0.4636030000000  0.4622790000000 1.0
C      1  0.5362810000000  0.5374180000000  0.5699390000000 1.0
C      1  0.4624660000000  0.4297570000000  0.5360930000000 1.0
C      1  0.4299210000000  0.4636030000000  0.5373940000000 1.0
C      1  0.4299210000000  0.5361170000000  0.4622790000000 1.0
C      1  0.5701260000000  0.5361170000000  0.5373940000000 1.0
C      1  0.4637670000000  0.5374180000000  0.4297340000000 1.0
C      1  0.4637670000000  0.4623020000000  0.5699390000000 1.0
C      1  0.5362810000000  0.4623020000000  0.4297340000000 1.0
C      1  0.5375810000000  0.4297570000000  0.4635790000000 1.0
C      1  0.5375810000000  0.5699630000000  0.5360930000000 1.0
C      1  0.4624660000000  0.5699630000000  0.4635790000000 1.0
C      1  0.5181180000000  0.4255790000000  0.4927140000000 1.0
C      1  0.4257430000000  0.4927380000000  0.5179310000000 1.0
C      1  0.4929020000000  0.5179550000000  0.4255550000000 1.0
C      1  0.4819290000000  0.4255790000000  0.5069580000000 1.0
C      1  0.4819290000000  0.5741410000000  0.4927140000000 1.0
C      1  0.5181180000000  0.5741410000000  0.5069580000000 1.0
C      1  0.5743050000000  0.4927380000000  0.4817420000000 1.0
C      1  0.5743050000000  0.5069820000000  0.5179310000000 1.0
C      1  0.4257430000000  0.5069820000000  0.4817420000000 1.0
C      1  0.5071460000000  0.5179550000000  0.5741170000000 1.0
C      1  0.5071460000000  0.4817650000000  0.4255550000000 1.0
C      1  0.4929020000000  0.4817650000000  0.5741170000000 1.0
C      1  0.5181180000000  0.5741410000000  0.4927140000000 1.0
C      1  0.4257430000000  0.5069820000000  0.5179310000000 1.0
C      1  0.4929020000000  0.4817650000000  0.4255550000000 1.0
C      1  0.4819290000000  0.5741410000000  0.5069580000000 1.0
C      1  0.4819290000000  0.4255790000000  0.4927140000000 1.0
C      1  0.5181180000000  0.4255790000000  0.5069580000000 1.0
C      1  0.5743050000000  0.5069820000000  0.4817420000000 1.0
C      1  0.5743050000000  0.4927380000000  0.5179310000000 1.0
C      1  0.4257430000000  0.4927380000000  0.4817420000000 1.0
C      1  0.5071460000000  0.4817650000000  0.5741170000000 1.0
C      1  0.5071460000000  0.5179550000000  0.4255550000000 1.0
C      1  0.4929020000000  0.5179550000000  0.5741170000000 1.0
C      1  0.5780490000000  0.4726550000000  0.4696260000000 1.0
C      1  0.4728190000000  0.4696500000000  0.5778610000000 1.0
C      1  0.4698130000000  0.5778850000000  0.4726310000000 1.0
C      1  0.4219990000000  0.4726550000000  0.5300470000000 1.0
C      1  0.4219990000000  0.5270650000000  0.4696260000000 1.0
C      1  0.5780490000000  0.5270650000000  0.5300470000000 1.0
C      1  0.5272290000000  0.4696500000000  0.4218110000000 1.0
C      1  0.5272290000000  0.5300700000000  0.5778610000000 1.0
C      1  0.4728190000000  0.5300700000000  0.4218110000000 1.0
C      1  0.5302340000000  0.5778850000000  0.5270410000000 1.0
C      1  0.5302340000000  0.4218350000000  0.4726310000000 1.0
C      1  0.4698130000000  0.4218350000000  0.5270410000000 1.0
C      1  0.5780490000000  0.5270650000000  0.4696260000000 1.0
C      1  0.4728190000000  0.5300700000000  0.5778610000000 1.0
C      1  0.4698130000000  0.4218350000000  0.4726310000000 1.0
C      1  0.4219990000000  0.5270650000000  0.5300470000000 1.0
C      1  0.4219990000000  0.4726550000000  0.4696260000000 1.0
C      1  0.5780490000000  0.4726550000000  0.5300470000000 1.0
C      1  0.5272290000000  0.5300700000000  0.4218110000000 1.0
C      1  0.5272290000000  0.4696500000000  0.5778610000000 1.0
C      1  0.4728190000000  0.4696500000000  0.4218110000000 1.0
C      1  0.5302340000000  0.4218350000000  0.5270410000000 1.0
C      1  0.5302340000000  0.5778850000000  0.4726310000000 1.0
C      1  0.4698130000000  0.5778850000000  0.5270410000000 1.0
C      1  0.5066980000000  0.4475280000000  0.4669150000000 1.0
C      1  0.4476920000000  0.4669390000000  0.5065110000000 1.0
C      1  0.4671030000000  0.5065350000000  0.4475040000000 1.0
C      1  0.4933490000000  0.4475280000000  0.5327570000000 1.0
C      1  0.4933490000000  0.5521920000000  0.4669150000000 1.0
C      1  0.5066990000000  0.5521920000000  0.5327570000000 1.0
C      1  0.5523560000000  0.4669390000000  0.4931620000000 1.0
C      1  0.5523560000000  0.5327810000000  0.5065110000000 1.0
C      1  0.4476920000000  0.5327810000000  0.4931620000000 1.0
C      1  0.5329450000000  0.5065350000000  0.5521680000000 1.0
C      1  0.5329450000000  0.4931850000000  0.4475040000000 1.0
C      1  0.4671030000000  0.4931850000000  0.5521680000000 1.0
C      1  0.5066990000000  0.5521920000000  0.4669150000000 1.0
C      1  0.4476920000000  0.5327810000000  0.5065110000000 1.0
C      1  0.4671030000000  0.4931850000000  0.4475040000000 1.0
C      1  0.4933490000000  0.5521920000000  0.5327570000000 1.0
C      1  0.4933490000000  0.4475280000000  0.4669150000000 1.0
C      1  0.5066980000000  0.4475280000000  0.5327570000000 1.0
C      1  0.5523560000000  0.5327810000000  0.4931610000000 1.0
C      1  0.5523560000000  0.4669390000000  0.5065110000000 1.0
C      1  0.4476920000000  0.4669390000000  0.4931620000000 1.0
C      1  0.5329450000000  0.4931850000000  0.5521680000000 1.0
C      1  0.5329450000000  0.5065350000000  0.4475040000000 1.0
C      1  0.4671030000000  0.5065350000000  0.5521680000000 1.0
C      1  0.4590060000000  0.4920930000000  0.5660630000000 1.0
C      1  0.4922560000000  0.5660860000000  0.4588190000000 1.0
C      1  0.5662500000000  0.4588420000000  0.4920690000000 1.0
C      1  0.5410410000000  0.4920930000000  0.4336100000000 1.0
C      1  0.5410410000000  0.5076270000000  0.5660630000000 1.0
C      1  0.4590060000000  0.5076270000000  0.4336100000000 1.0
C      1  0.5077910000000  0.5660860000000  0.5408540000000 1.0
C      1  0.5077910000000  0.4336340000000  0.4588190000000 1.0
C      1  0.4922560000000  0.4336340000000  0.5408540000000 1.0
C      1  0.4337970000000  0.4588420000000  0.5076040000000 1.0
C      1  0.4337970000000  0.5408780000000  0.4920690000000 1.0
C      1  0.5662500000000  0.5408780000000  0.5076040000000 1.0
C      1  0.4590060000000  0.5076270000000  0.5660630000000 1.0
C      1  0.4922560000000  0.4336340000000  0.4588190000000 1.0
C      1  0.5662500000000  0.5408780000000  0.4920690000000 1.0
C      1  0.5410410000000  0.5076270000000  0.4336100000000 1.0
C      1  0.5410410000000  0.4920930000000  0.5660630000000 1.0
C      1  0.4590060000000  0.4920930000000  0.4336100000000 1.0
C      1  0.5077910000000  0.4336340000000  0.5408540000000 1.0
C      1  0.5077910000000  0.5660860000000  0.4588190000000 1.0
C      1  0.4922560000000  0.5660860000000  0.5408540000000 1.0
C      1  0.4337970000000  0.5408780000000  0.5076040000000 1.0
C      1  0.4337970000000  0.4588420000000  0.4920690000000 1.0
C      1  0.5662500000000  0.4588420000000  0.5076040000000 1.0
C      1  0.5073550000000  0.4564880000000  0.4317350000000 1.0
C      1  0.4566520000000  0.4317580000000  0.5071680000000 1.0
C      1  0.4319220000000  0.5071920000000  0.4564650000000 1.0
C      1  0.4926920000000  0.4564880000000  0.5679380000000 1.0
C      1  0.4926920000000  0.5432320000000  0.4317350000000 1.0
C      1  0.5073550000000  0.5432320000000  0.5679380000000 1.0
C      1  0.5433950000000  0.4317580000000  0.4925050000000 1.0
C      1  0.5433950000000  0.5679620000000  0.5071680000000 1.0
C      1  0.4566520000000  0.5679620000000  0.4925050000000 1.0
C      1  0.5681250000000  0.5071920000000  0.5432080000000 1.0
C      1  0.5681250000000  0.4925280000000  0.4564650000000 1.0
C      1  0.4319220000000  0.4925280000000  0.5432080000000 1.0
C      1  0.5073550000000  0.5432320000000  0.4317350000000 1.0
C      1  0.4566520000000  0.5679620000000  0.5071680000000 1.0
C      1  0.4319220000000  0.4925280000000  0.4564650000000 1.0
C      1  0.4926920000000  0.5432320000000  0.5679380000000 1.0
C      1  0.4926920000000  0.4564880000000  0.4317350000000 1.0
C      1  0.5073550000000  0.4564880000000  0.5679380000000 1.0
C      1  0.5433950000000  0.5679620000000  0.4925050000000 1.0
C      1  0.5433950000000  0.4317580000000  0.5071680000000 1.0
C      1  0.4566520000000  0.4317580000000  0.4925050000000 1.0
C      1  0.5681250000000  0.4925280000000  0.5432080000000 1.0
C      1  0.5681250000000  0.5071920000000  0.4564650000000 1.0
C      1  0.4319220000000  0.5071920000000  0.5432080000000 1.0
C      1  0.5319830000000  0.4561350000000  0.4829100000000 1.0
C      1  0.4562990000000  0.4829340000000  0.5317960000000 1.0
C      1  0.4830970000000  0.5318200000000  0.4561120000000 1.0
C      1  0.4680640000000  0.4561350000000  0.5167630000000 1.0
C      1  0.4680640000000  0.5435850000000  0.4829100000000 1.0
C      1  0.5319830000000  0.5435850000000  0.5167630000000 1.0
C      1  0.5437480000000  0.4829340000000  0.4678770000000 1.0
C      1  0.5437480000000  0.5167860000000  0.5317960000000 1.0
C      1  0.4562990000000  0.5167860000000  0.4678770000000 1.0
C      1  0.5169500000000  0.5318200000000  0.5435610000000 1.0
C      1  0.5169500000000  0.4679000000000  0.4561120000000 1.0
C      1  0.4830970000000  0.4679000000000  0.5435610000000 1.0
C      1  0.5319830000000  0.5435850000000  0.4829100000000 1.0
C      1  0.4562990000000  0.5167860000000  0.5317960000000 1.0
C      1  0.4830970000000  0.4679000000000  0.4561120000000 1.0
C      1  0.4680640000000  0.5435850000000  0.5167630000000 1.0
C      1  0.4680640000000  0.4561350000000  0.4829100000000 1.0
C      1  0.5319830000000  0.4561350000000  0.5167630000000 1.0
C      1  0.5437480000000  0.5167860000000  0.4678770000000 1.0
C      1  0.5437480000000  0.4829340000000  0.5317960000000 1.0
C      1  0.4562990000000  0.4829340000000  0.4678770000000 1.0
C      1  0.5169500000000  0.4679000000000  0.5435610000000 1.0
C      1  0.5169500000000  0.5318200000000  0.4561120000000 1.0
C      1  0.4830970000000  0.5318200000000  0.5435610000000 1.0
C      1  0.4687800000000  0.5648250000000  0.5477390000000 1.0
C      1  0.5649890000000  0.5477630000000  0.4685930000000 1.0
C      1  0.5479260000000  0.4686160000000  0.5648010000000 1.0
C      1  0.5312670000000  0.5648250000000  0.4519340000000 1.0
C      1  0.5312670000000  0.4348950000000  0.5477390000000 1.0
C      1  0.4687800000000  0.4348950000000  0.4519340000000 1.0
C      1  0.4350590000000  0.5477630000000  0.5310800000000 1.0
C      1  0.4350590000000  0.4519570000000  0.4685930000000 1.0
C      1  0.5649890000000  0.4519570000000  0.5310800000000 1.0
C      1  0.4521210000000  0.4686160000000  0.4348710000000 1.0
C      1  0.4521210000000  0.5311040000000  0.5648010000000 1.0
C      1  0.5479260000000  0.5311040000000  0.4348710000000 1.0
C      1  0.4687800000000  0.4348950000000  0.5477390000000 1.0
C      1  0.5649890000000  0.4519570000000  0.4685930000000 1.0
C      1  0.5479260000000  0.5311040000000  0.5648010000000 1.0
C      1  0.5312670000000  0.4348950000000  0.4519340000000 1.0
C      1  0.5312670000000  0.5648250000000  0.5477390000000 1.0
C      1  0.4687800000000  0.5648250000000  0.4519340000000 1.0
C      1  0.4350590000000  0.4519570000000  0.5310800000000 1.0
C      1  0.4350590000000  0.5477630000000  0.4685930000000 1.0
C      1  0.5649890000000  0.5477630000000  0.5310800000000 1.0
C      1  0.4521210000000  0.5311040000000  0.4348710000000 1.0
C      1  0.4521210000000  0.4686160000000  0.5648010000000 1.0
C      1  0.5479260000000  0.4686160000000  0.4348710000000 1.0
C      1  0.4588410000000  0.5306050000000  0.4705660000000 1.0
C      1  0.5307690000000  0.4705900000000  0.4586530000000 1.0
C      1  0.4707540000000  0.4586770000000  0.5305810000000 1.0
C      1  0.5412070000000  0.5306050000000  0.5291060000000 1.0
C      1  0.5412070000000  0.4691150000000  0.4705660000000 1.0
C      1  0.4588410000000  0.4691150000000  0.5291060000000 1.0
C      1  0.4692790000000  0.4705900000000  0.5410190000000 1.0
C      1  0.4692790000000  0.5291300000000  0.4586530000000 1.0
C      1  0.5307690000000  0.5291300000000  0.5410190000000 1.0
C      1  0.5292940000000  0.4586770000000  0.4690910000000 1.0
C      1  0.5292940000000  0.5410430000000  0.5305810000000 1.0
C      1  0.4707540000000  0.5410430000000  0.4690910000000 1.0
C      1  0.4588410000000  0.4691150000000  0.4705660000000 1.0
C      1  0.5307690000000  0.5291300000000  0.4586530000000 1.0
C      1  0.4707540000000  0.5410430000000  0.5305810000000 1.0
C      1  0.5412070000000  0.4691150000000  0.5291060000000 1.0
C      1  0.5412070000000  0.5306050000000  0.4705660000000 1.0
C      1  0.4588410000000  0.5306050000000  0.5291060000000 1.0
C      1  0.4692790000000  0.5291300000000  0.5410190000000 1.0
C      1  0.4692790000000  0.4705900000000  0.4586530000000 1.0
C      1  0.5307690000000  0.4705900000000  0.5410190000000 1.0
C      1  0.5292940000000  0.5410430000000  0.4690910000000 1.0
C      1  0.5292940000000  0.4586770000000  0.5305810000000 1.0
C      1  0.4707540000000  0.4586770000000  0.4690910000000 1.0
C      1  0.4483940000000  0.4482310000000  0.4482070000000 1.0
C      1  0.5516530000000  0.4482310000000  0.5514660000000 1.0
C      1  0.5516530000000  0.5514890000000  0.4482070000000 1.0
C      1  0.4483940000000  0.5514890000000  0.5514660000000 1.0
C      1  0.4483940000000  0.5514890000000  0.4482070000000 1.0
C      1  0.5516530000000  0.5514890000000  0.5514660000000 1.0
C      1  0.5516530000000  0.4482310000000  0.4482070000000 1.0
C      1  0.4483940000000  0.4482310000000  0.5514660000000 1.0
END
