TITL C-1379266-1300-77 -1.94937587107412e-07 1000000 -1165.01916055674 0 0 180 (C1) n - 1
REM
REM in /nfs/bkarasulu/CARBON/AIRSS/Generating-Clusters/GAP-ML-2020/Higher-Symm/Selected-Sizes/TryA-Only_Ih-Symm/Larger-Clusters/Try2-MINAMP_6A
REM
REM
REM
REM
REM
REM ./C.cell (31579ac4e95a012ec27f3239692ae8a5)
REM
REM compiler GCC version 9.2.1 20190827 (Red Hat 9.2.1-1)
REM options -cpp -mtune=generic -march=x86-64 -g -O0 -fpre-include=/usr/include/finclude/math-vector-fortran.h
REM seed 265821565 -1177865304 754998126 1728546779 -670960934 562858229 -1541964225 681434231 -639136086 -590220531 60184789 531851353 -692907872 -71881536 1362633850 -1089092397 1851082052 -1892344475 -993773535 113186464 835444191 601208267 -2004928011 1409192703 -2012016405 784273616 -44407635 1310717417 -1356424289 1227202897 2128130250 161629114 1531935875
REM
CELL 1.54180  100.00000  100.00000  100.00000   90.00000   90.00000   90.00000
LATT -1
SFAC C  
C      1  0.5024970000000  0.4124870000000  0.4520400000000 1.0
C      1  0.4136110000000  0.4500460000000  0.5053230000000 1.0
C      1  0.4493600000000  0.4880020000000  0.4158360000000 1.0
C      1  0.5106380000000  0.5848610000000  0.4473390000000 1.0
C      1  0.5058730000000  0.5863220000000  0.5538920000000 1.0
C      1  0.5063440000000  0.4219650000000  0.5372130000000 1.0
C      1  0.5804760000000  0.5383410000000  0.5002350000000 1.0
C      1  0.4149060000000  0.5521760000000  0.5099080000000 1.0
C      1  0.5783390000000  0.4607260000000  0.5056910000000 1.0
C      1  0.5525460000000  0.4973500000000  0.4130900000000 1.0
C      1  0.4616020000000  0.5032160000000  0.5817700000000 1.0
C      1  0.5377650000000  0.4924740000000  0.5758650000000 1.0
C      1  0.4985490000000  0.4185860000000  0.5466780000000 1.0
C      1  0.4203530000000  0.4607520000000  0.5042990000000 1.0
C      1  0.4511560000000  0.5030710000000  0.5889830000000 1.0
C      1  0.5049880000000  0.5805580000000  0.5426160000000 1.0
C      1  0.5032960000000  0.5858880000000  0.4576840000000 1.0
C      1  0.5025400000000  0.4198960000000  0.4623470000000 1.0
C      1  0.5875970000000  0.5488390000000  0.5007040000000 1.0
C      1  0.4138230000000  0.5417220000000  0.5027280000000 1.0
C      1  0.5815460000000  0.4513940000000  0.4976660000000 1.0
C      1  0.5443840000000  0.5004330000000  0.5832540000000 1.0
C      1  0.4596720000000  0.4953750000000  0.4146950000000 1.0
C      1  0.5415520000000  0.4981700000000  0.4193820000000 1.0
C      1  0.4505010000000  0.4352040000000  0.5171300000000 1.0
C      1  0.4403270000000  0.5111290000000  0.4477020000000 1.0
C      1  0.5155090000000  0.4476330000000  0.4341390000000 1.0
C      1  0.5526070000000  0.5648350000000  0.5163700000000 1.0
C      1  0.4474580000000  0.5603310000000  0.4874100000000 1.0
C      1  0.5407140000000  0.4560340000000  0.4904300000000 1.0
C      1  0.5658860000000  0.4852230000000  0.4504550000000 1.0
C      1  0.4351410000000  0.4849470000000  0.5551860000000 1.0
C      1  0.5422940000000  0.5072420000000  0.5388750000000 1.0
C      1  0.4884870000000  0.5520780000000  0.4390180000000 1.0
C      1  0.5148060000000  0.5475130000000  0.5656390000000 1.0
C      1  0.4917990000000  0.4596440000000  0.5444590000000 1.0
C      1  0.4471400000000  0.4341350000000  0.4865430000000 1.0
C      1  0.4337650000000  0.5155610000000  0.5534610000000 1.0
C      1  0.5154790000000  0.4531510000000  0.5623330000000 1.0
C      1  0.5529470000000  0.5660020000000  0.4857290000000 1.0
C      1  0.4547800000000  0.5433930000000  0.5105750000000 1.0
C      1  0.5458510000000  0.4368920000000  0.5133950000000 1.0
C      1  0.5616190000000  0.4847040000000  0.5446680000000 1.0
C      1  0.4576580000000  0.4884850000000  0.4558280000000 1.0
C      1  0.5667830000000  0.5158200000000  0.4475300000000 1.0
C      1  0.4844840000000  0.5526830000000  0.5659250000000 1.0
C      1  0.5114250000000  0.5450080000000  0.4563480000000 1.0
C      1  0.4849020000000  0.4460060000000  0.4350570000000 1.0
C      1  0.5459950000000  0.5477020000000  0.4650950000000 1.0
C      1  0.5537890000000  0.4570370000000  0.5469400000000 1.0
C      1  0.4634610000000  0.5436510000000  0.5490180000000 1.0
C      1  0.4571110000000  0.4502550000000  0.4653970000000 1.0
C      1  0.5483350000000  0.4454300000000  0.5408290000000 1.0
C      1  0.4608380000000  0.5404920000000  0.5354700000000 1.0
C      1  0.4520640000000  0.5358170000000  0.5454770000000 1.0
C      1  0.5498250000000  0.5364540000000  0.4571710000000 1.0
C      1  0.4604310000000  0.4637120000000  0.4625240000000 1.0
C      1  0.5425050000000  0.4506420000000  0.5526840000000 1.0
C      1  0.4649940000000  0.4535010000000  0.4539290000000 1.0
C      1  0.5361820000000  0.5389010000000  0.4600750000000 1.0
C      1  0.5415590000000  0.5461360000000  0.5345960000000 1.0
C      1  0.5458610000000  0.4659570000000  0.4567740000000 1.0
C      1  0.4504500000000  0.5577810000000  0.4386910000000 1.0
C      1  0.4575900000000  0.4548700000000  0.5364750000000 1.0
C      1  0.5359160000000  0.4615800000000  0.4657730000000 1.0
C      1  0.4416370000000  0.5599060000000  0.4494040000000 1.0
C      1  0.4397560000000  0.5489490000000  0.4408330000000 1.0
C      1  0.5382300000000  0.5323850000000  0.5352740000000 1.0
C      1  0.4532190000000  0.4659920000000  0.5443080000000 1.0
C      1  0.5345910000000  0.4585970000000  0.4519810000000 1.0
C      1  0.4668530000000  0.4646430000000  0.5406870000000 1.0
C      1  0.5340200000000  0.5410100000000  0.5456040000000 1.0
C      1  0.5044010000000  0.5389560000000  0.5699880000000 1.0
C      1  0.5432400000000  0.5708140000000  0.5074610000000 1.0
C      1  0.5503360000000  0.5009170000000  0.5288040000000 1.0
C      1  0.4990520000000  0.4694710000000  0.5517690000000 1.0
C      1  0.5059740000000  0.4566530000000  0.4286510000000 1.0
C      1  0.4942860000000  0.5393140000000  0.4396000000000 1.0
C      1  0.4592360000000  0.4298500000000  0.5073420000000 1.0
C      1  0.5303690000000  0.4491670000000  0.4973870000000 1.0
C      1  0.4602420000000  0.5599750000000  0.4931710000000 1.0
C      1  0.4289830000000  0.4932890000000  0.5454030000000 1.0
C      1  0.5707950000000  0.4949390000000  0.4595210000000 1.0
C      1  0.4407190000000  0.5057530000000  0.4606500000000 1.0
C      1  0.5040080000000  0.5357070000000  0.4482570000000 1.0
C      1  0.5433590000000  0.5710230000000  0.4949020000000 1.0
C      1  0.5715990000000  0.5073800000000  0.4579750000000 1.0
C      1  0.4934580000000  0.4557270000000  0.4292120000000 1.0
C      1  0.5093680000000  0.4658260000000  0.5596530000000 1.0
C      1  0.4921390000000  0.5416100000000  0.5706560000000 1.0
C      1  0.4574760000000  0.4289930000000  0.4949340000000 1.0
C      1  0.5334120000000  0.4406200000000  0.5073650000000 1.0
C      1  0.4639630000000  0.5515010000000  0.5030120000000 1.0
C      1  0.4493440000000  0.4961840000000  0.4647170000000 1.0
C      1  0.5589330000000  0.4909210000000  0.5319270000000 1.0
C      1  0.4287270000000  0.5058120000000  0.5444820000000 1.0
C      1  0.4801940000000  0.4679290000000  0.5424200000000 1.0
C      1  0.4413540000000  0.5629790000000  0.4627070000000 1.0
C      1  0.5578770000000  0.4719730000000  0.4539960000000 1.0
C      1  0.5279640000000  0.5434580000000  0.5576710000000 1.0
C      1  0.4638100000000  0.5580700000000  0.4358790000000 1.0
C      1  0.5288860000000  0.4522890000000  0.4412780000000 1.0
C      1  0.5325630000000  0.4593220000000  0.4790220000000 1.0
C      1  0.4543950000000  0.4430020000000  0.5303600000000 1.0
C      1  0.5481930000000  0.5568870000000  0.5293760000000 1.0
C      1  0.4370440000000  0.5355630000000  0.4408650000000 1.0
C      1  0.5402000000000  0.5192700000000  0.5312320000000 1.0
C      1  0.4429130000000  0.4716780000000  0.5512660000000 1.0
C      1  0.4713300000000  0.4491320000000  0.4425880000000 1.0
C      1  0.4634280000000  0.5424100000000  0.5220370000000 1.0
C      1  0.5621430000000  0.4676390000000  0.5464330000000 1.0
C      1  0.5228010000000  0.5363240000000  0.4578090000000 1.0
C      1  0.4704390000000  0.5502600000000  0.5587230000000 1.0
C      1  0.5324110000000  0.4510290000000  0.5616660000000 1.0
C      1  0.5478380000000  0.4368300000000  0.5304160000000 1.0
C      1  0.4503540000000  0.4406760000000  0.4724110000000 1.0
C      1  0.5497530000000  0.5590270000000  0.4718390000000 1.0
C      1  0.4407060000000  0.5292800000000  0.5494850000000 1.0
C      1  0.5598160000000  0.5297770000000  0.4506740000000 1.0
C      1  0.4585680000000  0.4772220000000  0.4647570000000 1.0
C      1  0.4437120000000  0.5637140000000  0.4746920000000 1.0
C      1  0.5701680000000  0.4712560000000  0.4495400000000 1.0
C      1  0.4881770000000  0.4784620000000  0.5479610000000 1.0
C      1  0.5216540000000  0.4542730000000  0.4868180000000 1.0
C      1  0.4495560000000  0.4308520000000  0.5310810000000 1.0
C      1  0.5554820000000  0.5677410000000  0.5304160000000 1.0
C      1  0.4366390000000  0.5236330000000  0.4435560000000 1.0
C      1  0.5463540000000  0.5121640000000  0.5204000000000 1.0
C      1  0.4323740000000  0.4711110000000  0.5590480000000 1.0
C      1  0.5287160000000  0.5472090000000  0.5701890000000 1.0
C      1  0.4758120000000  0.5557420000000  0.4353920000000 1.0
C      1  0.5294030000000  0.4452600000000  0.4302160000000 1.0
C      1  0.4731740000000  0.5489780000000  0.5138550000000 1.0
C      1  0.5723740000000  0.4754220000000  0.5480800000000 1.0
C      1  0.4711800000000  0.4427270000000  0.4311680000000 1.0
C      1  0.5488040000000  0.4262610000000  0.5229790000000 1.0
C      1  0.4426740000000  0.4300840000000  0.4732220000000 1.0
C      1  0.5555630000000  0.5707510000000  0.4721420000000 1.0
C      1  0.4289580000000  0.5292610000000  0.5552550000000 1.0
C      1  0.5707260000000  0.5292860000000  0.4434240000000 1.0
C      1  0.4518500000000  0.4855970000000  0.4742180000000 1.0
C      1  0.5147290000000  0.5264850000000  0.4512430000000 1.0
C      1  0.4712310000000  0.5577150000000  0.5694760000000 1.0
C      1  0.5253770000000  0.4494560000000  0.5724420000000 1.0
C      1  0.5437900000000  0.5011990000000  0.5512760000000 1.0
C      1  0.5079050000000  0.5596400000000  0.5612710000000 1.0
C      1  0.5631370000000  0.5595790000000  0.5077750000000 1.0
C      1  0.4404200000000  0.4942480000000  0.5650730000000 1.0
C      1  0.5611980000000  0.4930770000000  0.4390610000000 1.0
C      1  0.4477840000000  0.5030520000000  0.4385000000000 1.0
C      1  0.4969640000000  0.4466490000000  0.5462560000000 1.0
C      1  0.5076850000000  0.4369540000000  0.4402540000000 1.0
C      1  0.4963200000000  0.5616860000000  0.4462170000000 1.0
C      1  0.4392550000000  0.4403580000000  0.5093450000000 1.0
C      1  0.5535320000000  0.4531670000000  0.4955350000000 1.0
C      1  0.4379530000000  0.5531560000000  0.4953930000000 1.0
C      1  0.5616490000000  0.5064870000000  0.4376000000000 1.0
C      1  0.5071000000000  0.5582620000000  0.4542550000000 1.0
C      1  0.5631810000000  0.5600740000000  0.4942890000000 1.0
C      1  0.4558010000000  0.4924320000000  0.4424050000000 1.0
C      1  0.5526010000000  0.4908180000000  0.5539870000000 1.0
C      1  0.4398380000000  0.5077020000000  0.5641700000000 1.0
C      1  0.4942160000000  0.4362740000000  0.4406660000000 1.0
C      1  0.5079520000000  0.4437070000000  0.5541920000000 1.0
C      1  0.4946370000000  0.5621170000000  0.5614690000000 1.0
C      1  0.4375980000000  0.4398300000000  0.4959590000000 1.0
C      1  0.5558900000000  0.4446570000000  0.5062380000000 1.0
C      1  0.4414850000000  0.5453070000000  0.5062710000000 1.0
C      1  0.5543200000000  0.4987200000000  0.4278900000000 1.0
C      1  0.4274980000000  0.5481020000000  0.5032690000000 1.0
C      1  0.4481290000000  0.5020960000000  0.5743800000000 1.0
C      1  0.5667760000000  0.4523050000000  0.5013440000000 1.0
C      1  0.4283070000000  0.4476340000000  0.5037820000000 1.0
C      1  0.5729660000000  0.5518220000000  0.5007100000000 1.0
C      1  0.5025270000000  0.4332760000000  0.5462790000000 1.0
C      1  0.4531370000000  0.4950330000000  0.4283080000000 1.0
C      1  0.5452100000000  0.4961920000000  0.5646370000000 1.0
C      1  0.5034020000000  0.5715720000000  0.5548840000000 1.0
C      1  0.5040460000000  0.5722140000000  0.4513510000000 1.0
C      1  0.5017190000000  0.4270280000000  0.4486930000000 1.0
END
