TITL C-1379267-1329-282 -2.83437212292858e-06 1000000 -4286.40611307504 0 0 600 (Td) n - 1
REM
REM in /nfs/bkarasulu/CARBON/AIRSS/Generating-Clusters/GAP-ML-2020/Higher-Symm/Selected-Sizes/TryA-Only_Ih-Symm/Larger-Clusters/Try2-MINAMP_6A
REM
REM
REM
REM
REM
REM ./C.cell (31579ac4e95a012ec27f3239692ae8a5)
REM
REM compiler GCC version 9.2.1 20190827 (Red Hat 9.2.1-1)
REM options -cpp -mtune=generic -march=x86-64 -g -O0 -fpre-include=/usr/include/finclude/math-vector-fortran.h
REM seed -836827866 -861171890 1355721372 -1315181947 1413652967 1518843909 -339987715 1587707496 -660462746 -2060802001 -1041983779 -972942571 -1274083659 -1156678923 -1964042365 1240105014 395940986 490625478 855967628 2136559426 -1811361777 1741761423 -1647721793 1404523782 144332815 -1069499873 -809792853 2067555376 1689493099 -1088781580 -321133662 967996785 1218694534
REM
CELL 1.54180  100.00000  100.00000  100.00000   90.00000   90.00000   90.00000
LATT -1
SFAC C  
C      1  0.5520580000000  0.5621470000000  0.5417460000000 1.0
C      1  0.5417460000000  0.5520580000000  0.5621470000000 1.0
C      1  0.5621470000000  0.5417460000000  0.5520580000000 1.0
C      1  0.4479420000000  0.5621470000000  0.4582540000000 1.0
C      1  0.5520580000000  0.4378530000000  0.4582540000000 1.0
C      1  0.4479420000000  0.4378530000000  0.5417460000000 1.0
C      1  0.4582540000000  0.5520580000000  0.4378530000000 1.0
C      1  0.5417460000000  0.4479420000000  0.4378530000000 1.0
C      1  0.4582540000000  0.4479420000000  0.5621470000000 1.0
C      1  0.4378530000000  0.5417460000000  0.4479420000000 1.0
C      1  0.5621470000000  0.4582540000000  0.4479420000000 1.0
C      1  0.4378530000000  0.4582540000000  0.5520580000000 1.0
C      1  0.5417460000000  0.5621470000000  0.5520580000000 1.0
C      1  0.5621470000000  0.5520580000000  0.5417460000000 1.0
C      1  0.5520580000000  0.5417460000000  0.5621470000000 1.0
C      1  0.4582540000000  0.5621470000000  0.4479420000000 1.0
C      1  0.4582540000000  0.4378530000000  0.5520580000000 1.0
C      1  0.5417460000000  0.4378530000000  0.4479420000000 1.0
C      1  0.4378530000000  0.5520580000000  0.4582540000000 1.0
C      1  0.4378530000000  0.4479420000000  0.5417460000000 1.0
C      1  0.5621470000000  0.4479420000000  0.4582540000000 1.0
C      1  0.4479420000000  0.5417460000000  0.4378530000000 1.0
C      1  0.4479420000000  0.4582540000000  0.5621470000000 1.0
C      1  0.5520580000000  0.4582540000000  0.4378530000000 1.0
C      1  0.5762410000000  0.4674100000000  0.5102110000000 1.0
C      1  0.5102110000000  0.5762410000000  0.4674100000000 1.0
C      1  0.4674100000000  0.5102110000000  0.5762410000000 1.0
C      1  0.4237590000000  0.4674100000000  0.4897890000000 1.0
C      1  0.5762410000000  0.5325900000000  0.4897890000000 1.0
C      1  0.4237590000000  0.5325900000000  0.5102110000000 1.0
C      1  0.4897890000000  0.5762410000000  0.5325900000000 1.0
C      1  0.5102110000000  0.4237590000000  0.5325900000000 1.0
C      1  0.4897890000000  0.4237590000000  0.4674100000000 1.0
C      1  0.5325900000000  0.5102110000000  0.4237590000000 1.0
C      1  0.4674100000000  0.4897890000000  0.4237590000000 1.0
C      1  0.5325900000000  0.4897890000000  0.5762410000000 1.0
C      1  0.5102110000000  0.4674100000000  0.5762410000000 1.0
C      1  0.4674100000000  0.5762410000000  0.5102110000000 1.0
C      1  0.5762410000000  0.5102110000000  0.4674100000000 1.0
C      1  0.4897890000000  0.4674100000000  0.4237590000000 1.0
C      1  0.4897890000000  0.5325900000000  0.5762410000000 1.0
C      1  0.5102110000000  0.5325900000000  0.4237590000000 1.0
C      1  0.5325900000000  0.5762410000000  0.4897890000000 1.0
C      1  0.5325900000000  0.4237590000000  0.5102110000000 1.0
C      1  0.4674100000000  0.4237590000000  0.4897890000000 1.0
C      1  0.4237590000000  0.5102110000000  0.5325900000000 1.0
C      1  0.4237590000000  0.4897890000000  0.4674100000000 1.0
C      1  0.5762410000000  0.4897890000000  0.5325900000000 1.0
C      1  0.4855540000000  0.4964300000000  0.4383140000000 1.0
C      1  0.4383140000000  0.4855540000000  0.4964300000000 1.0
C      1  0.4964300000000  0.4383140000000  0.4855540000000 1.0
C      1  0.5144460000000  0.4964300000000  0.5616860000000 1.0
C      1  0.4855540000000  0.5035700000000  0.5616860000000 1.0
C      1  0.5144460000000  0.5035700000000  0.4383140000000 1.0
C      1  0.5616860000000  0.4855540000000  0.5035700000000 1.0
C      1  0.4383140000000  0.5144460000000  0.5035700000000 1.0
C      1  0.5616860000000  0.5144460000000  0.4964300000000 1.0
C      1  0.5035700000000  0.4383140000000  0.5144460000000 1.0
C      1  0.4964300000000  0.5616860000000  0.5144460000000 1.0
C      1  0.5035700000000  0.5616860000000  0.4855540000000 1.0
C      1  0.4383140000000  0.4964300000000  0.4855540000000 1.0
C      1  0.4964300000000  0.4855540000000  0.4383140000000 1.0
C      1  0.4855540000000  0.4383140000000  0.4964300000000 1.0
C      1  0.5616860000000  0.4964300000000  0.5144460000000 1.0
C      1  0.5616860000000  0.5035700000000  0.4855540000000 1.0
C      1  0.4383140000000  0.5035700000000  0.5144460000000 1.0
C      1  0.5035700000000  0.4855540000000  0.5616860000000 1.0
C      1  0.5035700000000  0.5144460000000  0.4383140000000 1.0
C      1  0.4964300000000  0.5144460000000  0.5616860000000 1.0
C      1  0.5144460000000  0.4383140000000  0.5035700000000 1.0
C      1  0.5144460000000  0.5616860000000  0.4964300000000 1.0
C      1  0.4855540000000  0.5616860000000  0.5035700000000 1.0
C      1  0.5192890000000  0.4559810000000  0.5773660000000 1.0
C      1  0.5773660000000  0.5192890000000  0.4559810000000 1.0
C      1  0.4559810000000  0.5773660000000  0.5192890000000 1.0
C      1  0.4807110000000  0.4559810000000  0.4226340000000 1.0
C      1  0.5192890000000  0.5440190000000  0.4226340000000 1.0
C      1  0.4807110000000  0.5440190000000  0.5773660000000 1.0
C      1  0.4226340000000  0.5192890000000  0.5440190000000 1.0
C      1  0.5773660000000  0.4807110000000  0.5440190000000 1.0
C      1  0.4226340000000  0.4807110000000  0.4559810000000 1.0
C      1  0.5440190000000  0.5773660000000  0.4807110000000 1.0
C      1  0.4559810000000  0.4226340000000  0.4807110000000 1.0
C      1  0.5440190000000  0.4226340000000  0.5192890000000 1.0
C      1  0.5773660000000  0.4559810000000  0.5192890000000 1.0
C      1  0.4559810000000  0.5192890000000  0.5773660000000 1.0
C      1  0.5192890000000  0.5773660000000  0.4559810000000 1.0
C      1  0.4226340000000  0.4559810000000  0.4807110000000 1.0
C      1  0.4226340000000  0.5440190000000  0.5192890000000 1.0
C      1  0.5773660000000  0.5440190000000  0.4807110000000 1.0
C      1  0.5440190000000  0.5192890000000  0.4226340000000 1.0
C      1  0.5440190000000  0.4807110000000  0.5773660000000 1.0
C      1  0.4559810000000  0.4807110000000  0.4226340000000 1.0
C      1  0.4807110000000  0.5773660000000  0.5440190000000 1.0
C      1  0.4807110000000  0.4226340000000  0.4559810000000 1.0
C      1  0.5192890000000  0.4226340000000  0.5440190000000 1.0
C      1  0.4757730000000  0.5450180000000  0.4652660000000 1.0
C      1  0.4652660000000  0.4757730000000  0.5450180000000 1.0
C      1  0.5450180000000  0.4652660000000  0.4757730000000 1.0
C      1  0.5242270000000  0.5450180000000  0.5347340000000 1.0
C      1  0.4757730000000  0.4549820000000  0.5347340000000 1.0
C      1  0.5242270000000  0.4549820000000  0.4652660000000 1.0
C      1  0.5347340000000  0.4757730000000  0.4549820000000 1.0
C      1  0.4652660000000  0.5242270000000  0.4549820000000 1.0
C      1  0.5347340000000  0.5242270000000  0.5450180000000 1.0
C      1  0.4549820000000  0.4652660000000  0.5242270000000 1.0
C      1  0.5450180000000  0.5347340000000  0.5242270000000 1.0
C      1  0.4549820000000  0.5347340000000  0.4757730000000 1.0
C      1  0.4652660000000  0.5450180000000  0.4757730000000 1.0
C      1  0.5450180000000  0.4757730000000  0.4652660000000 1.0
C      1  0.4757730000000  0.4652660000000  0.5450180000000 1.0
C      1  0.5347340000000  0.5450180000000  0.5242270000000 1.0
C      1  0.5347340000000  0.4549820000000  0.4757730000000 1.0
C      1  0.4652660000000  0.4549820000000  0.5242270000000 1.0
C      1  0.4549820000000  0.4757730000000  0.5347340000000 1.0
C      1  0.4549820000000  0.5242270000000  0.4652660000000 1.0
C      1  0.5450180000000  0.5242270000000  0.5347340000000 1.0
C      1  0.5242270000000  0.4652660000000  0.4549820000000 1.0
C      1  0.5242270000000  0.5347340000000  0.5450180000000 1.0
C      1  0.4757730000000  0.5347340000000  0.4549820000000 1.0
C      1  0.5191930000000  0.4997000000000  0.4613220000000 1.0
C      1  0.4613220000000  0.5191930000000  0.4997000000000 1.0
C      1  0.4997000000000  0.4613220000000  0.5191930000000 1.0
C      1  0.4808070000000  0.4997000000000  0.5386780000000 1.0
C      1  0.5191930000000  0.5003000000000  0.5386780000000 1.0
C      1  0.4808070000000  0.5003000000000  0.4613220000000 1.0
C      1  0.5386780000000  0.5191930000000  0.5003000000000 1.0
C      1  0.4613220000000  0.4808070000000  0.5003000000000 1.0
C      1  0.5386780000000  0.4808070000000  0.4997000000000 1.0
C      1  0.5003000000000  0.4613220000000  0.4808070000000 1.0
C      1  0.4997000000000  0.5386780000000  0.4808070000000 1.0
C      1  0.5003000000000  0.5386780000000  0.5191930000000 1.0
C      1  0.4613220000000  0.4997000000000  0.5191930000000 1.0
C      1  0.4997000000000  0.5191930000000  0.4613220000000 1.0
C      1  0.5191930000000  0.4613220000000  0.4997000000000 1.0
C      1  0.5386780000000  0.4997000000000  0.4808070000000 1.0
C      1  0.5386780000000  0.5003000000000  0.5191930000000 1.0
C      1  0.4613220000000  0.5003000000000  0.4808070000000 1.0
C      1  0.5003000000000  0.5191930000000  0.5386780000000 1.0
C      1  0.5003000000000  0.4808070000000  0.4613220000000 1.0
C      1  0.4997000000000  0.4808070000000  0.5386780000000 1.0
C      1  0.4808070000000  0.4613220000000  0.5003000000000 1.0
C      1  0.4808070000000  0.5386780000000  0.4997000000000 1.0
C      1  0.5191930000000  0.5386780000000  0.5003000000000 1.0
C      1  0.4481750000000  0.4864880000000  0.4659460000000 1.0
C      1  0.4659460000000  0.4481750000000  0.4864880000000 1.0
C      1  0.4864880000000  0.4659460000000  0.4481750000000 1.0
C      1  0.5518250000000  0.4864880000000  0.5340540000000 1.0
C      1  0.4481750000000  0.5135120000000  0.5340540000000 1.0
C      1  0.5518250000000  0.5135120000000  0.4659460000000 1.0
C      1  0.5340540000000  0.4481750000000  0.5135120000000 1.0
C      1  0.4659460000000  0.5518250000000  0.5135120000000 1.0
C      1  0.5340540000000  0.5518250000000  0.4864880000000 1.0
C      1  0.5135120000000  0.4659460000000  0.5518250000000 1.0
C      1  0.4864880000000  0.5340540000000  0.5518250000000 1.0
C      1  0.5135120000000  0.5340540000000  0.4481750000000 1.0
C      1  0.4659460000000  0.4864880000000  0.4481750000000 1.0
C      1  0.4864880000000  0.4481750000000  0.4659460000000 1.0
C      1  0.4481750000000  0.4659460000000  0.4864880000000 1.0
C      1  0.5340540000000  0.4864880000000  0.5518250000000 1.0
C      1  0.5340540000000  0.5135120000000  0.4481750000000 1.0
C      1  0.4659460000000  0.5135120000000  0.5518250000000 1.0
C      1  0.5135120000000  0.4481750000000  0.5340540000000 1.0
C      1  0.5135120000000  0.5518250000000  0.4659460000000 1.0
C      1  0.4864880000000  0.5518250000000  0.5340540000000 1.0
C      1  0.5518250000000  0.4659460000000  0.5135120000000 1.0
C      1  0.5518250000000  0.5340540000000  0.4864880000000 1.0
C      1  0.4481750000000  0.5340540000000  0.5135120000000 1.0
C      1  0.5585690000000  0.5476030000000  0.4634940000000 1.0
C      1  0.4634940000000  0.5585690000000  0.5476030000000 1.0
C      1  0.5476030000000  0.4634940000000  0.5585690000000 1.0
C      1  0.4414310000000  0.5476030000000  0.5365060000000 1.0
C      1  0.5585690000000  0.4523970000000  0.5365060000000 1.0
C      1  0.4414310000000  0.4523970000000  0.4634940000000 1.0
C      1  0.5365060000000  0.5585690000000  0.4523970000000 1.0
C      1  0.4634940000000  0.4414310000000  0.4523970000000 1.0
C      1  0.5365060000000  0.4414310000000  0.5476030000000 1.0
C      1  0.4523970000000  0.4634940000000  0.4414310000000 1.0
C      1  0.5476030000000  0.5365060000000  0.4414310000000 1.0
C      1  0.4523970000000  0.5365060000000  0.5585690000000 1.0
C      1  0.4634940000000  0.5476030000000  0.5585690000000 1.0
C      1  0.5476030000000  0.5585690000000  0.4634940000000 1.0
C      1  0.5585690000000  0.4634940000000  0.5476030000000 1.0
C      1  0.5365060000000  0.5476030000000  0.4414310000000 1.0
C      1  0.5365060000000  0.4523970000000  0.5585690000000 1.0
C      1  0.4634940000000  0.4523970000000  0.4414310000000 1.0
C      1  0.4523970000000  0.5585690000000  0.5365060000000 1.0
C      1  0.4523970000000  0.4414310000000  0.4634940000000 1.0
C      1  0.5476030000000  0.4414310000000  0.5365060000000 1.0
C      1  0.4414310000000  0.4634940000000  0.4523970000000 1.0
C      1  0.4414310000000  0.5365060000000  0.5476030000000 1.0
C      1  0.5585690000000  0.5365060000000  0.4523970000000 1.0
C      1  0.4917930000000  0.4252590000000  0.4489660000000 1.0
C      1  0.4489660000000  0.4917930000000  0.4252590000000 1.0
C      1  0.4252590000000  0.4489660000000  0.4917930000000 1.0
C      1  0.5082070000000  0.4252590000000  0.5510340000000 1.0
C      1  0.4917930000000  0.5747410000000  0.5510340000000 1.0
C      1  0.5082070000000  0.5747410000000  0.4489660000000 1.0
C      1  0.5510340000000  0.4917930000000  0.5747410000000 1.0
C      1  0.4489660000000  0.5082070000000  0.5747410000000 1.0
C      1  0.5510340000000  0.5082070000000  0.4252590000000 1.0
C      1  0.5747410000000  0.4489660000000  0.5082070000000 1.0
C      1  0.4252590000000  0.5510340000000  0.5082070000000 1.0
C      1  0.5747410000000  0.5510340000000  0.4917930000000 1.0
C      1  0.4489660000000  0.4252590000000  0.4917930000000 1.0
C      1  0.4252590000000  0.4917930000000  0.4489660000000 1.0
C      1  0.4917930000000  0.4489660000000  0.4252590000000 1.0
C      1  0.5510340000000  0.4252590000000  0.5082070000000 1.0
C      1  0.5510340000000  0.5747410000000  0.4917930000000 1.0
C      1  0.4489660000000  0.5747410000000  0.5082070000000 1.0
C      1  0.5747410000000  0.4917930000000  0.5510340000000 1.0
C      1  0.5747410000000  0.5082070000000  0.4489660000000 1.0
C      1  0.4252590000000  0.5082070000000  0.5510340000000 1.0
C      1  0.5082070000000  0.4489660000000  0.5747410000000 1.0
C      1  0.5082070000000  0.5510340000000  0.4252590000000 1.0
C      1  0.4917930000000  0.5510340000000  0.5747410000000 1.0
C      1  0.5000800000000  0.5103380000000  0.4239630000000 1.0
C      1  0.4239630000000  0.5000800000000  0.5103380000000 1.0
C      1  0.5103380000000  0.4239630000000  0.5000800000000 1.0
C      1  0.4999200000000  0.5103380000000  0.5760370000000 1.0
C      1  0.5000800000000  0.4896620000000  0.5760370000000 1.0
C      1  0.4999200000000  0.4896620000000  0.4239630000000 1.0
C      1  0.5760370000000  0.5000800000000  0.4896620000000 1.0
C      1  0.4239630000000  0.4999200000000  0.4896620000000 1.0
C      1  0.5760370000000  0.4999200000000  0.5103380000000 1.0
C      1  0.4896620000000  0.4239630000000  0.4999200000000 1.0
C      1  0.5103380000000  0.5760370000000  0.4999200000000 1.0
C      1  0.4896620000000  0.5760370000000  0.5000800000000 1.0
C      1  0.4239630000000  0.5103380000000  0.5000800000000 1.0
C      1  0.5103380000000  0.5000800000000  0.4239630000000 1.0
C      1  0.5000800000000  0.4239630000000  0.5103380000000 1.0
C      1  0.5760370000000  0.5103380000000  0.4999200000000 1.0
C      1  0.5760370000000  0.4896620000000  0.5000800000000 1.0
C      1  0.4239630000000  0.4896620000000  0.4999200000000 1.0
C      1  0.4896620000000  0.5000800000000  0.5760370000000 1.0
C      1  0.4896620000000  0.4999200000000  0.4239630000000 1.0
C      1  0.5103380000000  0.4999200000000  0.5760370000000 1.0
C      1  0.4999200000000  0.4239630000000  0.4896620000000 1.0
C      1  0.4999200000000  0.5760370000000  0.5103380000000 1.0
C      1  0.5000800000000  0.5760370000000  0.4896620000000 1.0
C      1  0.4482850000000  0.4930200000000  0.5177650000000 1.0
C      1  0.5177650000000  0.4482850000000  0.4930200000000 1.0
C      1  0.4930200000000  0.5177650000000  0.4482850000000 1.0
C      1  0.5517150000000  0.4930200000000  0.4822350000000 1.0
C      1  0.4482850000000  0.5069800000000  0.4822350000000 1.0
C      1  0.5517150000000  0.5069800000000  0.5177650000000 1.0
C      1  0.4822350000000  0.4482850000000  0.5069800000000 1.0
C      1  0.5177650000000  0.5517150000000  0.5069800000000 1.0
C      1  0.4822350000000  0.5517150000000  0.4930200000000 1.0
C      1  0.5069800000000  0.5177650000000  0.5517150000000 1.0
C      1  0.4930200000000  0.4822350000000  0.5517150000000 1.0
C      1  0.5069800000000  0.4822350000000  0.4482850000000 1.0
C      1  0.5177650000000  0.4930200000000  0.4482850000000 1.0
C      1  0.4930200000000  0.4482850000000  0.5177650000000 1.0
C      1  0.4482850000000  0.5177650000000  0.4930200000000 1.0
C      1  0.4822350000000  0.4930200000000  0.5517150000000 1.0
C      1  0.4822350000000  0.5069800000000  0.4482850000000 1.0
C      1  0.5177650000000  0.5069800000000  0.5517150000000 1.0
C      1  0.5069800000000  0.4482850000000  0.4822350000000 1.0
C      1  0.5069800000000  0.5517150000000  0.5177650000000 1.0
C      1  0.4930200000000  0.5517150000000  0.4822350000000 1.0
C      1  0.5517150000000  0.5177650000000  0.5069800000000 1.0
C      1  0.5517150000000  0.4822350000000  0.4930200000000 1.0
C      1  0.4482850000000  0.4822350000000  0.5069800000000 1.0
C      1  0.4855530000000  0.5709330000000  0.4667650000000 1.0
C      1  0.4667650000000  0.4855530000000  0.5709330000000 1.0
C      1  0.5709330000000  0.4667650000000  0.4855530000000 1.0
C      1  0.5144470000000  0.5709330000000  0.5332350000000 1.0
C      1  0.4855530000000  0.4290670000000  0.5332350000000 1.0
C      1  0.5144470000000  0.4290670000000  0.4667650000000 1.0
C      1  0.5332350000000  0.4855530000000  0.4290670000000 1.0
C      1  0.4667650000000  0.5144470000000  0.4290670000000 1.0
C      1  0.5332350000000  0.5144470000000  0.5709330000000 1.0
C      1  0.4290670000000  0.4667650000000  0.5144470000000 1.0
C      1  0.5709330000000  0.5332350000000  0.5144470000000 1.0
C      1  0.4290670000000  0.5332350000000  0.4855530000000 1.0
C      1  0.4667650000000  0.5709330000000  0.4855530000000 1.0
C      1  0.5709330000000  0.4855530000000  0.4667650000000 1.0
C      1  0.4855530000000  0.4667650000000  0.5709330000000 1.0
C      1  0.5332350000000  0.5709330000000  0.5144470000000 1.0
C      1  0.5332350000000  0.4290670000000  0.4855530000000 1.0
C      1  0.4667650000000  0.4290670000000  0.5144470000000 1.0
C      1  0.4290670000000  0.4855530000000  0.5332350000000 1.0
C      1  0.4290670000000  0.5144470000000  0.4667650000000 1.0
C      1  0.5709330000000  0.5144470000000  0.5332350000000 1.0
C      1  0.5144470000000  0.4667650000000  0.4290670000000 1.0
C      1  0.5144470000000  0.5332350000000  0.5709330000000 1.0
C      1  0.4855530000000  0.5332350000000  0.4290670000000 1.0
C      1  0.5170670000000  0.5268160000000  0.5072420000000 1.0
C      1  0.5072420000000  0.5170670000000  0.5268160000000 1.0
C      1  0.5268160000000  0.5072420000000  0.5170670000000 1.0
C      1  0.4829330000000  0.5268160000000  0.4927580000000 1.0
C      1  0.5170670000000  0.4731840000000  0.4927580000000 1.0
C      1  0.4829330000000  0.4731840000000  0.5072420000000 1.0
C      1  0.4927580000000  0.5170670000000  0.4731840000000 1.0
C      1  0.5072420000000  0.4829330000000  0.4731840000000 1.0
C      1  0.4927580000000  0.4829330000000  0.5268160000000 1.0
C      1  0.4731840000000  0.5072420000000  0.4829330000000 1.0
C      1  0.5268160000000  0.4927580000000  0.4829330000000 1.0
C      1  0.4731840000000  0.4927580000000  0.5170670000000 1.0
C      1  0.5072420000000  0.5268160000000  0.5170670000000 1.0
C      1  0.5268160000000  0.5170670000000  0.5072420000000 1.0
C      1  0.5170670000000  0.5072420000000  0.5268160000000 1.0
C      1  0.4927580000000  0.5268160000000  0.4829330000000 1.0
C      1  0.4927580000000  0.4731840000000  0.5170670000000 1.0
C      1  0.5072420000000  0.4731840000000  0.4829330000000 1.0
C      1  0.4731840000000  0.5170670000000  0.4927580000000 1.0
C      1  0.4731840000000  0.4829330000000  0.5072420000000 1.0
C      1  0.5268160000000  0.4829330000000  0.4927580000000 1.0
C      1  0.4829330000000  0.5072420000000  0.4731840000000 1.0
C      1  0.4829330000000  0.4927580000000  0.5268160000000 1.0
C      1  0.5170670000000  0.4927580000000  0.4731840000000 1.0
C      1  0.5387090000000  0.4711950000000  0.5097430000000 1.0
C      1  0.5097430000000  0.5387090000000  0.4711950000000 1.0
C      1  0.4711950000000  0.5097430000000  0.5387090000000 1.0
C      1  0.4612910000000  0.4711950000000  0.4902570000000 1.0
C      1  0.5387090000000  0.5288050000000  0.4902570000000 1.0
C      1  0.4612910000000  0.5288050000000  0.5097430000000 1.0
C      1  0.4902570000000  0.5387090000000  0.5288050000000 1.0
C      1  0.5097430000000  0.4612910000000  0.5288050000000 1.0
C      1  0.4902570000000  0.4612910000000  0.4711950000000 1.0
C      1  0.5288050000000  0.5097430000000  0.4612910000000 1.0
C      1  0.4711950000000  0.4902570000000  0.4612910000000 1.0
C      1  0.5288050000000  0.4902570000000  0.5387090000000 1.0
C      1  0.5097430000000  0.4711950000000  0.5387090000000 1.0
C      1  0.4711950000000  0.5387090000000  0.5097430000000 1.0
C      1  0.5387090000000  0.5097430000000  0.4711950000000 1.0
C      1  0.4902570000000  0.4711950000000  0.4612910000000 1.0
C      1  0.4902570000000  0.5288050000000  0.5387090000000 1.0
C      1  0.5097430000000  0.5288050000000  0.4612910000000 1.0
C      1  0.5288050000000  0.5387090000000  0.4902570000000 1.0
C      1  0.5288050000000  0.4612910000000  0.5097430000000 1.0
C      1  0.4711950000000  0.4612910000000  0.4902570000000 1.0
C      1  0.4612910000000  0.5097430000000  0.5288050000000 1.0
C      1  0.4612910000000  0.4902570000000  0.4711950000000 1.0
C      1  0.5387090000000  0.4902570000000  0.5288050000000 1.0
C      1  0.5502010000000  0.5295160000000  0.5695240000000 1.0
C      1  0.5695240000000  0.5502010000000  0.5295160000000 1.0
C      1  0.5295160000000  0.5695240000000  0.5502010000000 1.0
C      1  0.4497990000000  0.5295160000000  0.4304760000000 1.0
C      1  0.5502010000000  0.4704840000000  0.4304760000000 1.0
C      1  0.4497990000000  0.4704840000000  0.5695240000000 1.0
C      1  0.4304760000000  0.5502010000000  0.4704840000000 1.0
C      1  0.5695240000000  0.4497990000000  0.4704840000000 1.0
C      1  0.4304760000000  0.4497990000000  0.5295160000000 1.0
C      1  0.4704840000000  0.5695240000000  0.4497990000000 1.0
C      1  0.5295160000000  0.4304760000000  0.4497990000000 1.0
C      1  0.4704840000000  0.4304760000000  0.5502010000000 1.0
C      1  0.5695240000000  0.5295160000000  0.5502010000000 1.0
C      1  0.5295160000000  0.5502010000000  0.5695240000000 1.0
C      1  0.5502010000000  0.5695240000000  0.5295160000000 1.0
C      1  0.4304760000000  0.5295160000000  0.4497990000000 1.0
C      1  0.4304760000000  0.4704840000000  0.5502010000000 1.0
C      1  0.5695240000000  0.4704840000000  0.4497990000000 1.0
C      1  0.4704840000000  0.5502010000000  0.4304760000000 1.0
C      1  0.4704840000000  0.4497990000000  0.5695240000000 1.0
C      1  0.5295160000000  0.4497990000000  0.4304760000000 1.0
C      1  0.4497990000000  0.5695240000000  0.4704840000000 1.0
C      1  0.4497990000000  0.4304760000000  0.5295160000000 1.0
C      1  0.5502010000000  0.4304760000000  0.4704840000000 1.0
C      1  0.5171140000000  0.4332510000000  0.4430330000000 1.0
C      1  0.4430330000000  0.5171140000000  0.4332510000000 1.0
C      1  0.4332510000000  0.4430330000000  0.5171140000000 1.0
C      1  0.4828860000000  0.4332510000000  0.5569670000000 1.0
C      1  0.5171140000000  0.5667490000000  0.5569670000000 1.0
C      1  0.4828860000000  0.5667490000000  0.4430330000000 1.0
C      1  0.5569670000000  0.5171140000000  0.5667490000000 1.0
C      1  0.4430330000000  0.4828860000000  0.5667490000000 1.0
C      1  0.5569670000000  0.4828860000000  0.4332510000000 1.0
C      1  0.5667490000000  0.4430330000000  0.4828860000000 1.0
C      1  0.4332510000000  0.5569670000000  0.4828860000000 1.0
C      1  0.5667490000000  0.5569670000000  0.5171140000000 1.0
C      1  0.4430330000000  0.4332510000000  0.5171140000000 1.0
C      1  0.4332510000000  0.5171140000000  0.4430330000000 1.0
C      1  0.5171140000000  0.4430330000000  0.4332510000000 1.0
C      1  0.5569670000000  0.4332510000000  0.4828860000000 1.0
C      1  0.5569670000000  0.5667490000000  0.5171140000000 1.0
C      1  0.4430330000000  0.5667490000000  0.4828860000000 1.0
C      1  0.5667490000000  0.5171140000000  0.5569670000000 1.0
C      1  0.5667490000000  0.4828860000000  0.4430330000000 1.0
C      1  0.4332510000000  0.4828860000000  0.5569670000000 1.0
C      1  0.4828860000000  0.4430330000000  0.5667490000000 1.0
C      1  0.4828860000000  0.5569670000000  0.4332510000000 1.0
C      1  0.5171140000000  0.5569670000000  0.5667490000000 1.0
C      1  0.5299470000000  0.4960700000000  0.4199200000000 1.0
C      1  0.4199200000000  0.5299470000000  0.4960700000000 1.0
C      1  0.4960700000000  0.4199200000000  0.5299470000000 1.0
C      1  0.4700530000000  0.4960700000000  0.5800800000000 1.0
C      1  0.5299470000000  0.5039300000000  0.5800800000000 1.0
C      1  0.4700530000000  0.5039300000000  0.4199200000000 1.0
C      1  0.5800800000000  0.5299470000000  0.5039300000000 1.0
C      1  0.4199200000000  0.4700530000000  0.5039300000000 1.0
C      1  0.5800800000000  0.4700530000000  0.4960700000000 1.0
C      1  0.5039300000000  0.4199200000000  0.4700530000000 1.0
C      1  0.4960700000000  0.5800800000000  0.4700530000000 1.0
C      1  0.5039300000000  0.5800800000000  0.5299470000000 1.0
C      1  0.4199200000000  0.4960700000000  0.5299470000000 1.0
C      1  0.4960700000000  0.5299470000000  0.4199200000000 1.0
C      1  0.5299470000000  0.4199200000000  0.4960700000000 1.0
C      1  0.5800800000000  0.4960700000000  0.4700530000000 1.0
C      1  0.5800800000000  0.5039300000000  0.5299470000000 1.0
C      1  0.4199200000000  0.5039300000000  0.4700530000000 1.0
C      1  0.5039300000000  0.5299470000000  0.5800800000000 1.0
C      1  0.5039300000000  0.4700530000000  0.4199200000000 1.0
C      1  0.4960700000000  0.4700530000000  0.5800800000000 1.0
C      1  0.4700530000000  0.4199200000000  0.5039300000000 1.0
C      1  0.4700530000000  0.5800800000000  0.4960700000000 1.0
C      1  0.5299470000000  0.5800800000000  0.5039300000000 1.0
C      1  0.4677300000000  0.5120660000000  0.4448500000000 1.0
C      1  0.4448500000000  0.4677300000000  0.5120660000000 1.0
C      1  0.5120660000000  0.4448500000000  0.4677300000000 1.0
C      1  0.5322700000000  0.5120660000000  0.5551500000000 1.0
C      1  0.4677300000000  0.4879340000000  0.5551500000000 1.0
C      1  0.5322700000000  0.4879340000000  0.4448500000000 1.0
C      1  0.5551500000000  0.4677300000000  0.4879340000000 1.0
C      1  0.4448500000000  0.5322700000000  0.4879340000000 1.0
C      1  0.5551500000000  0.5322700000000  0.5120660000000 1.0
C      1  0.4879340000000  0.4448500000000  0.5322700000000 1.0
C      1  0.5120660000000  0.5551500000000  0.5322700000000 1.0
C      1  0.4879340000000  0.5551500000000  0.4677300000000 1.0
C      1  0.4448500000000  0.5120660000000  0.4677300000000 1.0
C      1  0.5120660000000  0.4677300000000  0.4448500000000 1.0
C      1  0.4677300000000  0.4448500000000  0.5120660000000 1.0
C      1  0.5551500000000  0.5120660000000  0.5322700000000 1.0
C      1  0.5551500000000  0.4879340000000  0.4677300000000 1.0
C      1  0.4448500000000  0.4879340000000  0.5322700000000 1.0
C      1  0.4879340000000  0.4677300000000  0.5551500000000 1.0
C      1  0.4879340000000  0.5322700000000  0.4448500000000 1.0
C      1  0.5120660000000  0.5322700000000  0.5551500000000 1.0
C      1  0.5322700000000  0.4448500000000  0.4879340000000 1.0
C      1  0.5322700000000  0.5551500000000  0.5120660000000 1.0
C      1  0.4677300000000  0.5551500000000  0.4879340000000 1.0
C      1  0.5636910000000  0.5138200000000  0.4749570000000 1.0
C      1  0.4749570000000  0.5636910000000  0.5138200000000 1.0
C      1  0.5138200000000  0.4749570000000  0.5636910000000 1.0
C      1  0.4363090000000  0.5138200000000  0.5250430000000 1.0
C      1  0.5636910000000  0.4861800000000  0.5250430000000 1.0
C      1  0.4363090000000  0.4861800000000  0.4749570000000 1.0
C      1  0.5250430000000  0.5636910000000  0.4861800000000 1.0
C      1  0.4749570000000  0.4363090000000  0.4861800000000 1.0
C      1  0.5250430000000  0.4363090000000  0.5138200000000 1.0
C      1  0.4861800000000  0.4749570000000  0.4363090000000 1.0
C      1  0.5138200000000  0.5250430000000  0.4363090000000 1.0
C      1  0.4861800000000  0.5250430000000  0.5636910000000 1.0
C      1  0.4749570000000  0.5138200000000  0.5636910000000 1.0
C      1  0.5138200000000  0.5636910000000  0.4749570000000 1.0
C      1  0.5636910000000  0.4749570000000  0.5138200000000 1.0
C      1  0.5250430000000  0.5138200000000  0.4363090000000 1.0
C      1  0.5250430000000  0.4861800000000  0.5636910000000 1.0
C      1  0.4749570000000  0.4861800000000  0.4363090000000 1.0
C      1  0.4861800000000  0.5636910000000  0.5250430000000 1.0
C      1  0.4861800000000  0.4363090000000  0.4749570000000 1.0
C      1  0.5138200000000  0.4363090000000  0.5250430000000 1.0
C      1  0.4363090000000  0.4749570000000  0.4861800000000 1.0
C      1  0.4363090000000  0.5250430000000  0.5138200000000 1.0
C      1  0.5636910000000  0.5250430000000  0.4861800000000 1.0
C      1  0.4926110000000  0.5861470000000  0.4822540000000 1.0
C      1  0.4822540000000  0.4926110000000  0.5861470000000 1.0
C      1  0.5861470000000  0.4822540000000  0.4926110000000 1.0
C      1  0.5073890000000  0.5861470000000  0.5177460000000 1.0
C      1  0.4926110000000  0.4138530000000  0.5177460000000 1.0
C      1  0.5073890000000  0.4138530000000  0.4822540000000 1.0
C      1  0.5177460000000  0.4926110000000  0.4138530000000 1.0
C      1  0.4822540000000  0.5073890000000  0.4138530000000 1.0
C      1  0.5177460000000  0.5073890000000  0.5861470000000 1.0
C      1  0.4138530000000  0.4822540000000  0.5073890000000 1.0
C      1  0.5861470000000  0.5177460000000  0.5073890000000 1.0
C      1  0.4138530000000  0.5177460000000  0.4926110000000 1.0
C      1  0.4822540000000  0.5861470000000  0.4926110000000 1.0
C      1  0.5861470000000  0.4926110000000  0.4822540000000 1.0
C      1  0.4926110000000  0.4822540000000  0.5861470000000 1.0
C      1  0.5177460000000  0.5861470000000  0.5073890000000 1.0
C      1  0.5177460000000  0.4138530000000  0.4926110000000 1.0
C      1  0.4822540000000  0.4138530000000  0.5073890000000 1.0
C      1  0.4138530000000  0.4926110000000  0.5177460000000 1.0
C      1  0.4138530000000  0.5073890000000  0.4822540000000 1.0
C      1  0.5861470000000  0.5073890000000  0.5177460000000 1.0
C      1  0.5073890000000  0.4822540000000  0.4138530000000 1.0
C      1  0.5073890000000  0.5177460000000  0.5861470000000 1.0
C      1  0.4926110000000  0.5177460000000  0.4138530000000 1.0
C      1  0.5533470000000  0.5001820000000  0.5424550000000 1.0
C      1  0.5424550000000  0.5533470000000  0.5001820000000 1.0
C      1  0.5001820000000  0.5424550000000  0.5533470000000 1.0
C      1  0.4466530000000  0.5001820000000  0.4575450000000 1.0
C      1  0.5533470000000  0.4998180000000  0.4575450000000 1.0
C      1  0.4466530000000  0.4998180000000  0.5424550000000 1.0
C      1  0.4575450000000  0.5533470000000  0.4998180000000 1.0
C      1  0.5424550000000  0.4466530000000  0.4998180000000 1.0
C      1  0.4575450000000  0.4466530000000  0.5001820000000 1.0
C      1  0.4998180000000  0.5424550000000  0.4466530000000 1.0
C      1  0.5001820000000  0.4575450000000  0.4466530000000 1.0
C      1  0.4998180000000  0.4575450000000  0.5533470000000 1.0
C      1  0.5424550000000  0.5001820000000  0.5533470000000 1.0
C      1  0.5001820000000  0.5533470000000  0.5424550000000 1.0
C      1  0.5533470000000  0.5424550000000  0.5001820000000 1.0
C      1  0.4575450000000  0.5001820000000  0.4466530000000 1.0
C      1  0.4575450000000  0.4998180000000  0.5533470000000 1.0
C      1  0.5424550000000  0.4998180000000  0.4466530000000 1.0
C      1  0.4998180000000  0.5533470000000  0.4575450000000 1.0
C      1  0.4998180000000  0.4466530000000  0.5424550000000 1.0
C      1  0.5001820000000  0.4466530000000  0.4575450000000 1.0
C      1  0.4466530000000  0.5424550000000  0.4998180000000 1.0
C      1  0.4466530000000  0.4575450000000  0.5001820000000 1.0
C      1  0.5533470000000  0.4575450000000  0.4998180000000 1.0
C      1  0.4724790000000  0.5490130000000  0.5386110000000 1.0
C      1  0.5386110000000  0.4724790000000  0.5490130000000 1.0
C      1  0.5490130000000  0.5386110000000  0.4724790000000 1.0
C      1  0.5275210000000  0.5490130000000  0.4613890000000 1.0
C      1  0.4724790000000  0.4509870000000  0.4613890000000 1.0
C      1  0.5275210000000  0.4509870000000  0.5386110000000 1.0
C      1  0.4613890000000  0.4724790000000  0.4509870000000 1.0
C      1  0.5386110000000  0.5275210000000  0.4509870000000 1.0
C      1  0.4613890000000  0.5275210000000  0.5490130000000 1.0
C      1  0.4509870000000  0.5386110000000  0.5275210000000 1.0
C      1  0.5490130000000  0.4613890000000  0.5275210000000 1.0
C      1  0.4509870000000  0.4613890000000  0.4724790000000 1.0
C      1  0.5386110000000  0.5490130000000  0.4724790000000 1.0
C      1  0.5490130000000  0.4724790000000  0.5386110000000 1.0
C      1  0.4724790000000  0.5386110000000  0.5490130000000 1.0
C      1  0.4613890000000  0.5490130000000  0.5275210000000 1.0
C      1  0.4613890000000  0.4509870000000  0.4724790000000 1.0
C      1  0.5386110000000  0.4509870000000  0.5275210000000 1.0
C      1  0.4509870000000  0.4724790000000  0.4613890000000 1.0
C      1  0.4509870000000  0.5275210000000  0.5386110000000 1.0
C      1  0.5490130000000  0.5275210000000  0.4613890000000 1.0
C      1  0.5275210000000  0.5386110000000  0.4509870000000 1.0
C      1  0.5275210000000  0.4613890000000  0.5490130000000 1.0
C      1  0.4724790000000  0.4613890000000  0.4509870000000 1.0
C      1  0.4668740000000  0.4274810000000  0.4564790000000 1.0
C      1  0.4564790000000  0.4668740000000  0.4274810000000 1.0
C      1  0.4274810000000  0.4564790000000  0.4668740000000 1.0
C      1  0.5331260000000  0.4274810000000  0.5435210000000 1.0
C      1  0.4668740000000  0.5725190000000  0.5435210000000 1.0
C      1  0.5331260000000  0.5725190000000  0.4564790000000 1.0
C      1  0.5435210000000  0.4668740000000  0.5725190000000 1.0
C      1  0.4564790000000  0.5331260000000  0.5725190000000 1.0
C      1  0.5435210000000  0.5331260000000  0.4274810000000 1.0
C      1  0.5725190000000  0.4564790000000  0.5331260000000 1.0
C      1  0.4274810000000  0.5435210000000  0.5331260000000 1.0
C      1  0.5725190000000  0.5435210000000  0.4668740000000 1.0
C      1  0.4564790000000  0.4274810000000  0.4668740000000 1.0
C      1  0.4274810000000  0.4668740000000  0.4564790000000 1.0
C      1  0.4668740000000  0.4564790000000  0.4274810000000 1.0
C      1  0.5435210000000  0.4274810000000  0.5331260000000 1.0
C      1  0.5435210000000  0.5725190000000  0.4668740000000 1.0
C      1  0.4564790000000  0.5725190000000  0.5331260000000 1.0
C      1  0.5725190000000  0.4668740000000  0.5435210000000 1.0
C      1  0.5725190000000  0.5331260000000  0.4564790000000 1.0
C      1  0.4274810000000  0.5331260000000  0.5435210000000 1.0
C      1  0.5331260000000  0.4564790000000  0.5725190000000 1.0
C      1  0.5331260000000  0.5435210000000  0.4274810000000 1.0
C      1  0.4668740000000  0.5435210000000  0.5725190000000 1.0
C      1  0.4724950000000  0.5374480000000  0.4251370000000 1.0
C      1  0.4251370000000  0.4724950000000  0.5374480000000 1.0
C      1  0.5374480000000  0.4251370000000  0.4724950000000 1.0
C      1  0.5275050000000  0.5374480000000  0.5748630000000 1.0
C      1  0.4724950000000  0.4625520000000  0.5748630000000 1.0
C      1  0.5275050000000  0.4625520000000  0.4251370000000 1.0
C      1  0.5748630000000  0.4724950000000  0.4625520000000 1.0
C      1  0.4251370000000  0.5275050000000  0.4625520000000 1.0
C      1  0.5748630000000  0.5275050000000  0.5374480000000 1.0
C      1  0.4625520000000  0.4251370000000  0.5275050000000 1.0
C      1  0.5374480000000  0.5748630000000  0.5275050000000 1.0
C      1  0.4625520000000  0.5748630000000  0.4724950000000 1.0
C      1  0.4251370000000  0.5374480000000  0.4724950000000 1.0
C      1  0.5374480000000  0.4724950000000  0.4251370000000 1.0
C      1  0.4724950000000  0.4251370000000  0.5374480000000 1.0
C      1  0.5748630000000  0.5374480000000  0.5275050000000 1.0
C      1  0.5748630000000  0.4625520000000  0.4724950000000 1.0
C      1  0.4251370000000  0.4625520000000  0.5275050000000 1.0
C      1  0.4625520000000  0.4724950000000  0.5748630000000 1.0
C      1  0.4625520000000  0.5275050000000  0.4251370000000 1.0
C      1  0.5374480000000  0.5275050000000  0.5748630000000 1.0
C      1  0.5275050000000  0.4251370000000  0.4625520000000 1.0
C      1  0.5275050000000  0.5748630000000  0.5374480000000 1.0
C      1  0.4724950000000  0.5748630000000  0.4625520000000 1.0
C      1  0.5649060000000  0.5536360000000  0.5017150000000 1.0
C      1  0.5017150000000  0.5649060000000  0.5536360000000 1.0
C      1  0.5536360000000  0.5017150000000  0.5649060000000 1.0
C      1  0.4350940000000  0.5536360000000  0.4982850000000 1.0
C      1  0.5649060000000  0.4463640000000  0.4982850000000 1.0
C      1  0.4350940000000  0.4463640000000  0.5017150000000 1.0
C      1  0.4982850000000  0.5649060000000  0.4463640000000 1.0
C      1  0.5017150000000  0.4350940000000  0.4463640000000 1.0
C      1  0.4982850000000  0.4350940000000  0.5536360000000 1.0
C      1  0.4463640000000  0.5017150000000  0.4350940000000 1.0
C      1  0.5536360000000  0.4982850000000  0.4350940000000 1.0
C      1  0.4463640000000  0.4982850000000  0.5649060000000 1.0
C      1  0.5017150000000  0.5536360000000  0.5649060000000 1.0
C      1  0.5536360000000  0.5649060000000  0.5017150000000 1.0
C      1  0.5649060000000  0.5017150000000  0.5536360000000 1.0
C      1  0.4982850000000  0.5536360000000  0.4350940000000 1.0
C      1  0.4982850000000  0.4463640000000  0.5649060000000 1.0
C      1  0.5017150000000  0.4463640000000  0.4350940000000 1.0
C      1  0.4463640000000  0.5649060000000  0.4982850000000 1.0
C      1  0.4463640000000  0.4350940000000  0.5017150000000 1.0
C      1  0.5536360000000  0.4350940000000  0.4982850000000 1.0
C      1  0.4350940000000  0.5017150000000  0.4463640000000 1.0
C      1  0.4350940000000  0.4982850000000  0.5536360000000 1.0
C      1  0.5649060000000  0.4982850000000  0.4463640000000 1.0
END
