TITL C-1379265-1223-476 -1.62950110928929e-07 1000000 -2827.95060057686 0 0 400 (D2d) n - 1
REM
REM in /nfs/bkarasulu/CARBON/AIRSS/Generating-Clusters/GAP-ML-2020/Higher-Symm/Selected-Sizes/TryA-Only_Ih-Symm/Larger-Clusters/Try2-MINAMP_6A
REM
REM
REM
REM
REM
REM ./C.cell (31579ac4e95a012ec27f3239692ae8a5)
REM
REM compiler GCC version 9.2.1 20190827 (Red Hat 9.2.1-1)
REM options -cpp -mtune=generic -march=x86-64 -g -O0 -fpre-include=/usr/include/finclude/math-vector-fortran.h
REM seed -872866494 964773021 -1482446904 1270283031 -846496690 642411630 -2032325875 -1937606829 -1156355513 1635414250 1733614456 2033037379 -461755478 510487056 -1114416979 -63138459 190263893 487552380 -1975504219 1609162029 -1160608170 -632954923 1689588546 464874324 -1068783503 -1465993667 -1848026113 1376203511 1889187342 -274250035 -242084424 1169724040 -1088632269
REM
CELL 1.54180  100.00000  100.00000  100.00000   90.00000   90.00000   90.00000
LATT -1
SFAC C  
C      1  0.4850510000000  0.5537520000000  0.4748030000000 1.0
C      1  0.5540560000000  0.4749860000000  0.4846730000000 1.0
C      1  0.4748930000000  0.4846800000000  0.5543300000000 1.0
C      1  0.5148250000000  0.4458400000000  0.4748030000000 1.0
C      1  0.4850510000000  0.4458400000000  0.5246650000000 1.0
C      1  0.5148250000000  0.5537520000000  0.5246650000000 1.0
C      1  0.4458200000000  0.5246050000000  0.4846730000000 1.0
C      1  0.5540560000000  0.5246050000000  0.5147950000000 1.0
C      1  0.4458200000000  0.4749860000000  0.5147950000000 1.0
C      1  0.5249830000000  0.5149120000000  0.5543300000000 1.0
C      1  0.4748930000000  0.5149120000000  0.4451380000000 1.0
C      1  0.5249830000000  0.4846800000000  0.4451380000000 1.0
C      1  0.5538940000000  0.4849090000000  0.4748030000000 1.0
C      1  0.4751280000000  0.5539140000000  0.4846730000000 1.0
C      1  0.4848220000000  0.4747510000000  0.5543300000000 1.0
C      1  0.4459820000000  0.5146830000000  0.4748030000000 1.0
C      1  0.4459820000000  0.4849090000000  0.5246650000000 1.0
C      1  0.5538940000000  0.5146830000000  0.5246650000000 1.0
C      1  0.5247470000000  0.4456780000000  0.4846730000000 1.0
C      1  0.5247470000000  0.5539140000000  0.5147950000000 1.0
C      1  0.4751280000000  0.4456780000000  0.5147950000000 1.0
C      1  0.5150540000000  0.5248410000000  0.5543300000000 1.0
C      1  0.5150540000000  0.4747510000000  0.4451380000000 1.0
C      1  0.4848220000000  0.5248410000000  0.4451380000000 1.0
C      1  0.4546810000000  0.5353220000000  0.4814060000000 1.0
C      1  0.5358030000000  0.4814920000000  0.4538430000000 1.0
C      1  0.4812950000000  0.4547220000000  0.5353520000000 1.0
C      1  0.5451950000000  0.4642700000000  0.4814060000000 1.0
C      1  0.4546810000000  0.4642700000000  0.5180620000000 1.0
C      1  0.5451950000000  0.5353220000000  0.5180620000000 1.0
C      1  0.4640730000000  0.5181000000000  0.4538430000000 1.0
C      1  0.5358030000000  0.5180990000000  0.5456250000000 1.0
C      1  0.4640730000000  0.4814920000000  0.5456250000000 1.0
C      1  0.5185810000000  0.5448700000000  0.5353520000000 1.0
C      1  0.4812950000000  0.5448700000000  0.4641160000000 1.0
C      1  0.5185810000000  0.4547220000000  0.4641160000000 1.0
C      1  0.5354640000000  0.4545390000000  0.4814060000000 1.0
C      1  0.4816340000000  0.5356610000000  0.4538430000000 1.0
C      1  0.4548640000000  0.4811530000000  0.5353520000000 1.0
C      1  0.4644120000000  0.5450530000000  0.4814060000000 1.0
C      1  0.4644120000000  0.4545390000000  0.5180620000000 1.0
C      1  0.5354640000000  0.5450530000000  0.5180620000000 1.0
C      1  0.5182420000000  0.4639310000000  0.4538430000000 1.0
C      1  0.5182410000000  0.5356610000000  0.5456250000000 1.0
C      1  0.4816340000000  0.4639310000000  0.5456250000000 1.0
C      1  0.5450120000000  0.5184390000000  0.5353520000000 1.0
C      1  0.5450120000000  0.4811530000000  0.4641160000000 1.0
C      1  0.4548640000000  0.5184390000000  0.4641160000000 1.0
C      1  0.5170770000000  0.4626260000000  0.5708210000000 1.0
C      1  0.4626000000000  0.5715310000000  0.5163650000000 1.0
C      1  0.5716260000000  0.5171250000000  0.4628250000000 1.0
C      1  0.4827990000000  0.5369660000000  0.5708210000000 1.0
C      1  0.5170770000000  0.5369660000000  0.4286470000000 1.0
C      1  0.4827990000000  0.4626260000000  0.4286470000000 1.0
C      1  0.5372760000000  0.4280610000000  0.5163650000000 1.0
C      1  0.4626000000000  0.4280610000000  0.4831030000000 1.0
C      1  0.5372760000000  0.5715310000000  0.4831030000000 1.0
C      1  0.4282500000000  0.4824670000000  0.4628250000000 1.0
C      1  0.5716260000000  0.4824670000000  0.5366430000000 1.0
C      1  0.4282500000000  0.5171250000000  0.5366430000000 1.0
C      1  0.4627680000000  0.5169350000000  0.5708210000000 1.0
C      1  0.5716730000000  0.4624580000000  0.5163650000000 1.0
C      1  0.5172670000000  0.5714840000000  0.4628250000000 1.0
C      1  0.5371080000000  0.4826570000000  0.5708210000000 1.0
C      1  0.5371080000000  0.5169350000000  0.4286470000000 1.0
C      1  0.4627680000000  0.4826570000000  0.4286470000000 1.0
C      1  0.4282030000000  0.5371340000000  0.5163650000000 1.0
C      1  0.4282030000000  0.4624580000000  0.4831030000000 1.0
C      1  0.5716730000000  0.5371340000000  0.4831030000000 1.0
C      1  0.4826090000000  0.4281080000000  0.4628250000000 1.0
C      1  0.4826090000000  0.5714840000000  0.5366430000000 1.0
C      1  0.5172670000000  0.4281080000000  0.5366430000000 1.0
C      1  0.5628760000000  0.5435810000000  0.4924390000000 1.0
C      1  0.5435580000000  0.4918910000000  0.5620110000000 1.0
C      1  0.4916560000000  0.5625150000000  0.5432320000000 1.0
C      1  0.4370000000000  0.4560110000000  0.4924390000000 1.0
C      1  0.5628760000000  0.4560110000000  0.5070290000000 1.0
C      1  0.4370000000000  0.5435810000000  0.5070290000000 1.0
C      1  0.4563180000000  0.5077010000000  0.5620110000000 1.0
C      1  0.5435580000000  0.5077010000000  0.4374570000000 1.0
C      1  0.4563180000000  0.4918910000000  0.4374570000000 1.0
C      1  0.5082200000000  0.4370770000000  0.5432320000000 1.0
C      1  0.4916560000000  0.4370770000000  0.4562350000000 1.0
C      1  0.5082200000000  0.5625150000000  0.4562350000000 1.0
C      1  0.5437230000000  0.5627340000000  0.4924390000000 1.0
C      1  0.4920330000000  0.5434160000000  0.5620110000000 1.0
C      1  0.5626570000000  0.4915140000000  0.5432320000000 1.0
C      1  0.4561530000000  0.4368580000000  0.4924390000000 1.0
C      1  0.4561530000000  0.5627340000000  0.5070290000000 1.0
C      1  0.5437230000000  0.4368580000000  0.5070290000000 1.0
C      1  0.5078430000000  0.4561760000000  0.5620110000000 1.0
C      1  0.5078430000000  0.5434160000000  0.4374570000000 1.0
C      1  0.4920330000000  0.4561760000000  0.4374570000000 1.0
C      1  0.4372190000000  0.5080780000000  0.5432320000000 1.0
C      1  0.4372190000000  0.4915140000000  0.4562350000000 1.0
C      1  0.5626570000000  0.5080780000000  0.4562350000000 1.0
C      1  0.4346630000000  0.5287750000000  0.4522470000000 1.0
C      1  0.5289080000000  0.4503580000000  0.4344180000000 1.0
C      1  0.4516170000000  0.4346220000000  0.5295910000000 1.0
C      1  0.5652130000000  0.4708170000000  0.4522470000000 1.0
C      1  0.4346630000000  0.4708170000000  0.5472210000000 1.0
C      1  0.5652130000000  0.5287750000000  0.5472210000000 1.0
C      1  0.4709680000000  0.5492340000000  0.4344180000000 1.0
C      1  0.5289080000000  0.5492340000000  0.5650500000000 1.0
C      1  0.4709680000000  0.4503580000000  0.5650500000000 1.0
C      1  0.5482590000000  0.5649700000000  0.5295910000000 1.0
C      1  0.4516170000000  0.5649700000000  0.4698770000000 1.0
C      1  0.5482590000000  0.4346220000000  0.4698770000000 1.0
C      1  0.5289170000000  0.4345210000000  0.4522470000000 1.0
C      1  0.4505000000000  0.5287660000000  0.4344180000000 1.0
C      1  0.4347640000000  0.4514750000000  0.5295910000000 1.0
C      1  0.4709590000000  0.5650710000000  0.4522470000000 1.0
C      1  0.4709590000000  0.4345210000000  0.5472210000000 1.0
C      1  0.5289170000000  0.5650710000000  0.5472210000000 1.0
C      1  0.5493760000000  0.4708260000000  0.4344180000000 1.0
C      1  0.5493760000000  0.5287660000000  0.5650500000000 1.0
C      1  0.4505000000000  0.4708260000000  0.5650500000000 1.0
C      1  0.5651120000000  0.5481170000000  0.5295910000000 1.0
C      1  0.5651120000000  0.4514750000000  0.4698770000000 1.0
C      1  0.4347640000000  0.5481170000000  0.4698770000000 1.0
C      1  0.4763530000000  0.4244240000000  0.4866670000000 1.0
C      1  0.4246250000000  0.4862510000000  0.4765000000000 1.0
C      1  0.4865270000000  0.4762730000000  0.4246230000000 1.0
C      1  0.5235230000000  0.5751680000000  0.4866670000000 1.0
C      1  0.4763530000000  0.5751680000000  0.5128000000000 1.0
C      1  0.5235230000000  0.4244240000000  0.5128000000000 1.0
C      1  0.5752510000000  0.5133410000000  0.4765000000000 1.0
C      1  0.4246250000000  0.5133410000000  0.5229680000000 1.0
C      1  0.5752510000000  0.4862510000000  0.5229680000000 1.0
C      1  0.5133490000000  0.5233180000000  0.4246230000000 1.0
C      1  0.4865270000000  0.5233180000000  0.5748440000000 1.0
C      1  0.5133490000000  0.4762730000000  0.5748440000000 1.0
C      1  0.4245660000000  0.4762110000000  0.4866670000000 1.0
C      1  0.4863930000000  0.4244830000000  0.4765000000000 1.0
C      1  0.4764150000000  0.4863850000000  0.4246230000000 1.0
C      1  0.5753100000000  0.5233810000000  0.4866670000000 1.0
C      1  0.5753100000000  0.4762110000000  0.5128000000000 1.0
C      1  0.4245660000000  0.5233810000000  0.5128000000000 1.0
C      1  0.5134830000000  0.5751090000000  0.4765000000000 1.0
C      1  0.5134830000000  0.4244830000000  0.5229680000000 1.0
C      1  0.4863930000000  0.5751090000000  0.5229680000000 1.0
C      1  0.5234600000000  0.5132070000000  0.4246230000000 1.0
C      1  0.5234600000000  0.4863850000000  0.5748440000000 1.0
C      1  0.4764150000000  0.5132070000000  0.5748440000000 1.0
C      1  0.5155870000000  0.4353800000000  0.4465340000000 1.0
C      1  0.4355450000000  0.4459590000000  0.5163370000000 1.0
C      1  0.4457370000000  0.5153590000000  0.4356350000000 1.0
C      1  0.4842890000000  0.5642120000000  0.4465340000000 1.0
C      1  0.5155860000000  0.5642120000000  0.5529330000000 1.0
C      1  0.4842890000000  0.4353800000000  0.5529330000000 1.0
C      1  0.5643310000000  0.5536330000000  0.5163370000000 1.0
C      1  0.4355450000000  0.5536330000000  0.4831300000000 1.0
C      1  0.5643310000000  0.4459590000000  0.4831300000000 1.0
C      1  0.5541390000000  0.4842330000000  0.4356350000000 1.0
C      1  0.4457370000000  0.4842330000000  0.5638330000000 1.0
C      1  0.5541390000000  0.5153590000000  0.5638330000000 1.0
C      1  0.4355220000000  0.5154450000000  0.4465340000000 1.0
C      1  0.4461010000000  0.4354030000000  0.5163370000000 1.0
C      1  0.5155010000000  0.4455950000000  0.4356350000000 1.0
C      1  0.5643540000000  0.4841470000000  0.4465340000000 1.0
C      1  0.5643540000000  0.5154440000000  0.5529330000000 1.0
C      1  0.4355220000000  0.4841470000000  0.5529330000000 1.0
C      1  0.5537750000000  0.5641890000000  0.5163370000000 1.0
C      1  0.5537750000000  0.4354030000000  0.4831300000000 1.0
C      1  0.4461010000000  0.5641890000000  0.4831300000000 1.0
C      1  0.4843750000000  0.5539970000000  0.4356350000000 1.0
C      1  0.4843750000000  0.4455950000000  0.5638330000000 1.0
C      1  0.5155010000000  0.5539970000000  0.5638330000000 1.0
C      1  0.4336410000000  0.4707200000000  0.5086380000000 1.0
C      1  0.4706710000000  0.5084110000000  0.4331950000000 1.0
C      1  0.5081460000000  0.4338700000000  0.4708610000000 1.0
C      1  0.5662350000000  0.5288710000000  0.5086380000000 1.0
C      1  0.4336410000000  0.5288710000000  0.4908300000000 1.0
C      1  0.5662350000000  0.4707200000000  0.4908300000000 1.0
C      1  0.5292050000000  0.4911810000000  0.4331950000000 1.0
C      1  0.4706710000000  0.4911810000000  0.5662720000000 1.0
C      1  0.5292050000000  0.5084110000000  0.5662720000000 1.0
C      1  0.4917300000000  0.5657220000000  0.4708610000000 1.0
C      1  0.5081460000000  0.5657220000000  0.5286070000000 1.0
C      1  0.4917300000000  0.4338700000000  0.5286070000000 1.0
C      1  0.4708620000000  0.4334990000000  0.5086380000000 1.0
C      1  0.5085530000000  0.4705290000000  0.4331950000000 1.0
C      1  0.4340120000000  0.5080040000000  0.4708610000000 1.0
C      1  0.5290130000000  0.5660930000000  0.5086380000000 1.0
C      1  0.5290130000000  0.4334990000000  0.4908300000000 1.0
C      1  0.4708620000000  0.5660930000000  0.4908300000000 1.0
C      1  0.4913230000000  0.5290630000000  0.4331950000000 1.0
C      1  0.4913230000000  0.4705290000000  0.5662720000000 1.0
C      1  0.5085530000000  0.5290630000000  0.5662720000000 1.0
C      1  0.5658640000000  0.4915880000000  0.4708610000000 1.0
C      1  0.5658640000000  0.5080040000000  0.5286070000000 1.0
C      1  0.4340120000000  0.4915880000000  0.5286070000000 1.0
C      1  0.4478540000000  0.4685610000000  0.5410350000000 1.0
C      1  0.4686730000000  0.5412650000000  0.4467960000000 1.0
C      1  0.5411780000000  0.4475590000000  0.4686040000000 1.0
C      1  0.5520220000000  0.5310310000000  0.5410350000000 1.0
C      1  0.4478540000000  0.5310310000000  0.4584330000000 1.0
C      1  0.5520220000000  0.4685610000000  0.4584330000000 1.0
C      1  0.5312030000000  0.4583260000000  0.4467960000000 1.0
C      1  0.4686730000000  0.4583270000000  0.5526720000000 1.0
C      1  0.5312030000000  0.5412650000000  0.5526720000000 1.0
C      1  0.4586980000000  0.5520330000000  0.4686040000000 1.0
C      1  0.5411780000000  0.5520330000000  0.5308640000000 1.0
C      1  0.4586980000000  0.4475590000000  0.5308640000000 1.0
C      1  0.4687030000000  0.4477120000000  0.5410350000000 1.0
C      1  0.5414070000000  0.4685310000000  0.4467960000000 1.0
C      1  0.4477010000000  0.5410360000000  0.4686040000000 1.0
C      1  0.5311730000000  0.5518800000000  0.5410350000000 1.0
C      1  0.5311730000000  0.4477120000000  0.4584330000000 1.0
C      1  0.4687030000000  0.5518800000000  0.4584330000000 1.0
C      1  0.4584680000000  0.5310610000000  0.4467960000000 1.0
C      1  0.4584690000000  0.4685310000000  0.5526720000000 1.0
C      1  0.5414070000000  0.5310610000000  0.5526720000000 1.0
C      1  0.5521750000000  0.4585560000000  0.4686040000000 1.0
C      1  0.5521750000000  0.5410360000000  0.5308640000000 1.0
C      1  0.4477010000000  0.4585560000000  0.5308640000000 1.0
C      1  0.4575550000000  0.5652430000000  0.4466090000000 1.0
C      1  0.5638000000000  0.4465110000000  0.4561040000000 1.0
C      1  0.4421320000000  0.4583540000000  0.5652840000000 1.0
C      1  0.5423210000000  0.4343490000000  0.4466090000000 1.0
C      1  0.4575550000000  0.4343490000000  0.5528590000000 1.0
C      1  0.5423210000000  0.5652430000000  0.5528590000000 1.0
C      1  0.4360760000000  0.5530810000000  0.4561040000000 1.0
C      1  0.5638000000000  0.5530810000000  0.5433640000000 1.0
C      1  0.4360760000000  0.4465110000000  0.5433640000000 1.0
C      1  0.5577440000000  0.5412380000000  0.5652840000000 1.0
C      1  0.4421320000000  0.5412380000000  0.4341840000000 1.0
C      1  0.5577440000000  0.4583540000000  0.4341840000000 1.0
C      1  0.5653850000000  0.4574130000000  0.4466090000000 1.0
C      1  0.4466530000000  0.5636580000000  0.4561040000000 1.0
C      1  0.4584960000000  0.4419900000000  0.5652840000000 1.0
C      1  0.4344910000000  0.5421790000000  0.4466090000000 1.0
C      1  0.4344910000000  0.4574130000000  0.5528590000000 1.0
C      1  0.5653850000000  0.5421790000000  0.5528590000000 1.0
C      1  0.5532230000000  0.4359340000000  0.4561040000000 1.0
C      1  0.5532230000000  0.5636580000000  0.5433640000000 1.0
C      1  0.4466530000000  0.4359340000000  0.5433640000000 1.0
C      1  0.5413800000000  0.5576020000000  0.5652840000000 1.0
C      1  0.5413800000000  0.4419900000000  0.4341840000000 1.0
C      1  0.4584960000000  0.5576020000000  0.4341840000000 1.0
C      1  0.4411030000000  0.4510080000000  0.4623180000000 1.0
C      1  0.4512030000000  0.4618020000000  0.4415190000000 1.0
C      1  0.4618770000000  0.4410010000000  0.4515690000000 1.0
C      1  0.5587730000000  0.5485840000000  0.4623180000000 1.0
C      1  0.4411030000000  0.5485840000000  0.5371500000000 1.0
C      1  0.5587730000000  0.4510080000000  0.5371500000000 1.0
C      1  0.5486720000000  0.5377900000000  0.4415190000000 1.0
C      1  0.4512030000000  0.5377900000000  0.5579490000000 1.0
C      1  0.5486720000000  0.4618020000000  0.5579490000000 1.0
C      1  0.5379990000000  0.5585910000000  0.4515690000000 1.0
C      1  0.4618770000000  0.5585910000000  0.5478990000000 1.0
C      1  0.5379990000000  0.4410010000000  0.5478990000000 1.0
C      1  0.4511500000000  0.4409610000000  0.4623180000000 1.0
C      1  0.4619440000000  0.4510610000000  0.4415190000000 1.0
C      1  0.4411430000000  0.4617350000000  0.4515690000000 1.0
C      1  0.5487260000000  0.5586310000000  0.4623180000000 1.0
C      1  0.5487260000000  0.4409610000000  0.5371500000000 1.0
C      1  0.4511500000000  0.5586310000000  0.5371500000000 1.0
C      1  0.5379320000000  0.5485300000000  0.4415190000000 1.0
C      1  0.5379320000000  0.4510610000000  0.5579490000000 1.0
C      1  0.4619440000000  0.5485300000000  0.5579490000000 1.0
C      1  0.5587330000000  0.5378570000000  0.4515690000000 1.0
C      1  0.5587330000000  0.4617350000000  0.5478990000000 1.0
C      1  0.4411430000000  0.5378570000000  0.5478990000000 1.0
C      1  0.5192240000000  0.4993580000000  0.4267350000000 1.0
C      1  0.4997470000000  0.4271810000000  0.5187890000000 1.0
C      1  0.4271090000000  0.5190340000000  0.4990960000000 1.0
C      1  0.4806520000000  0.5002340000000  0.4267350000000 1.0
C      1  0.5192240000000  0.5002340000000  0.5727330000000 1.0
C      1  0.4806520000000  0.4993580000000  0.5727330000000 1.0
C      1  0.5001290000000  0.5724110000000  0.5187890000000 1.0
C      1  0.4997470000000  0.5724110000000  0.4806780000000 1.0
C      1  0.5001290000000  0.4271810000000  0.4806780000000 1.0
C      1  0.5727670000000  0.4805580000000  0.4990960000000 1.0
C      1  0.4271090000000  0.4805580000000  0.5003720000000 1.0
C      1  0.5727670000000  0.5190340000000  0.5003720000000 1.0
C      1  0.4995000000000  0.5190820000000  0.4267350000000 1.0
C      1  0.4273230000000  0.4996050000000  0.5187890000000 1.0
C      1  0.5191760000000  0.4269670000000  0.4990960000000 1.0
C      1  0.5003760000000  0.4805100000000  0.4267350000000 1.0
C      1  0.5003760000000  0.5190820000000  0.5727330000000 1.0
C      1  0.4995000000000  0.4805100000000  0.5727330000000 1.0
C      1  0.5725530000000  0.4999870000000  0.5187890000000 1.0
C      1  0.5725530000000  0.4996050000000  0.4806780000000 1.0
C      1  0.4273230000000  0.4999870000000  0.4806780000000 1.0
C      1  0.4807000000000  0.5726250000000  0.4990960000000 1.0
C      1  0.4807000000000  0.4269670000000  0.5003720000000 1.0
C      1  0.5191760000000  0.5726250000000  0.5003720000000 1.0
C      1  0.4590370000000  0.5303830000000  0.5682700000000 1.0
C      1  0.5307400000000  0.5691180000000  0.4592650000000 1.0
C      1  0.5692210000000  0.4587430000000  0.5298130000000 1.0
C      1  0.5408390000000  0.4692090000000  0.5682700000000 1.0
C      1  0.4590370000000  0.4692090000000  0.4311980000000 1.0
C      1  0.5408390000000  0.5303830000000  0.4311980000000 1.0
C      1  0.4691360000000  0.4304740000000  0.4592650000000 1.0
C      1  0.5307400000000  0.4304740000000  0.5402030000000 1.0
C      1  0.4691360000000  0.5691180000000  0.5402030000000 1.0
C      1  0.4306550000000  0.5408490000000  0.5298130000000 1.0
C      1  0.5692210000000  0.5408490000000  0.4696540000000 1.0
C      1  0.4306550000000  0.4587430000000  0.4696540000000 1.0
C      1  0.5305250000000  0.4588950000000  0.5682700000000 1.0
C      1  0.5692600000000  0.5305980000000  0.4592650000000 1.0
C      1  0.4588850000000  0.5690790000000  0.5298130000000 1.0
C      1  0.4693510000000  0.5406970000000  0.5682700000000 1.0
C      1  0.4693510000000  0.4588950000000  0.4311980000000 1.0
C      1  0.5305250000000  0.5406970000000  0.4311980000000 1.0
C      1  0.4306160000000  0.4689940000000  0.4592650000000 1.0
C      1  0.4306160000000  0.5305980000000  0.5402030000000 1.0
C      1  0.5692600000000  0.4689940000000  0.5402030000000 1.0
C      1  0.5409910000000  0.4305130000000  0.5298130000000 1.0
C      1  0.5409910000000  0.5690790000000  0.4696540000000 1.0
C      1  0.4588850000000  0.4305130000000  0.4696540000000 1.0
C      1  0.4544630000000  0.5181910000000  0.5262770000000 1.0
C      1  0.5175930000000  0.5262220000000  0.4551010000000 1.0
C      1  0.5269860000000  0.4542260000000  0.5174800000000 1.0
C      1  0.5454130000000  0.4814010000000  0.5262770000000 1.0
C      1  0.4544620000000  0.4814010000000  0.4731910000000 1.0
C      1  0.5454130000000  0.5181910000000  0.4731910000000 1.0
C      1  0.4822830000000  0.4733700000000  0.4551010000000 1.0
C      1  0.5175930000000  0.4733700000000  0.5443670000000 1.0
C      1  0.4822830000000  0.5262220000000  0.5443670000000 1.0
C      1  0.4728890000000  0.5453650000000  0.5174800000000 1.0
C      1  0.5269870000000  0.5453650000000  0.4819880000000 1.0
C      1  0.4728890000000  0.4542260000000  0.4819880000000 1.0
C      1  0.5183330000000  0.4543210000000  0.5262770000000 1.0
C      1  0.5263640000000  0.5174510000000  0.4551010000000 1.0
C      1  0.4543680000000  0.5268440000000  0.5174800000000 1.0
C      1  0.4815430000000  0.5452710000000  0.5262770000000 1.0
C      1  0.4815430000000  0.4543200000000  0.4731910000000 1.0
C      1  0.5183330000000  0.5452710000000  0.4731910000000 1.0
C      1  0.4735120000000  0.4821410000000  0.4551010000000 1.0
C      1  0.4735120000000  0.5174510000000  0.5443670000000 1.0
C      1  0.5263640000000  0.4821410000000  0.5443670000000 1.0
C      1  0.5455070000000  0.4727470000000  0.5174800000000 1.0
C      1  0.5455070000000  0.5268450000000  0.4819880000000 1.0
C      1  0.4543680000000  0.4727470000000  0.4819880000000 1.0
C      1  0.4339470000000  0.4944000000000  0.5433910000000 1.0
C      1  0.4943100000000  0.5439340000000  0.4337820000000 1.0
C      1  0.5439750000000  0.4335930000000  0.4933340000000 1.0
C      1  0.5659290000000  0.5051920000000  0.5433910000000 1.0
C      1  0.4339470000000  0.5051920000000  0.4560770000000 1.0
C      1  0.5659290000000  0.4944000000000  0.4560770000000 1.0
C      1  0.5055650000000  0.4556580000000  0.4337820000000 1.0
C      1  0.4943100000000  0.4556580000000  0.5656860000000 1.0
C      1  0.5055650000000  0.5439340000000  0.5656860000000 1.0
C      1  0.4559010000000  0.5659990000000  0.4933340000000 1.0
C      1  0.5439750000000  0.5659990000000  0.5061340000000 1.0
C      1  0.4559010000000  0.4335930000000  0.5061340000000 1.0
C      1  0.4945420000000  0.4338050000000  0.5433910000000 1.0
C      1  0.5440760000000  0.4941680000000  0.4337820000000 1.0
C      1  0.4337350000000  0.5438330000000  0.4933340000000 1.0
C      1  0.5053340000000  0.5657870000000  0.5433910000000 1.0
C      1  0.5053340000000  0.4338050000000  0.4560770000000 1.0
C      1  0.4945420000000  0.5657870000000  0.4560770000000 1.0
C      1  0.4558000000000  0.5054230000000  0.4337820000000 1.0
C      1  0.4558000000000  0.4941680000000  0.5656860000000 1.0
C      1  0.5440760000000  0.5054230000000  0.5656860000000 1.0
C      1  0.5661410000000  0.4557590000000  0.4933340000000 1.0
C      1  0.5661410000000  0.5438330000000  0.5061340000000 1.0
C      1  0.4337350000000  0.4557590000000  0.5061340000000 1.0
C      1  0.4881210000000  0.5480350000000  0.5379690000000 1.0
C      1  0.5483430000000  0.5384940000000  0.4886450000000 1.0
C      1  0.5382490000000  0.4883560000000  0.5474390000000 1.0
C      1  0.5117550000000  0.4515570000000  0.5379690000000 1.0
C      1  0.4881210000000  0.4515570000000  0.4614990000000 1.0
C      1  0.5117550000000  0.5480350000000  0.4614990000000 1.0
C      1  0.4515330000000  0.4610980000000  0.4886450000000 1.0
C      1  0.5483430000000  0.4610980000000  0.5108230000000 1.0
C      1  0.4515330000000  0.5384940000000  0.5108230000000 1.0
C      1  0.4616270000000  0.5112360000000  0.5474390000000 1.0
C      1  0.5382490000000  0.5112360000000  0.4520290000000 1.0
C      1  0.4616270000000  0.4883560000000  0.4520290000000 1.0
C      1  0.5481770000000  0.4879790000000  0.5379690000000 1.0
C      1  0.5386360000000  0.5482010000000  0.4886450000000 1.0
C      1  0.4884980000000  0.5381070000000  0.5474390000000 1.0
C      1  0.4516990000000  0.5116130000000  0.5379690000000 1.0
C      1  0.4516990000000  0.4879790000000  0.4614990000000 1.0
C      1  0.5481770000000  0.5116130000000  0.4614990000000 1.0
C      1  0.4612400000000  0.4513910000000  0.4886450000000 1.0
C      1  0.4612400000000  0.5482010000000  0.5108230000000 1.0
C      1  0.5386360000000  0.4513910000000  0.5108230000000 1.0
C      1  0.5113780000000  0.4614850000000  0.5474390000000 1.0
C      1  0.5113780000000  0.5381070000000  0.4520290000000 1.0
C      1  0.4884980000000  0.4614850000000  0.4520290000000 1.0
C      1  0.4948520000000  0.4947100000000  0.5739610000000 1.0
C      1  0.5050240000000  0.4947100000000  0.4255060000000 1.0
C      1  0.5050240000000  0.5048820000000  0.5739610000000 1.0
C      1  0.5049610000000  0.5738180000000  0.5048120000000 1.0
C      1  0.5739600000000  0.5048190000000  0.5048120000000 1.0
C      1  0.4948520000000  0.5048820000000  0.4255060000000 1.0
C      1  0.4949150000000  0.4257740000000  0.5048120000000 1.0
C      1  0.5049610000000  0.4257740000000  0.4946560000000 1.0
C      1  0.4949150000000  0.5738180000000  0.4946560000000 1.0
C      1  0.4259160000000  0.4947730000000  0.5048120000000 1.0
C      1  0.5739600000000  0.4947730000000  0.4946560000000 1.0
C      1  0.4259160000000  0.5048190000000  0.4946560000000 1.0
C      1  0.4472900000000  0.4471480000000  0.5709130000000 1.0
C      1  0.5525860000000  0.4471480000000  0.4285550000000 1.0
C      1  0.4472900000000  0.5524440000000  0.4285550000000 1.0
C      1  0.5525860000000  0.5524440000000  0.5709130000000 1.0
END
