TITL C-1379265-1223-388 1.17963727415201e-07 1000000 -3838.577154407 0 0 540 (Th) n - 1
REM
REM in /nfs/bkarasulu/CARBON/AIRSS/Generating-Clusters/GAP-ML-2020/Higher-Symm/Selected-Sizes/TryA-Only_Ih-Symm/Larger-Clusters/Try2-MINAMP_6A
REM
REM
REM
REM
REM
REM ./C.cell (31579ac4e95a012ec27f3239692ae8a5)
REM
REM compiler GCC version 9.2.1 20190827 (Red Hat 9.2.1-1)
REM options -cpp -mtune=generic -march=x86-64 -g -O0 -fpre-include=/usr/include/finclude/math-vector-fortran.h
REM seed 1771168361 -1892701023 1149432851 908828002 -943735391 -1244851949 -714401553 130738657 -1699206572 1412798595 1299903644 -1296820193 1200619382 -550339773 -1479639708 -112099871 45218437 -854549240 -1183915587 -1861452079 -1390435538 -442943205 -1277466009 -1928265302 1771636532 1714487113 693318472 1810874384 604091161 968355051 -158624928 1995398734 -2142797768
REM
CELL 1.54180  100.00000  100.00000  100.00000   90.00000   90.00000   90.00000
LATT -1
SFAC C  
C      1  0.4443800000000  0.4301780000000  0.5076080000000 1.0
C      1  0.5076080000000  0.4443800000000  0.4301780000000 1.0
C      1  0.4301780000000  0.5076080000000  0.4443800000000 1.0
C      1  0.4443800000000  0.5698220000000  0.4923920000000 1.0
C      1  0.5556200000000  0.5698220000000  0.5076080000000 1.0
C      1  0.5556200000000  0.4301780000000  0.4923920000000 1.0
C      1  0.5076080000000  0.5556200000000  0.5698220000000 1.0
C      1  0.4923920000000  0.5556200000000  0.4301780000000 1.0
C      1  0.4923920000000  0.4443800000000  0.5698220000000 1.0
C      1  0.4301780000000  0.4923920000000  0.5556200000000 1.0
C      1  0.5698220000000  0.4923920000000  0.4443800000000 1.0
C      1  0.5698220000000  0.5076080000000  0.5556200000000 1.0
C      1  0.5556200000000  0.4301780000000  0.5076080000000 1.0
C      1  0.4923920000000  0.4443800000000  0.4301780000000 1.0
C      1  0.5698220000000  0.5076080000000  0.4443800000000 1.0
C      1  0.5556200000000  0.5698220000000  0.4923920000000 1.0
C      1  0.4443800000000  0.5698220000000  0.5076080000000 1.0
C      1  0.4443800000000  0.4301780000000  0.4923920000000 1.0
C      1  0.4923920000000  0.5556200000000  0.5698220000000 1.0
C      1  0.5076080000000  0.5556200000000  0.4301780000000 1.0
C      1  0.5076080000000  0.4443800000000  0.5698220000000 1.0
C      1  0.5698220000000  0.4923920000000  0.5556200000000 1.0
C      1  0.4301780000000  0.4923920000000  0.4443800000000 1.0
C      1  0.4301780000000  0.5076080000000  0.5556200000000 1.0
C      1  0.5592520000000  0.4841220000000  0.4385120000000 1.0
C      1  0.4385120000000  0.5592520000000  0.4841220000000 1.0
C      1  0.4841220000000  0.4385120000000  0.5592520000000 1.0
C      1  0.5592520000000  0.5158780000000  0.5614880000000 1.0
C      1  0.4407480000000  0.5158780000000  0.4385120000000 1.0
C      1  0.4407480000000  0.4841220000000  0.5614880000000 1.0
C      1  0.4385120000000  0.4407480000000  0.5158780000000 1.0
C      1  0.5614880000000  0.4407480000000  0.4841220000000 1.0
C      1  0.5614880000000  0.5592520000000  0.5158780000000 1.0
C      1  0.4841220000000  0.5614880000000  0.4407480000000 1.0
C      1  0.5158780000000  0.5614880000000  0.5592520000000 1.0
C      1  0.5158780000000  0.4385120000000  0.4407480000000 1.0
C      1  0.4407480000000  0.4841220000000  0.4385120000000 1.0
C      1  0.5614880000000  0.5592520000000  0.4841220000000 1.0
C      1  0.5158780000000  0.4385120000000  0.5592520000000 1.0
C      1  0.4407480000000  0.5158780000000  0.5614880000000 1.0
C      1  0.5592520000000  0.5158780000000  0.4385120000000 1.0
C      1  0.5592520000000  0.4841220000000  0.5614880000000 1.0
C      1  0.5614880000000  0.4407480000000  0.5158780000000 1.0
C      1  0.4385120000000  0.4407480000000  0.4841220000000 1.0
C      1  0.4385120000000  0.5592520000000  0.5158780000000 1.0
C      1  0.5158780000000  0.5614880000000  0.4407480000000 1.0
C      1  0.4841220000000  0.5614880000000  0.5592520000000 1.0
C      1  0.4841220000000  0.4385120000000  0.4407480000000 1.0
C      1  0.5807110000000  0.4705540000000  0.5269020000000 1.0
C      1  0.5269020000000  0.5807110000000  0.4705550000000 1.0
C      1  0.4705550000000  0.5269020000000  0.5807110000000 1.0
C      1  0.5807110000000  0.5294460000000  0.4730980000000 1.0
C      1  0.4192890000000  0.5294460000000  0.5269020000000 1.0
C      1  0.4192890000000  0.4705540000000  0.4730980000000 1.0
C      1  0.5269020000000  0.4192890000000  0.5294460000000 1.0
C      1  0.4730980000000  0.4192890000000  0.4705540000000 1.0
C      1  0.4730980000000  0.5807110000000  0.5294450000000 1.0
C      1  0.4705550000000  0.4730980000000  0.4192890000000 1.0
C      1  0.5294450000000  0.4730980000000  0.5807110000000 1.0
C      1  0.5294450000000  0.5269020000000  0.4192890000000 1.0
C      1  0.4192890000000  0.4705550000000  0.5269020000000 1.0
C      1  0.4730980000000  0.5807110000000  0.4705540000000 1.0
C      1  0.5294460000000  0.5269020000000  0.5807110000000 1.0
C      1  0.4192890000000  0.5294450000000  0.4730980000000 1.0
C      1  0.5807110000000  0.5294450000000  0.5269020000000 1.0
C      1  0.5807110000000  0.4705550000000  0.4730980000000 1.0
C      1  0.4730980000000  0.4192890000000  0.5294450000000 1.0
C      1  0.5269020000000  0.4192890000000  0.4705550000000 1.0
C      1  0.5269020000000  0.5807110000000  0.5294460000000 1.0
C      1  0.5294460000000  0.4730980000000  0.4192890000000 1.0
C      1  0.4705540000000  0.4730980000000  0.5807110000000 1.0
C      1  0.4705540000000  0.5269020000000  0.4192890000000 1.0
C      1  0.5591850000000  0.5452300000000  0.4636640000000 1.0
C      1  0.4636640000000  0.5591850000000  0.5452300000000 1.0
C      1  0.5452300000000  0.4636640000000  0.5591850000000 1.0
C      1  0.5591850000000  0.4547700000000  0.5363360000000 1.0
C      1  0.4408150000000  0.4547700000000  0.4636640000000 1.0
C      1  0.4408150000000  0.5452300000000  0.5363360000000 1.0
C      1  0.4636640000000  0.4408150000000  0.4547700000000 1.0
C      1  0.5363360000000  0.4408150000000  0.5452300000000 1.0
C      1  0.5363360000000  0.5591850000000  0.4547700000000 1.0
C      1  0.5452300000000  0.5363360000000  0.4408150000000 1.0
C      1  0.4547700000000  0.5363360000000  0.5591850000000 1.0
C      1  0.4547700000000  0.4636640000000  0.4408150000000 1.0
C      1  0.4408150000000  0.5452300000000  0.4636640000000 1.0
C      1  0.5363360000000  0.5591850000000  0.5452300000000 1.0
C      1  0.4547700000000  0.4636640000000  0.5591850000000 1.0
C      1  0.4408150000000  0.4547700000000  0.5363360000000 1.0
C      1  0.5591850000000  0.4547700000000  0.4636640000000 1.0
C      1  0.5591850000000  0.5452300000000  0.5363360000000 1.0
C      1  0.5363360000000  0.4408150000000  0.4547700000000 1.0
C      1  0.4636640000000  0.4408150000000  0.5452300000000 1.0
C      1  0.4636640000000  0.5591850000000  0.4547700000000 1.0
C      1  0.4547700000000  0.5363360000000  0.4408150000000 1.0
C      1  0.5452300000000  0.5363360000000  0.5591850000000 1.0
C      1  0.5452300000000  0.4636640000000  0.4408150000000 1.0
C      1  0.5278210000000  0.5407030000000  0.4240120000000 1.0
C      1  0.4240120000000  0.5278210000000  0.5407030000000 1.0
C      1  0.5407030000000  0.4240120000000  0.5278210000000 1.0
C      1  0.5278210000000  0.4592970000000  0.5759880000000 1.0
C      1  0.4721790000000  0.4592970000000  0.4240120000000 1.0
C      1  0.4721790000000  0.5407030000000  0.5759880000000 1.0
C      1  0.4240120000000  0.4721790000000  0.4592970000000 1.0
C      1  0.5759880000000  0.4721790000000  0.5407030000000 1.0
C      1  0.5759880000000  0.5278210000000  0.4592970000000 1.0
C      1  0.5407030000000  0.5759880000000  0.4721790000000 1.0
C      1  0.4592970000000  0.5759880000000  0.5278210000000 1.0
C      1  0.4592970000000  0.4240120000000  0.4721790000000 1.0
C      1  0.4721790000000  0.5407030000000  0.4240120000000 1.0
C      1  0.5759880000000  0.5278210000000  0.5407030000000 1.0
C      1  0.4592970000000  0.4240120000000  0.5278210000000 1.0
C      1  0.4721790000000  0.4592970000000  0.5759880000000 1.0
C      1  0.5278210000000  0.4592970000000  0.4240120000000 1.0
C      1  0.5278210000000  0.5407030000000  0.5759880000000 1.0
C      1  0.5759880000000  0.4721790000000  0.4592970000000 1.0
C      1  0.4240120000000  0.4721790000000  0.5407030000000 1.0
C      1  0.4240120000000  0.5278210000000  0.4592970000000 1.0
C      1  0.4592970000000  0.5759880000000  0.4721790000000 1.0
C      1  0.5407030000000  0.5759880000000  0.5278210000000 1.0
C      1  0.5407030000000  0.4240120000000  0.4721790000000 1.0
C      1  0.5064690000000  0.4571510000000  0.4573520000000 1.0
C      1  0.4573520000000  0.5064690000000  0.4571510000000 1.0
C      1  0.4571510000000  0.4573520000000  0.5064690000000 1.0
C      1  0.5064690000000  0.5428490000000  0.5426480000000 1.0
C      1  0.4935310000000  0.5428490000000  0.4573520000000 1.0
C      1  0.4935310000000  0.4571510000000  0.5426480000000 1.0
C      1  0.4573520000000  0.4935310000000  0.5428490000000 1.0
C      1  0.5426480000000  0.4935310000000  0.4571510000000 1.0
C      1  0.5426480000000  0.5064690000000  0.5428490000000 1.0
C      1  0.4571510000000  0.5426480000000  0.4935310000000 1.0
C      1  0.5428490000000  0.5426480000000  0.5064690000000 1.0
C      1  0.5428490000000  0.4573520000000  0.4935310000000 1.0
C      1  0.4935310000000  0.4571510000000  0.4573520000000 1.0
C      1  0.5426480000000  0.5064690000000  0.4571510000000 1.0
C      1  0.5428490000000  0.4573520000000  0.5064690000000 1.0
C      1  0.4935310000000  0.5428490000000  0.5426480000000 1.0
C      1  0.5064690000000  0.5428490000000  0.4573520000000 1.0
C      1  0.5064690000000  0.4571510000000  0.5426480000000 1.0
C      1  0.5426480000000  0.4935310000000  0.5428490000000 1.0
C      1  0.4573520000000  0.4935310000000  0.4571510000000 1.0
C      1  0.4573520000000  0.5064690000000  0.5428490000000 1.0
C      1  0.5428490000000  0.5426480000000  0.4935310000000 1.0
C      1  0.4571510000000  0.5426480000000  0.5064690000000 1.0
C      1  0.4571510000000  0.4573520000000  0.4935310000000 1.0
C      1  0.5353040000000  0.5453190000000  0.5263570000000 1.0
C      1  0.5263570000000  0.5353040000000  0.5453190000000 1.0
C      1  0.5453190000000  0.5263570000000  0.5353040000000 1.0
C      1  0.5353040000000  0.4546810000000  0.4736430000000 1.0
C      1  0.4646960000000  0.4546810000000  0.5263570000000 1.0
C      1  0.4646960000000  0.5453190000000  0.4736430000000 1.0
C      1  0.5263570000000  0.4646960000000  0.4546810000000 1.0
C      1  0.4736430000000  0.4646960000000  0.5453190000000 1.0
C      1  0.4736430000000  0.5353040000000  0.4546810000000 1.0
C      1  0.5453190000000  0.4736430000000  0.4646960000000 1.0
C      1  0.4546810000000  0.4736430000000  0.5353040000000 1.0
C      1  0.4546810000000  0.5263570000000  0.4646960000000 1.0
C      1  0.4646960000000  0.5453190000000  0.5263570000000 1.0
C      1  0.4736430000000  0.5353040000000  0.5453190000000 1.0
C      1  0.4546810000000  0.5263570000000  0.5353040000000 1.0
C      1  0.4646960000000  0.4546810000000  0.4736430000000 1.0
C      1  0.5353040000000  0.4546810000000  0.5263570000000 1.0
C      1  0.5353040000000  0.5453190000000  0.4736430000000 1.0
C      1  0.4736430000000  0.4646960000000  0.4546810000000 1.0
C      1  0.5263570000000  0.4646960000000  0.5453190000000 1.0
C      1  0.5263570000000  0.5353040000000  0.4546810000000 1.0
C      1  0.4546810000000  0.4736430000000  0.4646960000000 1.0
C      1  0.5453190000000  0.4736430000000  0.5353040000000 1.0
C      1  0.5453190000000  0.5263570000000  0.4646960000000 1.0
C      1  0.4694800000000  0.4930820000000  0.5869430000000 1.0
C      1  0.5869430000000  0.4694800000000  0.4930820000000 1.0
C      1  0.4930810000000  0.5869430000000  0.4694800000000 1.0
C      1  0.4694800000000  0.5069180000000  0.4130570000000 1.0
C      1  0.5305200000000  0.5069180000000  0.5869430000000 1.0
C      1  0.5305200000000  0.4930820000000  0.4130570000000 1.0
C      1  0.5869430000000  0.5305200000000  0.5069180000000 1.0
C      1  0.4130570000000  0.5305200000000  0.4930820000000 1.0
C      1  0.4130570000000  0.4694800000000  0.5069180000000 1.0
C      1  0.4930820000000  0.4130570000000  0.5305200000000 1.0
C      1  0.5069180000000  0.4130570000000  0.4694800000000 1.0
C      1  0.5069190000000  0.5869430000000  0.5305200000000 1.0
C      1  0.5305200000000  0.4930820000000  0.5869430000000 1.0
C      1  0.4130570000000  0.4694800000000  0.4930810000000 1.0
C      1  0.5069180000000  0.5869430000000  0.4694800000000 1.0
C      1  0.5305200000000  0.5069180000000  0.4130570000000 1.0
C      1  0.4694800000000  0.5069180000000  0.5869430000000 1.0
C      1  0.4694800000000  0.4930820000000  0.4130570000000 1.0
C      1  0.4130570000000  0.5305200000000  0.5069190000000 1.0
C      1  0.5869430000000  0.5305200000000  0.4930810000000 1.0
C      1  0.5869430000000  0.4694800000000  0.5069190000000 1.0
C      1  0.5069180000000  0.4130570000000  0.5305200000000 1.0
C      1  0.4930820000000  0.4130570000000  0.4694800000000 1.0
C      1  0.4930820000000  0.5869430000000  0.5305200000000 1.0
C      1  0.5184960000000  0.4112040000000  0.5205160000000 1.0
C      1  0.5205150000000  0.5184960000000  0.4112040000000 1.0
C      1  0.4112040000000  0.5205160000000  0.5184960000000 1.0
C      1  0.5184960000000  0.5887960000000  0.4794840000000 1.0
C      1  0.4815040000000  0.5887960000000  0.5205160000000 1.0
C      1  0.4815040000000  0.4112040000000  0.4794840000000 1.0
C      1  0.5205160000000  0.4815040000000  0.5887960000000 1.0
C      1  0.4794840000000  0.4815040000000  0.4112040000000 1.0
C      1  0.4794840000000  0.5184960000000  0.5887960000000 1.0
C      1  0.4112040000000  0.4794840000000  0.4815040000000 1.0
C      1  0.5887960000000  0.4794840000000  0.5184960000000 1.0
C      1  0.5887960000000  0.5205160000000  0.4815040000000 1.0
C      1  0.4815040000000  0.4112040000000  0.5205160000000 1.0
C      1  0.4794840000000  0.5184960000000  0.4112040000000 1.0
C      1  0.5887960000000  0.5205160000000  0.5184960000000 1.0
C      1  0.4815040000000  0.5887960000000  0.4794840000000 1.0
C      1  0.5184960000000  0.5887960000000  0.5205160000000 1.0
C      1  0.5184960000000  0.4112040000000  0.4794840000000 1.0
C      1  0.4794840000000  0.4815040000000  0.5887960000000 1.0
C      1  0.5205160000000  0.4815040000000  0.4112040000000 1.0
C      1  0.5205160000000  0.5184960000000  0.5887960000000 1.0
C      1  0.5887960000000  0.4794840000000  0.4815040000000 1.0
C      1  0.4112040000000  0.4794840000000  0.5184960000000 1.0
C      1  0.4112040000000  0.5205160000000  0.4815040000000 1.0
C      1  0.4333220000000  0.4535640000000  0.4912270000000 1.0
C      1  0.4912270000000  0.4333220000000  0.4535640000000 1.0
C      1  0.4535640000000  0.4912270000000  0.4333220000000 1.0
C      1  0.4333220000000  0.5464360000000  0.5087730000000 1.0
C      1  0.5666780000000  0.5464360000000  0.4912270000000 1.0
C      1  0.5666780000000  0.4535640000000  0.5087730000000 1.0
C      1  0.4912270000000  0.5666780000000  0.5464360000000 1.0
C      1  0.5087730000000  0.5666780000000  0.4535640000000 1.0
C      1  0.5087730000000  0.4333220000000  0.5464360000000 1.0
C      1  0.4535640000000  0.5087730000000  0.5666780000000 1.0
C      1  0.5464360000000  0.5087730000000  0.4333220000000 1.0
C      1  0.5464360000000  0.4912270000000  0.5666780000000 1.0
C      1  0.5666780000000  0.4535640000000  0.4912270000000 1.0
C      1  0.5087730000000  0.4333220000000  0.4535640000000 1.0
C      1  0.5464360000000  0.4912270000000  0.4333220000000 1.0
C      1  0.5666780000000  0.5464360000000  0.5087730000000 1.0
C      1  0.4333220000000  0.5464360000000  0.4912270000000 1.0
C      1  0.4333220000000  0.4535640000000  0.5087730000000 1.0
C      1  0.5087730000000  0.5666780000000  0.5464360000000 1.0
C      1  0.4912270000000  0.5666780000000  0.4535640000000 1.0
C      1  0.4912270000000  0.4333220000000  0.5464360000000 1.0
C      1  0.5464360000000  0.5087730000000  0.5666780000000 1.0
C      1  0.4535640000000  0.5087730000000  0.4333220000000 1.0
C      1  0.4535640000000  0.4912270000000  0.5666780000000 1.0
C      1  0.4931190000000  0.4432070000000  0.4759280000000 1.0
C      1  0.4759280000000  0.4931190000000  0.4432070000000 1.0
C      1  0.4432070000000  0.4759280000000  0.4931190000000 1.0
C      1  0.4931190000000  0.5567930000000  0.5240720000000 1.0
C      1  0.5068810000000  0.5567930000000  0.4759280000000 1.0
C      1  0.5068810000000  0.4432070000000  0.5240720000000 1.0
C      1  0.4759280000000  0.5068810000000  0.5567930000000 1.0
C      1  0.5240720000000  0.5068810000000  0.4432070000000 1.0
C      1  0.5240720000000  0.4931190000000  0.5567930000000 1.0
C      1  0.4432070000000  0.5240720000000  0.5068810000000 1.0
C      1  0.5567930000000  0.5240720000000  0.4931190000000 1.0
C      1  0.5567930000000  0.4759280000000  0.5068810000000 1.0
C      1  0.5068810000000  0.4432070000000  0.4759280000000 1.0
C      1  0.5240720000000  0.4931190000000  0.4432070000000 1.0
C      1  0.5567930000000  0.4759280000000  0.4931190000000 1.0
C      1  0.5068810000000  0.5567930000000  0.5240720000000 1.0
C      1  0.4931190000000  0.5567930000000  0.4759280000000 1.0
C      1  0.4931190000000  0.4432070000000  0.5240720000000 1.0
C      1  0.5240720000000  0.5068810000000  0.5567930000000 1.0
C      1  0.4759280000000  0.5068810000000  0.4432070000000 1.0
C      1  0.4759280000000  0.4931190000000  0.5567930000000 1.0
C      1  0.5567930000000  0.5240720000000  0.5068810000000 1.0
C      1  0.4432070000000  0.5240720000000  0.4931190000000 1.0
C      1  0.4432070000000  0.4759280000000  0.5068810000000 1.0
C      1  0.5656170000000  0.5363470000000  0.4538740000000 1.0
C      1  0.4538740000000  0.5656170000000  0.5363470000000 1.0
C      1  0.5363470000000  0.4538740000000  0.5656170000000 1.0
C      1  0.5656170000000  0.4636530000000  0.5461260000000 1.0
C      1  0.4343830000000  0.4636530000000  0.4538740000000 1.0
C      1  0.4343830000000  0.5363470000000  0.5461260000000 1.0
C      1  0.4538740000000  0.4343830000000  0.4636530000000 1.0
C      1  0.5461260000000  0.4343830000000  0.5363470000000 1.0
C      1  0.5461260000000  0.5656170000000  0.4636530000000 1.0
C      1  0.5363470000000  0.5461260000000  0.4343830000000 1.0
C      1  0.4636530000000  0.5461260000000  0.5656170000000 1.0
C      1  0.4636530000000  0.4538740000000  0.4343830000000 1.0
C      1  0.4343830000000  0.5363470000000  0.4538740000000 1.0
C      1  0.5461260000000  0.5656170000000  0.5363470000000 1.0
C      1  0.4636530000000  0.4538740000000  0.5656170000000 1.0
C      1  0.4343830000000  0.4636530000000  0.5461260000000 1.0
C      1  0.5656170000000  0.4636530000000  0.4538740000000 1.0
C      1  0.5656170000000  0.5363470000000  0.5461260000000 1.0
C      1  0.5461260000000  0.4343830000000  0.4636530000000 1.0
C      1  0.4538740000000  0.4343830000000  0.5363470000000 1.0
C      1  0.4538740000000  0.5656170000000  0.4636530000000 1.0
C      1  0.4636530000000  0.5461260000000  0.4343830000000 1.0
C      1  0.5363470000000  0.5461260000000  0.5656170000000 1.0
C      1  0.5363470000000  0.4538740000000  0.4343830000000 1.0
C      1  0.4513360000000  0.5380900000000  0.4719100000000 1.0
C      1  0.4719100000000  0.4513360000000  0.5380900000000 1.0
C      1  0.5380900000000  0.4719100000000  0.4513360000000 1.0
C      1  0.4513360000000  0.4619100000000  0.5280900000000 1.0
C      1  0.5486640000000  0.4619100000000  0.4719100000000 1.0
C      1  0.5486640000000  0.5380900000000  0.5280900000000 1.0
C      1  0.4719100000000  0.5486640000000  0.4619100000000 1.0
C      1  0.5280900000000  0.5486640000000  0.5380900000000 1.0
C      1  0.5280900000000  0.4513360000000  0.4619100000000 1.0
C      1  0.5380900000000  0.5280900000000  0.5486640000000 1.0
C      1  0.4619100000000  0.5280900000000  0.4513360000000 1.0
C      1  0.4619100000000  0.4719100000000  0.5486640000000 1.0
C      1  0.5486640000000  0.5380900000000  0.4719100000000 1.0
C      1  0.5280900000000  0.4513360000000  0.5380900000000 1.0
C      1  0.4619100000000  0.4719100000000  0.4513360000000 1.0
C      1  0.5486640000000  0.4619100000000  0.5280900000000 1.0
C      1  0.4513360000000  0.4619100000000  0.4719100000000 1.0
C      1  0.4513360000000  0.5380900000000  0.5280900000000 1.0
C      1  0.5280900000000  0.5486640000000  0.4619100000000 1.0
C      1  0.4719100000000  0.5486640000000  0.5380900000000 1.0
C      1  0.4719100000000  0.4513360000000  0.4619100000000 1.0
C      1  0.4619100000000  0.5280900000000  0.5486640000000 1.0
C      1  0.5380900000000  0.5280900000000  0.4513360000000 1.0
C      1  0.5380900000000  0.4719100000000  0.5486640000000 1.0
C      1  0.5590730000000  0.4928180000000  0.4738150000000 1.0
C      1  0.4738150000000  0.5590730000000  0.4928180000000 1.0
C      1  0.4928180000000  0.4738150000000  0.5590730000000 1.0
C      1  0.5590730000000  0.5071820000000  0.5261850000000 1.0
C      1  0.4409270000000  0.5071820000000  0.4738150000000 1.0
C      1  0.4409270000000  0.4928180000000  0.5261850000000 1.0
C      1  0.4738150000000  0.4409270000000  0.5071820000000 1.0
C      1  0.5261850000000  0.4409270000000  0.4928180000000 1.0
C      1  0.5261850000000  0.5590730000000  0.5071820000000 1.0
C      1  0.4928180000000  0.5261850000000  0.4409270000000 1.0
C      1  0.5071820000000  0.5261850000000  0.5590730000000 1.0
C      1  0.5071820000000  0.4738150000000  0.4409270000000 1.0
C      1  0.4409270000000  0.4928180000000  0.4738150000000 1.0
C      1  0.5261850000000  0.5590730000000  0.4928180000000 1.0
C      1  0.5071820000000  0.4738150000000  0.5590730000000 1.0
C      1  0.4409270000000  0.5071820000000  0.5261850000000 1.0
C      1  0.5590730000000  0.5071820000000  0.4738150000000 1.0
C      1  0.5590730000000  0.4928180000000  0.5261850000000 1.0
C      1  0.5261850000000  0.4409270000000  0.5071820000000 1.0
C      1  0.4738150000000  0.4409270000000  0.4928180000000 1.0
C      1  0.4738150000000  0.5590730000000  0.5071820000000 1.0
C      1  0.5071820000000  0.5261850000000  0.4409270000000 1.0
C      1  0.4928180000000  0.5261850000000  0.5590730000000 1.0
C      1  0.4928180000000  0.4738150000000  0.4409270000000 1.0
C      1  0.5070110000000  0.4841650000000  0.5871560000000 1.0
C      1  0.5871560000000  0.5070110000000  0.4841650000000 1.0
C      1  0.4841650000000  0.5871560000000  0.5070110000000 1.0
C      1  0.5070110000000  0.5158350000000  0.4128440000000 1.0
C      1  0.4929890000000  0.5158350000000  0.5871560000000 1.0
C      1  0.4929890000000  0.4841650000000  0.4128440000000 1.0
C      1  0.5871560000000  0.4929890000000  0.5158350000000 1.0
C      1  0.4128440000000  0.4929890000000  0.4841650000000 1.0
C      1  0.4128440000000  0.5070110000000  0.5158350000000 1.0
C      1  0.4841650000000  0.4128440000000  0.4929890000000 1.0
C      1  0.5158350000000  0.4128440000000  0.5070110000000 1.0
C      1  0.5158350000000  0.5871560000000  0.4929890000000 1.0
C      1  0.4929890000000  0.4841650000000  0.5871560000000 1.0
C      1  0.4128440000000  0.5070110000000  0.4841650000000 1.0
C      1  0.5158350000000  0.5871560000000  0.5070110000000 1.0
C      1  0.4929880000000  0.5158350000000  0.4128440000000 1.0
C      1  0.5070110000000  0.5158350000000  0.5871560000000 1.0
C      1  0.5070110000000  0.4841650000000  0.4128440000000 1.0
C      1  0.4128440000000  0.4929890000000  0.5158350000000 1.0
C      1  0.5871560000000  0.4929890000000  0.4841650000000 1.0
C      1  0.5871560000000  0.5070110000000  0.5158350000000 1.0
C      1  0.5158350000000  0.4128440000000  0.4929890000000 1.0
C      1  0.4841650000000  0.4128440000000  0.5070110000000 1.0
C      1  0.4841650000000  0.5871560000000  0.4929890000000 1.0
C      1  0.5133010000000  0.4462490000000  0.4634500000000 1.0
C      1  0.4634500000000  0.5133010000000  0.4462490000000 1.0
C      1  0.4462490000000  0.4634500000000  0.5133010000000 1.0
C      1  0.5133010000000  0.5537510000000  0.5365500000000 1.0
C      1  0.4866990000000  0.5537510000000  0.4634500000000 1.0
C      1  0.4866990000000  0.4462490000000  0.5365500000000 1.0
C      1  0.4634500000000  0.4866990000000  0.5537510000000 1.0
C      1  0.5365500000000  0.4866990000000  0.4462490000000 1.0
C      1  0.5365500000000  0.5133010000000  0.5537510000000 1.0
C      1  0.4462490000000  0.5365500000000  0.4866990000000 1.0
C      1  0.5537510000000  0.5365500000000  0.5133010000000 1.0
C      1  0.5537510000000  0.4634500000000  0.4866990000000 1.0
C      1  0.4866990000000  0.4462490000000  0.4634500000000 1.0
C      1  0.5365500000000  0.5133010000000  0.4462490000000 1.0
C      1  0.5537510000000  0.4634500000000  0.5133010000000 1.0
C      1  0.4866990000000  0.5537510000000  0.5365500000000 1.0
C      1  0.5133010000000  0.5537510000000  0.4634500000000 1.0
C      1  0.5133010000000  0.4462490000000  0.5365500000000 1.0
C      1  0.5365500000000  0.4866990000000  0.5537510000000 1.0
C      1  0.4634500000000  0.4866990000000  0.4462490000000 1.0
C      1  0.4634500000000  0.5133010000000  0.5537510000000 1.0
C      1  0.5537510000000  0.5365500000000  0.4866990000000 1.0
C      1  0.4462490000000  0.5365500000000  0.5133010000000 1.0
C      1  0.4462490000000  0.4634500000000  0.4866990000000 1.0
C      1  0.4697230000000  0.5578140000000  0.5584420000000 1.0
C      1  0.5584420000000  0.4697220000000  0.5578140000000 1.0
C      1  0.5578140000000  0.5584420000000  0.4697220000000 1.0
C      1  0.4697230000000  0.4421860000000  0.4415580000000 1.0
C      1  0.5302770000000  0.4421860000000  0.5584420000000 1.0
C      1  0.5302770000000  0.5578140000000  0.4415580000000 1.0
C      1  0.5584420000000  0.5302780000000  0.4421860000000 1.0
C      1  0.4415580000000  0.5302780000000  0.5578140000000 1.0
C      1  0.4415580000000  0.4697220000000  0.4421860000000 1.0
C      1  0.5578140000000  0.4415580000000  0.5302780000000 1.0
C      1  0.4421860000000  0.4415580000000  0.4697220000000 1.0
C      1  0.4421860000000  0.5584420000000  0.5302780000000 1.0
C      1  0.5302780000000  0.5578140000000  0.5584420000000 1.0
C      1  0.4415580000000  0.4697220000000  0.5578140000000 1.0
C      1  0.4421860000000  0.5584420000000  0.4697220000000 1.0
C      1  0.5302780000000  0.4421860000000  0.4415580000000 1.0
C      1  0.4697220000000  0.4421860000000  0.5584420000000 1.0
C      1  0.4697220000000  0.5578140000000  0.4415580000000 1.0
C      1  0.4415580000000  0.5302780000000  0.4421860000000 1.0
C      1  0.5584420000000  0.5302780000000  0.5578140000000 1.0
C      1  0.5584420000000  0.4697220000000  0.4421860000000 1.0
C      1  0.4421860000000  0.4415580000000  0.5302770000000 1.0
C      1  0.5578140000000  0.4415580000000  0.4697230000000 1.0
C      1  0.5578140000000  0.5584420000000  0.5302780000000 1.0
C      1  0.4922050000000  0.5072910000000  0.4254460000000 1.0
C      1  0.4254450000000  0.4922060000000  0.5072910000000 1.0
C      1  0.5072910000000  0.4254450000000  0.4922060000000 1.0
C      1  0.4922050000000  0.4927090000000  0.5745540000000 1.0
C      1  0.5077950000000  0.4927090000000  0.4254460000000 1.0
C      1  0.5077950000000  0.5072910000000  0.5745540000000 1.0
C      1  0.4254450000000  0.5077940000000  0.4927090000000 1.0
C      1  0.5745550000000  0.5077940000000  0.5072910000000 1.0
C      1  0.5745550000000  0.4922060000000  0.4927090000000 1.0
C      1  0.5072910000000  0.5745540000000  0.5077950000000 1.0
C      1  0.4927090000000  0.5745540000000  0.4922050000000 1.0
C      1  0.4927090000000  0.4254460000000  0.5077940000000 1.0
C      1  0.5077940000000  0.5072910000000  0.4254450000000 1.0
C      1  0.5745540000000  0.4922050000000  0.5072910000000 1.0
C      1  0.4927090000000  0.4254460000000  0.4922050000000 1.0
C      1  0.5077940000000  0.4927090000000  0.5745550000000 1.0
C      1  0.4922060000000  0.4927090000000  0.4254460000000 1.0
C      1  0.4922060000000  0.5072910000000  0.5745550000000 1.0
C      1  0.5745540000000  0.5077950000000  0.4927090000000 1.0
C      1  0.4254460000000  0.5077950000000  0.5072910000000 1.0
C      1  0.4254460000000  0.4922050000000  0.4927090000000 1.0
C      1  0.4927090000000  0.5745540000000  0.5077940000000 1.0
C      1  0.5072910000000  0.5745550000000  0.4922060000000 1.0
C      1  0.5072910000000  0.4254460000000  0.5077950000000 1.0
C      1  0.5610580000000  0.4882370000000  0.4873950000000 1.0
C      1  0.4873950000000  0.5610580000000  0.4882370000000 1.0
C      1  0.4882370000000  0.4873950000000  0.5610580000000 1.0
C      1  0.5610580000000  0.5117630000000  0.5126050000000 1.0
C      1  0.4389420000000  0.5117630000000  0.4873950000000 1.0
C      1  0.4389420000000  0.4882370000000  0.5126050000000 1.0
C      1  0.4873950000000  0.4389420000000  0.5117630000000 1.0
C      1  0.5126050000000  0.4389420000000  0.4882370000000 1.0
C      1  0.5126050000000  0.5610580000000  0.5117630000000 1.0
C      1  0.4882370000000  0.5126050000000  0.4389420000000 1.0
C      1  0.5117630000000  0.5126050000000  0.5610580000000 1.0
C      1  0.5117630000000  0.4873950000000  0.4389420000000 1.0
C      1  0.4389420000000  0.4882370000000  0.4873950000000 1.0
C      1  0.5126050000000  0.5610580000000  0.4882370000000 1.0
C      1  0.5117630000000  0.4873950000000  0.5610580000000 1.0
C      1  0.4389420000000  0.5117630000000  0.5126050000000 1.0
C      1  0.5610580000000  0.5117630000000  0.4873950000000 1.0
C      1  0.5610580000000  0.4882370000000  0.5126050000000 1.0
C      1  0.5126050000000  0.4389420000000  0.5117630000000 1.0
C      1  0.4873950000000  0.4389420000000  0.4882370000000 1.0
C      1  0.4873950000000  0.5610580000000  0.5117630000000 1.0
C      1  0.5117630000000  0.5126050000000  0.4389420000000 1.0
C      1  0.4882370000000  0.5126050000000  0.5610580000000 1.0
C      1  0.4882370000000  0.4873950000000  0.4389420000000 1.0
C      1  0.4214920000000  0.4612530000000  0.5151420000000 1.0
C      1  0.5151420000000  0.4214920000000  0.4612530000000 1.0
C      1  0.4612530000000  0.5151420000000  0.4214920000000 1.0
C      1  0.4214920000000  0.5387470000000  0.4848580000000 1.0
C      1  0.5785080000000  0.5387470000000  0.5151420000000 1.0
C      1  0.5785080000000  0.4612530000000  0.4848580000000 1.0
C      1  0.5151420000000  0.5785080000000  0.5387470000000 1.0
C      1  0.4848580000000  0.5785080000000  0.4612530000000 1.0
C      1  0.4848580000000  0.4214920000000  0.5387470000000 1.0
C      1  0.4612530000000  0.4848580000000  0.5785080000000 1.0
C      1  0.5387470000000  0.4848580000000  0.4214920000000 1.0
C      1  0.5387470000000  0.5151420000000  0.5785080000000 1.0
C      1  0.5785080000000  0.4612530000000  0.5151420000000 1.0
C      1  0.4848580000000  0.4214920000000  0.4612530000000 1.0
C      1  0.5387470000000  0.5151420000000  0.4214920000000 1.0
C      1  0.5785080000000  0.5387470000000  0.4848580000000 1.0
C      1  0.4214920000000  0.5387470000000  0.5151420000000 1.0
C      1  0.4214920000000  0.4612530000000  0.4848580000000 1.0
C      1  0.4848580000000  0.5785080000000  0.5387470000000 1.0
C      1  0.5151420000000  0.5785080000000  0.4612530000000 1.0
C      1  0.5151420000000  0.4214920000000  0.5387470000000 1.0
C      1  0.5387470000000  0.4848580000000  0.5785080000000 1.0
C      1  0.4612530000000  0.4848580000000  0.4214920000000 1.0
C      1  0.4612530000000  0.5151420000000  0.5785080000000 1.0
C      1  0.5480650000000  0.5772770000000  0.4838100000000 1.0
C      1  0.4838100000000  0.5480650000000  0.5772770000000 1.0
C      1  0.5772770000000  0.4838100000000  0.5480650000000 1.0
C      1  0.5480650000000  0.4227230000000  0.5161900000000 1.0
C      1  0.4519350000000  0.4227230000000  0.4838100000000 1.0
C      1  0.4519350000000  0.5772770000000  0.5161900000000 1.0
C      1  0.4838100000000  0.4519350000000  0.4227230000000 1.0
C      1  0.5161900000000  0.4519350000000  0.5772770000000 1.0
C      1  0.5161900000000  0.5480650000000  0.4227230000000 1.0
C      1  0.5772770000000  0.5161900000000  0.4519350000000 1.0
C      1  0.4227230000000  0.5161900000000  0.5480650000000 1.0
C      1  0.4227230000000  0.4838100000000  0.4519350000000 1.0
C      1  0.4519350000000  0.5772770000000  0.4838100000000 1.0
C      1  0.5161900000000  0.5480650000000  0.5772770000000 1.0
C      1  0.4227230000000  0.4838100000000  0.5480650000000 1.0
C      1  0.4519350000000  0.4227230000000  0.5161900000000 1.0
C      1  0.5480650000000  0.4227230000000  0.4838100000000 1.0
C      1  0.5480650000000  0.5772770000000  0.5161900000000 1.0
C      1  0.5161900000000  0.4519350000000  0.4227230000000 1.0
C      1  0.4838100000000  0.4519350000000  0.5772770000000 1.0
C      1  0.4838100000000  0.5480650000000  0.4227230000000 1.0
C      1  0.4227230000000  0.5161900000000  0.4519350000000 1.0
C      1  0.5772770000000  0.5161900000000  0.5480650000000 1.0
C      1  0.5772770000000  0.4838100000000  0.4519350000000 1.0
C      1  0.5336450000000  0.5495440000000  0.4863080000000 1.0
C      1  0.4863080000000  0.5336450000000  0.5495440000000 1.0
C      1  0.5495440000000  0.4863080000000  0.5336450000000 1.0
C      1  0.5336450000000  0.4504560000000  0.5136920000000 1.0
C      1  0.4663550000000  0.4504560000000  0.4863080000000 1.0
C      1  0.4663550000000  0.5495440000000  0.5136920000000 1.0
C      1  0.4863080000000  0.4663550000000  0.4504560000000 1.0
C      1  0.5136920000000  0.4663550000000  0.5495440000000 1.0
C      1  0.5136920000000  0.5336450000000  0.4504560000000 1.0
C      1  0.5495440000000  0.5136920000000  0.4663550000000 1.0
C      1  0.4504560000000  0.5136920000000  0.5336450000000 1.0
C      1  0.4504560000000  0.4863080000000  0.4663550000000 1.0
C      1  0.4663550000000  0.5495440000000  0.4863080000000 1.0
C      1  0.5136920000000  0.5336450000000  0.5495440000000 1.0
C      1  0.4504560000000  0.4863080000000  0.5336450000000 1.0
C      1  0.4663550000000  0.4504560000000  0.5136920000000 1.0
C      1  0.5336450000000  0.4504560000000  0.4863080000000 1.0
C      1  0.5336450000000  0.5495440000000  0.5136920000000 1.0
C      1  0.5136920000000  0.4663550000000  0.4504560000000 1.0
C      1  0.4863080000000  0.4663550000000  0.5495440000000 1.0
C      1  0.4863080000000  0.5336450000000  0.4504560000000 1.0
C      1  0.4504560000000  0.5136920000000  0.4663550000000 1.0
C      1  0.5495440000000  0.5136920000000  0.5336450000000 1.0
C      1  0.5495440000000  0.4863080000000  0.4663550000000 1.0
C      1  0.4933200000000  0.4475650000000  0.5000000000000 1.0
C      1  0.5000000000000  0.4933200000000  0.4475650000000 1.0
C      1  0.4475650000000  0.5000000000000  0.4933200000000 1.0
C      1  0.4933200000000  0.5524350000000  0.5000000000000 1.0
C      1  0.5066800000000  0.5524350000000  0.5000000000000 1.0
C      1  0.5066800000000  0.4475650000000  0.5000000000000 1.0
C      1  0.5000000000000  0.5066800000000  0.4475650000000 1.0
C      1  0.5000000000000  0.4933200000000  0.5524350000000 1.0
C      1  0.4475650000000  0.5000000000000  0.5066800000000 1.0
C      1  0.5524350000000  0.5000000000000  0.4933200000000 1.0
C      1  0.5524350000000  0.5000000000000  0.5066800000000 1.0
C      1  0.5000000000000  0.5066800000000  0.5524350000000 1.0
END
