TITL C-1379265-1223-19 3.52249220208827e-06 1000000 -3513.02077596712 0 0 500 (Th) n - 1
REM
REM in /nfs/bkarasulu/CARBON/AIRSS/Generating-Clusters/GAP-ML-2020/Higher-Symm/Selected-Sizes/TryA-Only_Ih-Symm/Larger-Clusters/Try2-MINAMP_6A
REM
REM
REM
REM
REM
REM ./C.cell (31579ac4e95a012ec27f3239692ae8a5)
REM
REM compiler GCC version 9.2.1 20190827 (Red Hat 9.2.1-1)
REM options -cpp -mtune=generic -march=x86-64 -g -O0 -fpre-include=/usr/include/finclude/math-vector-fortran.h
REM seed 14668866 -1837388977 -180147769 -641230910 2033637041 773790607 1621082535 1036959094 42714996 -1322841054 1546742546 -348378731 1208308848 -468145784 1118514447 -1410278627 -1369747873 98981547 1841873024 962668749 1403125955 1619625333 2080945250 -1754265710 2138663599 2114220672 -807540740 -1391979023 -1877375311 1641944470 -1841562465 2091225554 1454294893
REM
CELL 1.54180  100.00000  100.00000  100.00000   90.00000   90.00000   90.00000
LATT -1
SFAC C  
C      1  0.5070650000000  0.5171560000000  0.5826000000000 1.0
C      1  0.5170870000000  0.5825680000000  0.5071660000000 1.0
C      1  0.5824990000000  0.5071340000000  0.5171880000000 1.0
C      1  0.4928720000000  0.5171560000000  0.4175390000000 1.0
C      1  0.4928720000000  0.4829190000000  0.5826000000000 1.0
C      1  0.5070650000000  0.4829190000000  0.4175390000000 1.0
C      1  0.4828500000000  0.5825680000000  0.4929730000000 1.0
C      1  0.4828500000000  0.4175070000000  0.5071660000000 1.0
C      1  0.5170870000000  0.4175070000000  0.4929730000000 1.0
C      1  0.4174380000000  0.5071340000000  0.4829510000000 1.0
C      1  0.4174380000000  0.4929410000000  0.5171880000000 1.0
C      1  0.5824990000000  0.4929410000000  0.4829510000000 1.0
C      1  0.5070650000000  0.4829190000000  0.5826000000000 1.0
C      1  0.5170870000000  0.4175070000000  0.5071660000000 1.0
C      1  0.5824990000000  0.4929410000000  0.5171880000000 1.0
C      1  0.4928720000000  0.4829190000000  0.4175390000000 1.0
C      1  0.4928720000000  0.5171560000000  0.5826000000000 1.0
C      1  0.5070650000000  0.5171560000000  0.4175390000000 1.0
C      1  0.4828500000000  0.4175080000000  0.4929730000000 1.0
C      1  0.4828500000000  0.5825680000000  0.5071660000000 1.0
C      1  0.5170870000000  0.5825680000000  0.4929730000000 1.0
C      1  0.4174380000000  0.4929410000000  0.4829510000000 1.0
C      1  0.4174380000000  0.5071340000000  0.5171880000000 1.0
C      1  0.5824990000000  0.5071340000000  0.4829510000000 1.0
C      1  0.4648750000000  0.4478340000000  0.4506060000000 1.0
C      1  0.4477640000000  0.4505750000000  0.4649760000000 1.0
C      1  0.4505060000000  0.4649450000000  0.4478650000000 1.0
C      1  0.5350620000000  0.4478340000000  0.5495320000000 1.0
C      1  0.5350620000000  0.5522420000000  0.4506060000000 1.0
C      1  0.4648750000000  0.5522420000000  0.5495320000000 1.0
C      1  0.5521720000000  0.4505750000000  0.5351630000000 1.0
C      1  0.5521720000000  0.5495010000000  0.4649760000000 1.0
C      1  0.4477640000000  0.5495010000000  0.5351620000000 1.0
C      1  0.5494310000000  0.4649450000000  0.5522730000000 1.0
C      1  0.5494310000000  0.5351310000000  0.4478650000000 1.0
C      1  0.4505060000000  0.5351310000000  0.5522730000000 1.0
C      1  0.4648750000000  0.5522420000000  0.4506060000000 1.0
C      1  0.4477640000000  0.5495010000000  0.4649760000000 1.0
C      1  0.4505060000000  0.5351310000000  0.4478650000000 1.0
C      1  0.5350620000000  0.5522420000000  0.5495320000000 1.0
C      1  0.5350620000000  0.4478340000000  0.4506060000000 1.0
C      1  0.4648750000000  0.4478340000000  0.5495320000000 1.0
C      1  0.5521720000000  0.5495010000000  0.5351630000000 1.0
C      1  0.5521720000000  0.4505750000000  0.4649760000000 1.0
C      1  0.4477640000000  0.4505750000000  0.5351620000000 1.0
C      1  0.5494310000000  0.5351310000000  0.5522730000000 1.0
C      1  0.5494310000000  0.4649450000000  0.4478650000000 1.0
C      1  0.4505060000000  0.4649450000000  0.5522730000000 1.0
C      1  0.4810770000000  0.4653630000000  0.5074730000000 1.0
C      1  0.4652930000000  0.5074410000000  0.4811780000000 1.0
C      1  0.5073720000000  0.4811460000000  0.4653940000000 1.0
C      1  0.5188600000000  0.4653630000000  0.4926660000000 1.0
C      1  0.5188600000000  0.5347130000000  0.5074730000000 1.0
C      1  0.4810770000000  0.5347130000000  0.4926660000000 1.0
C      1  0.5346440000000  0.5074410000000  0.5189610000000 1.0
C      1  0.5346440000000  0.4926340000000  0.4811780000000 1.0
C      1  0.4652930000000  0.4926340000000  0.5189610000000 1.0
C      1  0.4925650000000  0.4811460000000  0.5347440000000 1.0
C      1  0.4925650000000  0.5189290000000  0.4653940000000 1.0
C      1  0.5073720000000  0.5189290000000  0.5347440000000 1.0
C      1  0.4810770000000  0.5347130000000  0.5074730000000 1.0
C      1  0.4652930000000  0.4926340000000  0.4811780000000 1.0
C      1  0.5073720000000  0.5189290000000  0.4653940000000 1.0
C      1  0.5188600000000  0.5347130000000  0.4926660000000 1.0
C      1  0.5188600000000  0.4653630000000  0.5074730000000 1.0
C      1  0.4810770000000  0.4653630000000  0.4926660000000 1.0
C      1  0.5346440000000  0.4926340000000  0.5189610000000 1.0
C      1  0.5346440000000  0.5074410000000  0.4811780000000 1.0
C      1  0.4652930000000  0.5074410000000  0.5189610000000 1.0
C      1  0.4925650000000  0.5189290000000  0.5347440000000 1.0
C      1  0.4925650000000  0.4811460000000  0.4653940000000 1.0
C      1  0.5073720000000  0.4811460000000  0.5347440000000 1.0
C      1  0.5130270000000  0.5482310000000  0.5603990000000 1.0
C      1  0.5481620000000  0.5603680000000  0.5131280000000 1.0
C      1  0.5602980000000  0.5130970000000  0.5482630000000 1.0
C      1  0.4869090000000  0.5482310000000  0.4397390000000 1.0
C      1  0.4869090000000  0.4518440000000  0.5603990000000 1.0
C      1  0.5130270000000  0.4518440000000  0.4397390000000 1.0
C      1  0.4517750000000  0.5603680000000  0.4870100000000 1.0
C      1  0.4517750000000  0.4397080000000  0.5131280000000 1.0
C      1  0.5481620000000  0.4397080000000  0.4870100000000 1.0
C      1  0.4396390000000  0.5130970000000  0.4518760000000 1.0
C      1  0.4396390000000  0.4869790000000  0.5482630000000 1.0
C      1  0.5602980000000  0.4869790000000  0.4518760000000 1.0
C      1  0.5130270000000  0.4518440000000  0.5603990000000 1.0
C      1  0.5481620000000  0.4397080000000  0.5131280000000 1.0
C      1  0.5602980000000  0.4869790000000  0.5482630000000 1.0
C      1  0.4869090000000  0.4518440000000  0.4397390000000 1.0
C      1  0.4869090000000  0.5482310000000  0.5603990000000 1.0
C      1  0.5130270000000  0.5482310000000  0.4397390000000 1.0
C      1  0.4517750000000  0.4397080000000  0.4870100000000 1.0
C      1  0.4517750000000  0.5603680000000  0.5131280000000 1.0
C      1  0.5481620000000  0.5603680000000  0.4870100000000 1.0
C      1  0.4396390000000  0.4869790000000  0.4518760000000 1.0
C      1  0.4396390000000  0.5130970000000  0.5482630000000 1.0
C      1  0.5602980000000  0.5130970000000  0.4518760000000 1.0
C      1  0.4877350000000  0.5536940000000  0.4930720000000 1.0
C      1  0.5536250000000  0.4930410000000  0.4878360000000 1.0
C      1  0.4929710000000  0.4878050000000  0.5537260000000 1.0
C      1  0.5122020000000  0.5536940000000  0.5070660000000 1.0
C      1  0.5122020000000  0.4463810000000  0.4930720000000 1.0
C      1  0.4877350000000  0.4463810000000  0.5070660000000 1.0
C      1  0.4463120000000  0.4930410000000  0.5123030000000 1.0
C      1  0.4463120000000  0.5070350000000  0.4878360000000 1.0
C      1  0.5536250000000  0.5070350000000  0.5123030000000 1.0
C      1  0.5069660000000  0.4878050000000  0.4464130000000 1.0
C      1  0.5069660000000  0.5122710000000  0.5537260000000 1.0
C      1  0.4929710000000  0.5122710000000  0.4464130000000 1.0
C      1  0.4877350000000  0.4463810000000  0.4930720000000 1.0
C      1  0.5536250000000  0.5070350000000  0.4878360000000 1.0
C      1  0.4929710000000  0.5122710000000  0.5537260000000 1.0
C      1  0.5122020000000  0.4463810000000  0.5070660000000 1.0
C      1  0.5122020000000  0.5536940000000  0.4930720000000 1.0
C      1  0.4877350000000  0.5536940000000  0.5070660000000 1.0
C      1  0.4463120000000  0.5070350000000  0.5123030000000 1.0
C      1  0.4463120000000  0.4930410000000  0.4878360000000 1.0
C      1  0.5536250000000  0.4930410000000  0.5123030000000 1.0
C      1  0.5069660000000  0.5122710000000  0.4464130000000 1.0
C      1  0.5069660000000  0.4878050000000  0.5537260000000 1.0
C      1  0.4929710000000  0.4878050000000  0.4464130000000 1.0
C      1  0.5446440000000  0.5167690000000  0.5661290000000 1.0
C      1  0.5167000000000  0.5660970000000  0.5447450000000 1.0
C      1  0.5660280000000  0.5447140000000  0.5168010000000 1.0
C      1  0.4552930000000  0.5167690000000  0.4340100000000 1.0
C      1  0.4552930000000  0.4833060000000  0.5661290000000 1.0
C      1  0.5446440000000  0.4833060000000  0.4340100000000 1.0
C      1  0.4832370000000  0.5660970000000  0.4553940000000 1.0
C      1  0.4832370000000  0.4339780000000  0.5447450000000 1.0
C      1  0.5167000000000  0.4339780000000  0.4553940000000 1.0
C      1  0.4339090000000  0.5447140000000  0.4833380000000 1.0
C      1  0.4339090000000  0.4553620000000  0.5168010000000 1.0
C      1  0.5660280000000  0.4553620000000  0.4833380000000 1.0
C      1  0.5446440000000  0.4833060000000  0.5661290000000 1.0
C      1  0.5167000000000  0.4339780000000  0.5447450000000 1.0
C      1  0.5660280000000  0.4553620000000  0.5168010000000 1.0
C      1  0.4552930000000  0.4833060000000  0.4340100000000 1.0
C      1  0.4552930000000  0.5167690000000  0.5661290000000 1.0
C      1  0.5446440000000  0.5167690000000  0.4340100000000 1.0
C      1  0.4832370000000  0.4339780000000  0.4553940000000 1.0
C      1  0.4832370000000  0.5660970000000  0.5447450000000 1.0
C      1  0.5167000000000  0.5660970000000  0.4553940000000 1.0
C      1  0.4339090000000  0.4553620000000  0.4833380000000 1.0
C      1  0.4339090000000  0.5447140000000  0.5168010000000 1.0
C      1  0.5660280000000  0.5447140000000  0.4833380000000 1.0
C      1  0.5434670000000  0.5299370000000  0.5079620000000 1.0
C      1  0.5298680000000  0.5079300000000  0.5435680000000 1.0
C      1  0.5078610000000  0.5435370000000  0.5299690000000 1.0
C      1  0.4564700000000  0.5299370000000  0.4921770000000 1.0
C      1  0.4564700000000  0.4701380000000  0.5079620000000 1.0
C      1  0.5434670000000  0.4701380000000  0.4921770000000 1.0
C      1  0.4700690000000  0.5079300000000  0.4565710000000 1.0
C      1  0.4700690000000  0.4921450000000  0.5435680000000 1.0
C      1  0.5298680000000  0.4921450000000  0.4565710000000 1.0
C      1  0.4920760000000  0.5435370000000  0.4701700000000 1.0
C      1  0.4920760000000  0.4565390000000  0.5299690000000 1.0
C      1  0.5078610000000  0.4565390000000  0.4701700000000 1.0
C      1  0.5434670000000  0.4701380000000  0.5079620000000 1.0
C      1  0.5298680000000  0.4921450000000  0.5435680000000 1.0
C      1  0.5078610000000  0.4565390000000  0.5299690000000 1.0
C      1  0.4564700000000  0.4701380000000  0.4921770000000 1.0
C      1  0.4564700000000  0.5299370000000  0.5079620000000 1.0
C      1  0.5434670000000  0.5299370000000  0.4921770000000 1.0
C      1  0.4700690000000  0.4921450000000  0.4565710000000 1.0
C      1  0.4700690000000  0.5079300000000  0.5435680000000 1.0
C      1  0.5298680000000  0.5079300000000  0.4565710000000 1.0
C      1  0.4920760000000  0.4565390000000  0.4701700000000 1.0
C      1  0.4920760000000  0.5435370000000  0.5299690000000 1.0
C      1  0.5078610000000  0.5435370000000  0.4701700000000 1.0
C      1  0.4774560000000  0.4389830000000  0.4859640000000 1.0
C      1  0.4389130000000  0.4859320000000  0.4775570000000 1.0
C      1  0.4858630000000  0.4775250000000  0.4390140000000 1.0
C      1  0.5224810000000  0.4389830000000  0.5141750000000 1.0
C      1  0.5224810000000  0.5610930000000  0.4859640000000 1.0
C      1  0.4774560000000  0.5610930000000  0.5141750000000 1.0
C      1  0.5610230000000  0.4859320000000  0.5225820000000 1.0
C      1  0.5610230000000  0.5141430000000  0.4775570000000 1.0
C      1  0.4389130000000  0.5141430000000  0.5225820000000 1.0
C      1  0.5140740000000  0.4775250000000  0.5611240000000 1.0
C      1  0.5140740000000  0.5225500000000  0.4390140000000 1.0
C      1  0.4858630000000  0.5225500000000  0.5611240000000 1.0
C      1  0.4774560000000  0.5610930000000  0.4859640000000 1.0
C      1  0.4389130000000  0.5141430000000  0.4775570000000 1.0
C      1  0.4858630000000  0.5225500000000  0.4390140000000 1.0
C      1  0.5224810000000  0.5610930000000  0.5141750000000 1.0
C      1  0.5224810000000  0.4389830000000  0.4859640000000 1.0
C      1  0.4774560000000  0.4389830000000  0.5141750000000 1.0
C      1  0.5610230000000  0.5141430000000  0.5225820000000 1.0
C      1  0.5610230000000  0.4859320000000  0.4775570000000 1.0
C      1  0.4389130000000  0.4859320000000  0.5225820000000 1.0
C      1  0.5140740000000  0.5225500000000  0.5611240000000 1.0
C      1  0.5140740000000  0.4775250000000  0.4390140000000 1.0
C      1  0.4858630000000  0.4775250000000  0.5611240000000 1.0
C      1  0.5188590000000  0.4662930000000  0.5512110000000 1.0
C      1  0.4662240000000  0.5511790000000  0.5189600000000 1.0
C      1  0.5511100000000  0.5189290000000  0.4663250000000 1.0
C      1  0.4810770000000  0.4662930000000  0.4489280000000 1.0
C      1  0.4810770000000  0.5337820000000  0.5512110000000 1.0
C      1  0.5188590000000  0.5337820000000  0.4489280000000 1.0
C      1  0.5337130000000  0.5511790000000  0.4811780000000 1.0
C      1  0.5337130000000  0.4488960000000  0.5189600000000 1.0
C      1  0.4662240000000  0.4488960000000  0.4811780000000 1.0
C      1  0.4488270000000  0.5189290000000  0.5338140000000 1.0
C      1  0.4488270000000  0.4811470000000  0.4663250000000 1.0
C      1  0.5511100000000  0.4811470000000  0.5338140000000 1.0
C      1  0.5188590000000  0.5337820000000  0.5512110000000 1.0
C      1  0.4662240000000  0.4488960000000  0.5189600000000 1.0
C      1  0.5511100000000  0.4811470000000  0.4663250000000 1.0
C      1  0.4810770000000  0.5337820000000  0.4489280000000 1.0
C      1  0.4810770000000  0.4662930000000  0.5512110000000 1.0
C      1  0.5188590000000  0.4662930000000  0.4489280000000 1.0
C      1  0.5337130000000  0.4488960000000  0.4811780000000 1.0
C      1  0.5337130000000  0.5511790000000  0.5189600000000 1.0
C      1  0.4662240000000  0.5511790000000  0.4811780000000 1.0
C      1  0.4488270000000  0.4811470000000  0.5338140000000 1.0
C      1  0.4488270000000  0.5189290000000  0.4663250000000 1.0
C      1  0.5511100000000  0.5189290000000  0.5338140000000 1.0
C      1  0.5722330000000  0.5172530000000  0.4594340000000 1.0
C      1  0.5171840000000  0.4594020000000  0.5723340000000 1.0
C      1  0.4593330000000  0.5723030000000  0.5172850000000 1.0
C      1  0.4277040000000  0.5172530000000  0.5407050000000 1.0
C      1  0.4277040000000  0.4828220000000  0.4594340000000 1.0
C      1  0.5722330000000  0.4828220000000  0.5407050000000 1.0
C      1  0.4827530000000  0.4594020000000  0.4278050000000 1.0
C      1  0.4827530000000  0.5406730000000  0.5723340000000 1.0
C      1  0.5171840000000  0.5406730000000  0.4278050000000 1.0
C      1  0.5406040000000  0.5723030000000  0.4828540000000 1.0
C      1  0.5406040000000  0.4277730000000  0.5172850000000 1.0
C      1  0.4593330000000  0.4277730000000  0.4828540000000 1.0
C      1  0.5722330000000  0.4828220000000  0.4594340000000 1.0
C      1  0.5171840000000  0.5406730000000  0.5723340000000 1.0
C      1  0.4593330000000  0.4277730000000  0.5172850000000 1.0
C      1  0.4277040000000  0.4828220000000  0.5407050000000 1.0
C      1  0.4277040000000  0.5172530000000  0.4594340000000 1.0
C      1  0.5722330000000  0.5172530000000  0.5407050000000 1.0
C      1  0.4827530000000  0.5406730000000  0.4278050000000 1.0
C      1  0.4827530000000  0.4594020000000  0.5723340000000 1.0
C      1  0.5171840000000  0.4594020000000  0.4278050000000 1.0
C      1  0.5406040000000  0.4277730000000  0.4828540000000 1.0
C      1  0.5406040000000  0.5723030000000  0.5172850000000 1.0
C      1  0.4593330000000  0.5723030000000  0.4828540000000 1.0
C      1  0.4652020000000  0.4759370000000  0.5733480000000 1.0
C      1  0.4758680000000  0.5733160000000  0.4653030000000 1.0
C      1  0.5732470000000  0.4652710000000  0.4759690000000 1.0
C      1  0.5347350000000  0.4759370000000  0.4267910000000 1.0
C      1  0.5347350000000  0.5241380000000  0.5733480000000 1.0
C      1  0.4652020000000  0.5241380000000  0.4267910000000 1.0
C      1  0.5240690000000  0.5733160000000  0.5348360000000 1.0
C      1  0.5240690000000  0.4267590000000  0.4653030000000 1.0
C      1  0.4758680000000  0.4267590000000  0.5348360000000 1.0
C      1  0.4266900000000  0.4652710000000  0.5241700000000 1.0
C      1  0.4266900000000  0.5348040000000  0.4759690000000 1.0
C      1  0.5732470000000  0.5348040000000  0.5241700000000 1.0
C      1  0.4652020000000  0.5241380000000  0.5733480000000 1.0
C      1  0.4758680000000  0.4267590000000  0.4653030000000 1.0
C      1  0.5732470000000  0.5348040000000  0.4759690000000 1.0
C      1  0.5347350000000  0.5241380000000  0.4267910000000 1.0
C      1  0.5347350000000  0.4759370000000  0.5733480000000 1.0
C      1  0.4652020000000  0.4759370000000  0.4267910000000 1.0
C      1  0.5240690000000  0.4267590000000  0.5348360000000 1.0
C      1  0.5240690000000  0.5733160000000  0.4653030000000 1.0
C      1  0.4758680000000  0.5733160000000  0.5348360000000 1.0
C      1  0.4266900000000  0.5348040000000  0.5241700000000 1.0
C      1  0.4266900000000  0.4652710000000  0.4759690000000 1.0
C      1  0.5732470000000  0.4652710000000  0.5241700000000 1.0
C      1  0.5580320000000  0.5543390000000  0.4774150000000 1.0
C      1  0.5542700000000  0.4773840000000  0.5581330000000 1.0
C      1  0.4773140000000  0.5581010000000  0.5543700000000 1.0
C      1  0.4419050000000  0.5543390000000  0.5227240000000 1.0
C      1  0.4419050000000  0.4457370000000  0.4774150000000 1.0
C      1  0.5580320000000  0.4457370000000  0.5227240000000 1.0
C      1  0.4456670000000  0.4773840000000  0.4420060000000 1.0
C      1  0.4456670000000  0.5226920000000  0.5581320000000 1.0
C      1  0.5542700000000  0.5226920000000  0.4420060000000 1.0
C      1  0.5226230000000  0.5581010000000  0.4457680000000 1.0
C      1  0.5226230000000  0.4419750000000  0.5543700000000 1.0
C      1  0.4773140000000  0.4419750000000  0.4457680000000 1.0
C      1  0.5580320000000  0.4457370000000  0.4774150000000 1.0
C      1  0.5542700000000  0.5226920000000  0.5581330000000 1.0
C      1  0.4773140000000  0.4419750000000  0.5543700000000 1.0
C      1  0.4419050000000  0.4457370000000  0.5227240000000 1.0
C      1  0.4419050000000  0.5543390000000  0.4774150000000 1.0
C      1  0.5580320000000  0.5543390000000  0.5227240000000 1.0
C      1  0.4456670000000  0.5226920000000  0.4420060000000 1.0
C      1  0.4456670000000  0.4773840000000  0.5581320000000 1.0
C      1  0.5542700000000  0.4773840000000  0.4420060000000 1.0
C      1  0.5226230000000  0.4419750000000  0.4457680000000 1.0
C      1  0.5226230000000  0.5581010000000  0.5543700000000 1.0
C      1  0.4773140000000  0.5581010000000  0.4457680000000 1.0
C      1  0.5074160000000  0.5592100000000  0.5347920000000 1.0
C      1  0.5591410000000  0.5347610000000  0.5075170000000 1.0
C      1  0.5346920000000  0.5074860000000  0.5592420000000 1.0
C      1  0.4925210000000  0.5592100000000  0.4653460000000 1.0
C      1  0.4925210000000  0.4408650000000  0.5347920000000 1.0
C      1  0.5074160000000  0.4408650000000  0.4653460000000 1.0
C      1  0.4407960000000  0.5347610000000  0.4926220000000 1.0
C      1  0.4407960000000  0.4653150000000  0.5075170000000 1.0
C      1  0.5591410000000  0.4653150000000  0.4926220000000 1.0
C      1  0.4652450000000  0.5074860000000  0.4408970000000 1.0
C      1  0.4652450000000  0.4925900000000  0.5592420000000 1.0
C      1  0.5346920000000  0.4925900000000  0.4408970000000 1.0
C      1  0.5074160000000  0.4408650000000  0.5347920000000 1.0
C      1  0.5591410000000  0.4653150000000  0.5075170000000 1.0
C      1  0.5346920000000  0.4925900000000  0.5592420000000 1.0
C      1  0.4925210000000  0.4408650000000  0.4653460000000 1.0
C      1  0.4925210000000  0.5592100000000  0.5347920000000 1.0
C      1  0.5074160000000  0.5592100000000  0.4653460000000 1.0
C      1  0.4407960000000  0.4653150000000  0.4926220000000 1.0
C      1  0.4407960000000  0.5347610000000  0.5075170000000 1.0
C      1  0.5591410000000  0.5347610000000  0.4926220000000 1.0
C      1  0.4652450000000  0.4925900000000  0.4408970000000 1.0
C      1  0.4652450000000  0.5074860000000  0.5592420000000 1.0
C      1  0.5346920000000  0.5074860000000  0.4408970000000 1.0
C      1  0.4706500000000  0.4266110000000  0.5077680000000 1.0
C      1  0.4265420000000  0.5077370000000  0.4707500000000 1.0
C      1  0.5076670000000  0.4707190000000  0.4266430000000 1.0
C      1  0.5292870000000  0.4266110000000  0.4923700000000 1.0
C      1  0.5292870000000  0.5734640000000  0.5077680000000 1.0
C      1  0.4706500000000  0.5734640000000  0.4923700000000 1.0
C      1  0.5733950000000  0.5077370000000  0.5293880000000 1.0
C      1  0.5733950000000  0.4923390000000  0.4707500000000 1.0
C      1  0.4265420000000  0.4923390000000  0.5293880000000 1.0
C      1  0.4922700000000  0.4707190000000  0.5734960000000 1.0
C      1  0.4922700000000  0.5293570000000  0.4266430000000 1.0
C      1  0.5076670000000  0.5293570000000  0.5734960000000 1.0
C      1  0.4706500000000  0.5734640000000  0.5077680000000 1.0
C      1  0.4265420000000  0.4923390000000  0.4707500000000 1.0
C      1  0.5076670000000  0.5293570000000  0.4266430000000 1.0
C      1  0.5292870000000  0.5734640000000  0.4923700000000 1.0
C      1  0.5292870000000  0.4266110000000  0.5077680000000 1.0
C      1  0.4706500000000  0.4266110000000  0.4923700000000 1.0
C      1  0.5733950000000  0.4923390000000  0.5293880000000 1.0
C      1  0.5733950000000  0.5077370000000  0.4707500000000 1.0
C      1  0.4265420000000  0.5077370000000  0.5293880000000 1.0
C      1  0.4922700000000  0.5293570000000  0.5734960000000 1.0
C      1  0.4922700000000  0.4707190000000  0.4266430000000 1.0
C      1  0.5076670000000  0.4707190000000  0.5734960000000 1.0
C      1  0.4623720000000  0.5137440000000  0.4680430000000 1.0
C      1  0.5136740000000  0.4680110000000  0.4624730000000 1.0
C      1  0.4679420000000  0.4624420000000  0.5137750000000 1.0
C      1  0.5375640000000  0.5137440000000  0.5320960000000 1.0
C      1  0.5375640000000  0.4863320000000  0.4680430000000 1.0
C      1  0.4623720000000  0.4863320000000  0.5320960000000 1.0
C      1  0.4862620000000  0.4680110000000  0.5376650000000 1.0
C      1  0.4862620000000  0.5320640000000  0.4624730000000 1.0
C      1  0.5136740000000  0.5320640000000  0.5376650000000 1.0
C      1  0.5319950000000  0.4624420000000  0.4863630000000 1.0
C      1  0.5319950000000  0.5376340000000  0.5137750000000 1.0
C      1  0.4679420000000  0.5376340000000  0.4863630000000 1.0
C      1  0.4623720000000  0.4863320000000  0.4680430000000 1.0
C      1  0.5136740000000  0.5320640000000  0.4624730000000 1.0
C      1  0.4679420000000  0.5376340000000  0.5137750000000 1.0
C      1  0.5375640000000  0.4863320000000  0.5320960000000 1.0
C      1  0.5375640000000  0.5137440000000  0.4680430000000 1.0
C      1  0.4623720000000  0.5137440000000  0.5320960000000 1.0
C      1  0.4862620000000  0.5320640000000  0.5376650000000 1.0
C      1  0.4862620000000  0.4680110000000  0.4624730000000 1.0
C      1  0.5136740000000  0.4680110000000  0.5376650000000 1.0
C      1  0.5319950000000  0.5376340000000  0.4863630000000 1.0
C      1  0.5319950000000  0.4624420000000  0.5137750000000 1.0
C      1  0.4679420000000  0.4624420000000  0.4863630000000 1.0
C      1  0.4922740000000  0.4581800000000  0.5145850000000 1.0
C      1  0.4581110000000  0.5145540000000  0.4923740000000 1.0
C      1  0.5144840000000  0.4923430000000  0.4582120000000 1.0
C      1  0.5076630000000  0.4581800000000  0.4855530000000 1.0
C      1  0.5076630000000  0.5418950000000  0.5145850000000 1.0
C      1  0.4922740000000  0.5418950000000  0.4855530000000 1.0
C      1  0.5418260000000  0.5145540000000  0.5077640000000 1.0
C      1  0.5418260000000  0.4855220000000  0.4923740000000 1.0
C      1  0.4581110000000  0.4855220000000  0.5077640000000 1.0
C      1  0.4854530000000  0.4923430000000  0.5419270000000 1.0
C      1  0.4854530000000  0.5077330000000  0.4582120000000 1.0
C      1  0.5144840000000  0.5077330000000  0.5419270000000 1.0
C      1  0.4922740000000  0.5418950000000  0.5145850000000 1.0
C      1  0.4581110000000  0.4855220000000  0.4923740000000 1.0
C      1  0.5144840000000  0.5077330000000  0.4582120000000 1.0
C      1  0.5076630000000  0.5418950000000  0.4855530000000 1.0
C      1  0.5076630000000  0.4581800000000  0.5145850000000 1.0
C      1  0.4922740000000  0.4581800000000  0.4855530000000 1.0
C      1  0.5418260000000  0.4855220000000  0.5077640000000 1.0
C      1  0.5418260000000  0.5145540000000  0.4923740000000 1.0
C      1  0.4581110000000  0.5145540000000  0.5077640000000 1.0
C      1  0.4854530000000  0.5077330000000  0.5419270000000 1.0
C      1  0.4854530000000  0.4923430000000  0.4582120000000 1.0
C      1  0.5144840000000  0.4923430000000  0.5419270000000 1.0
C      1  0.4753800000000  0.5142490000000  0.5689560000000 1.0
C      1  0.5141800000000  0.5689250000000  0.4754810000000 1.0
C      1  0.5688550000000  0.4754490000000  0.5142810000000 1.0
C      1  0.5245570000000  0.5142490000000  0.4311820000000 1.0
C      1  0.5245570000000  0.4858260000000  0.5689560000000 1.0
C      1  0.4753800000000  0.4858260000000  0.4311820000000 1.0
C      1  0.4857570000000  0.5689250000000  0.5246580000000 1.0
C      1  0.4857570000000  0.4311510000000  0.4754810000000 1.0
C      1  0.5141800000000  0.4311510000000  0.5246580000000 1.0
C      1  0.4310810000000  0.4754490000000  0.4858580000000 1.0
C      1  0.4310810000000  0.5246260000000  0.5142810000000 1.0
C      1  0.5688550000000  0.5246260000000  0.4858580000000 1.0
C      1  0.4753800000000  0.4858260000000  0.5689560000000 1.0
C      1  0.5141800000000  0.4311510000000  0.4754810000000 1.0
C      1  0.5688550000000  0.5246260000000  0.5142810000000 1.0
C      1  0.5245570000000  0.4858260000000  0.4311820000000 1.0
C      1  0.5245570000000  0.5142490000000  0.5689560000000 1.0
C      1  0.4753800000000  0.5142490000000  0.4311820000000 1.0
C      1  0.4857570000000  0.4311510000000  0.5246580000000 1.0
C      1  0.4857570000000  0.5689250000000  0.4754810000000 1.0
C      1  0.5141800000000  0.5689250000000  0.5246580000000 1.0
C      1  0.4310810000000  0.5246260000000  0.4858580000000 1.0
C      1  0.4310810000000  0.4754490000000  0.5142810000000 1.0
C      1  0.5688550000000  0.4754490000000  0.4858580000000 1.0
C      1  0.5795220000000  0.5169470000000  0.4930140000000 1.0
C      1  0.5168780000000  0.4929820000000  0.5796230000000 1.0
C      1  0.4929130000000  0.5795910000000  0.5169790000000 1.0
C      1  0.4204150000000  0.5169470000000  0.5071250000000 1.0
C      1  0.4204150000000  0.4831280000000  0.4930140000000 1.0
C      1  0.5795220000000  0.4831280000000  0.5071250000000 1.0
C      1  0.4830590000000  0.4929820000000  0.4205160000000 1.0
C      1  0.4830590000000  0.5070930000000  0.5796230000000 1.0
C      1  0.5168780000000  0.5070930000000  0.4205160000000 1.0
C      1  0.5070240000000  0.5795910000000  0.4831600000000 1.0
C      1  0.5070240000000  0.4204840000000  0.5169790000000 1.0
C      1  0.4929130000000  0.4204840000000  0.4831600000000 1.0
C      1  0.5795220000000  0.4831280000000  0.4930140000000 1.0
C      1  0.5168780000000  0.5070930000000  0.5796230000000 1.0
C      1  0.4929130000000  0.4204840000000  0.5169790000000 1.0
C      1  0.4204150000000  0.4831280000000  0.5071250000000 1.0
C      1  0.4204150000000  0.5169470000000  0.4930140000000 1.0
C      1  0.5795220000000  0.5169470000000  0.5071250000000 1.0
C      1  0.4830590000000  0.5070930000000  0.4205160000000 1.0
C      1  0.4830590000000  0.4929820000000  0.5796230000000 1.0
C      1  0.5168780000000  0.4929820000000  0.4205160000000 1.0
C      1  0.5070240000000  0.4204840000000  0.4831600000000 1.0
C      1  0.5070240000000  0.5795910000000  0.5169790000000 1.0
C      1  0.4929130000000  0.5795910000000  0.4831600000000 1.0
C      1  0.4300980000000  0.4691420000000  0.4629590000000 1.0
C      1  0.4690730000000  0.4629270000000  0.4301990000000 1.0
C      1  0.4628580000000  0.4301670000000  0.4691740000000 1.0
C      1  0.5698390000000  0.4691420000000  0.5371800000000 1.0
C      1  0.5698390000000  0.5309330000000  0.4629590000000 1.0
C      1  0.4300980000000  0.5309330000000  0.5371800000000 1.0
C      1  0.5308640000000  0.4629270000000  0.5699400000000 1.0
C      1  0.5308640000000  0.5371480000000  0.4301990000000 1.0
C      1  0.4690730000000  0.5371480000000  0.5699400000000 1.0
C      1  0.5370790000000  0.4301670000000  0.5309650000000 1.0
C      1  0.5370790000000  0.5699080000000  0.4691740000000 1.0
C      1  0.4628580000000  0.5699080000000  0.5309650000000 1.0
C      1  0.4300980000000  0.5309330000000  0.4629590000000 1.0
C      1  0.4690730000000  0.5371480000000  0.4301990000000 1.0
C      1  0.4628580000000  0.5699080000000  0.4691740000000 1.0
C      1  0.5698390000000  0.5309330000000  0.5371800000000 1.0
C      1  0.5698390000000  0.4691420000000  0.4629590000000 1.0
C      1  0.4300980000000  0.4691420000000  0.5371800000000 1.0
C      1  0.5308640000000  0.5371480000000  0.5699400000000 1.0
C      1  0.5308640000000  0.4629270000000  0.4301990000000 1.0
C      1  0.4690730000000  0.4629270000000  0.5699400000000 1.0
C      1  0.5370790000000  0.5699080000000  0.5309650000000 1.0
C      1  0.5370790000000  0.4301670000000  0.4691740000000 1.0
C      1  0.4628580000000  0.4301670000000  0.5309650000000 1.0
C      1  0.5546650000000  0.5336840000000  0.5382750000000 1.0
C      1  0.5336140000000  0.5382430000000  0.5547660000000 1.0
C      1  0.5381740000000  0.5547340000000  0.5337150000000 1.0
C      1  0.4452720000000  0.5336840000000  0.4618640000000 1.0
C      1  0.4452720000000  0.4663920000000  0.5382750000000 1.0
C      1  0.5546650000000  0.4663920000000  0.4618640000000 1.0
C      1  0.4663220000000  0.5382430000000  0.4453730000000 1.0
C      1  0.4663220000000  0.4618320000000  0.5547660000000 1.0
C      1  0.5336140000000  0.4618320000000  0.4453730000000 1.0
C      1  0.4617630000000  0.5547340000000  0.4664230000000 1.0
C      1  0.4617630000000  0.4453410000000  0.5337150000000 1.0
C      1  0.5381740000000  0.4453410000000  0.4664230000000 1.0
C      1  0.5546650000000  0.4663920000000  0.5382750000000 1.0
C      1  0.5336140000000  0.4618320000000  0.5547660000000 1.0
C      1  0.5381740000000  0.4453410000000  0.5337150000000 1.0
C      1  0.4452720000000  0.4663920000000  0.4618640000000 1.0
C      1  0.4452720000000  0.5336840000000  0.5382750000000 1.0
C      1  0.5546650000000  0.5336840000000  0.4618640000000 1.0
C      1  0.4663220000000  0.4618320000000  0.4453730000000 1.0
C      1  0.4663220000000  0.5382430000000  0.5547660000000 1.0
C      1  0.5336140000000  0.5382430000000  0.4453730000000 1.0
C      1  0.4617630000000  0.4453410000000  0.4664230000000 1.0
C      1  0.4617630000000  0.5547340000000  0.5337150000000 1.0
C      1  0.5381740000000  0.5547340000000  0.4664230000000 1.0
C      1  0.4999680000000  0.5521890000000  0.5583580000000 1.0
C      1  0.5582570000000  0.5000380000000  0.5522210000000 1.0
C      1  0.4999680000000  0.5521890000000  0.4417800000000 1.0
C      1  0.4999680000000  0.4478860000000  0.5583580000000 1.0
C      1  0.4999680000000  0.4478860000000  0.4417800000000 1.0
C      1  0.4478170000000  0.5583270000000  0.5000690000000 1.0
C      1  0.5521200000000  0.4417490000000  0.5000690000000 1.0
C      1  0.4416790000000  0.5000380000000  0.4479180000000 1.0
C      1  0.4416790000000  0.5000380000000  0.5522210000000 1.0
C      1  0.5582580000000  0.5000380000000  0.4479180000000 1.0
C      1  0.5521200000000  0.5583270000000  0.5000690000000 1.0
C      1  0.4478170000000  0.4417490000000  0.5000690000000 1.0
C      1  0.4498210000000  0.4498900000000  0.5502170000000 1.0
C      1  0.5501160000000  0.4498900000000  0.4499220000000 1.0
C      1  0.4498210000000  0.5501850000000  0.5502170000000 1.0
C      1  0.5501160000000  0.5501850000000  0.4499220000000 1.0
C      1  0.4498210000000  0.5501850000000  0.4499220000000 1.0
C      1  0.5501160000000  0.5501850000000  0.5502170000000 1.0
C      1  0.5501160000000  0.4498900000000  0.5502170000000 1.0
C      1  0.4498210000000  0.4498900000000  0.4499220000000 1.0
END
