TITL C-1379266-1300-235 8.6619786431519e-07 1000000 -2252.39706981005 0 0 320 (Th) n - 1
REM
REM in /nfs/bkarasulu/CARBON/AIRSS/Generating-Clusters/GAP-ML-2020/Higher-Symm/Selected-Sizes/TryA-Only_Ih-Symm/Larger-Clusters/Try2-MINAMP_6A
REM
REM
REM
REM
REM
REM ./C.cell (31579ac4e95a012ec27f3239692ae8a5)
REM
REM compiler GCC version 9.2.1 20190827 (Red Hat 9.2.1-1)
REM options -cpp -mtune=generic -march=x86-64 -g -O0 -fpre-include=/usr/include/finclude/math-vector-fortran.h
REM seed -2120981646 597318923 -308832988 136242495 1606393090 -1584154952 262519979 1977225432 1403799438 1152678645 -559884321 315733727 -1520496775 -747668544 -1695275123 1560026369 -1173942356 409213786 -1392582687 1042085610 2143938373 1726724993 865331026 1198034094 -1646760832 1256606004 1597746720 1220380821 1582333262 1741481564 1515185153 1817684198 431451096
REM
CELL 1.54180  100.00000  100.00000  100.00000   90.00000   90.00000   90.00000
LATT -1
SFAC C  
C      1  0.4830580000000  0.5567380000000  0.5069740000000 1.0
C      1  0.5069970000000  0.4830290000000  0.5567430000000 1.0
C      1  0.5567660000000  0.5069690000000  0.4830350000000 1.0
C      1  0.5169310000000  0.5567380000000  0.4929690000000 1.0
C      1  0.4830580000000  0.4431950000000  0.4929690000000 1.0
C      1  0.5169310000000  0.4431950000000  0.5069740000000 1.0
C      1  0.4929920000000  0.4830290000000  0.4432000000000 1.0
C      1  0.5069970000000  0.5169030000000  0.4432000000000 1.0
C      1  0.4929920000000  0.5169030000000  0.5567430000000 1.0
C      1  0.4432230000000  0.5069690000000  0.5169080000000 1.0
C      1  0.5567660000000  0.4929640000000  0.5169080000000 1.0
C      1  0.4432230000000  0.4929640000000  0.4830350000000 1.0
C      1  0.4830580000000  0.4431950000000  0.5069740000000 1.0
C      1  0.5069970000000  0.5169030000000  0.5567430000000 1.0
C      1  0.5567660000000  0.4929640000000  0.4830350000000 1.0
C      1  0.5169310000000  0.4431950000000  0.4929690000000 1.0
C      1  0.4830580000000  0.5567380000000  0.4929690000000 1.0
C      1  0.5169310000000  0.5567380000000  0.5069740000000 1.0
C      1  0.4929920000000  0.5169030000000  0.4432000000000 1.0
C      1  0.5069970000000  0.4830290000000  0.4432000000000 1.0
C      1  0.4929920000000  0.4830290000000  0.5567430000000 1.0
C      1  0.4432230000000  0.4929640000000  0.5169080000000 1.0
C      1  0.5567660000000  0.5069690000000  0.5169080000000 1.0
C      1  0.4432230000000  0.5069690000000  0.4830350000000 1.0
C      1  0.5073130000000  0.4924540000000  0.4030910000000 1.0
C      1  0.4031140000000  0.5072850000000  0.4924590000000 1.0
C      1  0.4924820000000  0.4030860000000  0.5072900000000 1.0
C      1  0.4926760000000  0.4924540000000  0.5968520000000 1.0
C      1  0.5073130000000  0.5074780000000  0.5968520000000 1.0
C      1  0.4926760000000  0.5074780000000  0.4030910000000 1.0
C      1  0.5968750000000  0.5072850000000  0.5074840000000 1.0
C      1  0.4031140000000  0.4926480000000  0.5074840000000 1.0
C      1  0.5968750000000  0.4926480000000  0.4924590000000 1.0
C      1  0.5075070000000  0.4030860000000  0.4926530000000 1.0
C      1  0.4924820000000  0.5968470000000  0.4926530000000 1.0
C      1  0.5075070000000  0.5968470000000  0.5072900000000 1.0
C      1  0.5073130000000  0.5074780000000  0.4030910000000 1.0
C      1  0.4031140000000  0.4926480000000  0.4924590000000 1.0
C      1  0.4924820000000  0.5968470000000  0.5072900000000 1.0
C      1  0.4926760000000  0.5074780000000  0.5968520000000 1.0
C      1  0.5073130000000  0.4924540000000  0.5968520000000 1.0
C      1  0.4926760000000  0.4924540000000  0.4030910000000 1.0
C      1  0.5968750000000  0.4926480000000  0.5074840000000 1.0
C      1  0.4031140000000  0.5072850000000  0.5074840000000 1.0
C      1  0.5968750000000  0.5072850000000  0.4924590000000 1.0
C      1  0.5075070000000  0.5968470000000  0.4926530000000 1.0
C      1  0.4924820000000  0.4030860000000  0.4926530000000 1.0
C      1  0.5075070000000  0.4030860000000  0.5072900000000 1.0
C      1  0.4491470000000  0.5587800000000  0.4920290000000 1.0
C      1  0.4920520000000  0.4491180000000  0.5587850000000 1.0
C      1  0.5588080000000  0.4920230000000  0.4491230000000 1.0
C      1  0.5508430000000  0.5587800000000  0.5079140000000 1.0
C      1  0.4491470000000  0.4411530000000  0.5079140000000 1.0
C      1  0.5508430000000  0.4411530000000  0.4920290000000 1.0
C      1  0.5079370000000  0.4491180000000  0.4411580000000 1.0
C      1  0.4920520000000  0.5508140000000  0.4411580000000 1.0
C      1  0.5079370000000  0.5508140000000  0.5587850000000 1.0
C      1  0.4411810000000  0.4920230000000  0.5508200000000 1.0
C      1  0.5588080000000  0.5079090000000  0.5508200000000 1.0
C      1  0.4411810000000  0.5079090000000  0.4491230000000 1.0
C      1  0.4491470000000  0.4411530000000  0.4920290000000 1.0
C      1  0.4920520000000  0.5508140000000  0.5587850000000 1.0
C      1  0.5588080000000  0.5079090000000  0.4491230000000 1.0
C      1  0.5508430000000  0.4411530000000  0.5079140000000 1.0
C      1  0.4491470000000  0.5587800000000  0.5079140000000 1.0
C      1  0.5508430000000  0.5587800000000  0.4920290000000 1.0
C      1  0.5079370000000  0.5508140000000  0.4411580000000 1.0
C      1  0.4920520000000  0.4491180000000  0.4411580000000 1.0
C      1  0.5079370000000  0.4491180000000  0.5587850000000 1.0
C      1  0.4411810000000  0.5079090000000  0.5508200000000 1.0
C      1  0.5588080000000  0.4920230000000  0.5508200000000 1.0
C      1  0.4411810000000  0.4920230000000  0.4491230000000 1.0
C      1  0.5541940000000  0.4521240000000  0.5158730000000 1.0
C      1  0.5158960000000  0.5541650000000  0.4521290000000 1.0
C      1  0.4521520000000  0.5158680000000  0.5541710000000 1.0
C      1  0.4457950000000  0.4521240000000  0.4840700000000 1.0
C      1  0.5541940000000  0.5478080000000  0.4840700000000 1.0
C      1  0.4457950000000  0.5478080000000  0.5158730000000 1.0
C      1  0.4840930000000  0.5541650000000  0.5478140000000 1.0
C      1  0.5158960000000  0.4457670000000  0.5478140000000 1.0
C      1  0.4840930000000  0.4457670000000  0.4521290000000 1.0
C      1  0.5478370000000  0.5158680000000  0.4457720000000 1.0
C      1  0.4521520000000  0.4840640000000  0.4457720000000 1.0
C      1  0.5478370000000  0.4840640000000  0.5541710000000 1.0
C      1  0.5541940000000  0.5478080000000  0.5158730000000 1.0
C      1  0.5158960000000  0.4457670000000  0.4521290000000 1.0
C      1  0.4521520000000  0.4840640000000  0.5541710000000 1.0
C      1  0.4457950000000  0.5478080000000  0.4840700000000 1.0
C      1  0.5541940000000  0.4521240000000  0.4840700000000 1.0
C      1  0.4457950000000  0.4521240000000  0.5158730000000 1.0
C      1  0.4840930000000  0.4457670000000  0.5478140000000 1.0
C      1  0.5158960000000  0.5541650000000  0.5478140000000 1.0
C      1  0.4840930000000  0.5541650000000  0.4521290000000 1.0
C      1  0.5478370000000  0.4840640000000  0.4457720000000 1.0
C      1  0.4521520000000  0.5158680000000  0.4457720000000 1.0
C      1  0.5478370000000  0.5158680000000  0.5541710000000 1.0
C      1  0.4113460000000  0.4843520000000  0.5142020000000 1.0
C      1  0.5142250000000  0.4113180000000  0.4843570000000 1.0
C      1  0.4843810000000  0.5141970000000  0.4113230000000 1.0
C      1  0.5886430000000  0.4843520000000  0.4857410000000 1.0
C      1  0.4113460000000  0.5155800000000  0.4857410000000 1.0
C      1  0.5886430000000  0.5155800000000  0.5142020000000 1.0
C      1  0.4857640000000  0.4113180000000  0.5155860000000 1.0
C      1  0.5142250000000  0.5886150000000  0.5155860000000 1.0
C      1  0.4857640000000  0.5886150000000  0.4843570000000 1.0
C      1  0.5156090000000  0.5141970000000  0.5886200000000 1.0
C      1  0.4843810000000  0.4857350000000  0.5886200000000 1.0
C      1  0.5156090000000  0.4857350000000  0.4113230000000 1.0
C      1  0.4113460000000  0.5155800000000  0.5142020000000 1.0
C      1  0.5142250000000  0.5886150000000  0.4843570000000 1.0
C      1  0.4843810000000  0.4857350000000  0.4113230000000 1.0
C      1  0.5886430000000  0.5155800000000  0.4857410000000 1.0
C      1  0.4113460000000  0.4843520000000  0.4857410000000 1.0
C      1  0.5886430000000  0.4843520000000  0.5142020000000 1.0
C      1  0.4857640000000  0.5886150000000  0.5155860000000 1.0
C      1  0.5142250000000  0.4113180000000  0.5155860000000 1.0
C      1  0.4857640000000  0.4113180000000  0.4843570000000 1.0
C      1  0.5156090000000  0.4857350000000  0.5886200000000 1.0
C      1  0.4843810000000  0.5141970000000  0.5886200000000 1.0
C      1  0.5156090000000  0.5141970000000  0.4113230000000 1.0
C      1  0.5285630000000  0.4386190000000  0.4858100000000 1.0
C      1  0.4858330000000  0.5285350000000  0.4386240000000 1.0
C      1  0.4386470000000  0.4858040000000  0.5285400000000 1.0
C      1  0.4714260000000  0.4386190000000  0.5141330000000 1.0
C      1  0.5285630000000  0.5613130000000  0.5141330000000 1.0
C      1  0.4714260000000  0.5613130000000  0.4858100000000 1.0
C      1  0.5141570000000  0.5285350000000  0.5613190000000 1.0
C      1  0.4858330000000  0.4713980000000  0.5613190000000 1.0
C      1  0.5141570000000  0.4713980000000  0.4386240000000 1.0
C      1  0.5613420000000  0.4858040000000  0.4714030000000 1.0
C      1  0.4386470000000  0.5141280000000  0.4714030000000 1.0
C      1  0.5613420000000  0.5141280000000  0.5285400000000 1.0
C      1  0.5285630000000  0.5613130000000  0.4858100000000 1.0
C      1  0.4858330000000  0.4713980000000  0.4386240000000 1.0
C      1  0.4386470000000  0.5141280000000  0.5285400000000 1.0
C      1  0.4714260000000  0.5613130000000  0.5141330000000 1.0
C      1  0.5285630000000  0.4386190000000  0.5141330000000 1.0
C      1  0.4714260000000  0.4386190000000  0.4858100000000 1.0
C      1  0.5141570000000  0.4713980000000  0.5613190000000 1.0
C      1  0.4858330000000  0.5285350000000  0.5613190000000 1.0
C      1  0.5141570000000  0.5285350000000  0.4386240000000 1.0
C      1  0.5613420000000  0.5141280000000  0.4714030000000 1.0
C      1  0.4386470000000  0.4858040000000  0.4714030000000 1.0
C      1  0.5613420000000  0.4858040000000  0.5285400000000 1.0
C      1  0.4926040000000  0.5391590000000  0.5667580000000 1.0
C      1  0.5667810000000  0.4925750000000  0.5391640000000 1.0
C      1  0.5391870000000  0.5667520000000  0.4925810000000 1.0
C      1  0.5073860000000  0.5391590000000  0.4331850000000 1.0
C      1  0.4926040000000  0.4607740000000  0.4331850000000 1.0
C      1  0.5073860000000  0.4607740000000  0.5667580000000 1.0
C      1  0.4332080000000  0.4925750000000  0.4607790000000 1.0
C      1  0.5667810000000  0.5073570000000  0.4607790000000 1.0
C      1  0.4332080000000  0.5073570000000  0.5391640000000 1.0
C      1  0.4608020000000  0.5667520000000  0.5073620000000 1.0
C      1  0.5391870000000  0.4331800000000  0.5073620000000 1.0
C      1  0.4608020000000  0.4331800000000  0.4925810000000 1.0
C      1  0.4926040000000  0.4607740000000  0.5667580000000 1.0
C      1  0.5667810000000  0.5073570000000  0.5391640000000 1.0
C      1  0.5391870000000  0.4331800000000  0.4925810000000 1.0
C      1  0.5073860000000  0.4607740000000  0.4331850000000 1.0
C      1  0.4926040000000  0.5391590000000  0.4331850000000 1.0
C      1  0.5073860000000  0.5391590000000  0.5667580000000 1.0
C      1  0.4332080000000  0.5073570000000  0.4607790000000 1.0
C      1  0.5667810000000  0.4925750000000  0.4607790000000 1.0
C      1  0.4332080000000  0.4925750000000  0.5391640000000 1.0
C      1  0.4608020000000  0.4331800000000  0.5073620000000 1.0
C      1  0.5391870000000  0.5667520000000  0.5073620000000 1.0
C      1  0.4608020000000  0.5667520000000  0.4925810000000 1.0
C      1  0.5233900000000  0.5075160000000  0.4206360000000 1.0
C      1  0.4206600000000  0.5233610000000  0.5075210000000 1.0
C      1  0.5075440000000  0.4206310000000  0.5233660000000 1.0
C      1  0.4766000000000  0.5075160000000  0.5793070000000 1.0
C      1  0.5233900000000  0.4924160000000  0.5793070000000 1.0
C      1  0.4766000000000  0.4924160000000  0.4206360000000 1.0
C      1  0.5793300000000  0.5233610000000  0.4924220000000 1.0
C      1  0.4206600000000  0.4765710000000  0.4924220000000 1.0
C      1  0.5793300000000  0.4765710000000  0.5075210000000 1.0
C      1  0.4924450000000  0.4206310000000  0.4765770000000 1.0
C      1  0.5075440000000  0.5793010000000  0.4765770000000 1.0
C      1  0.4924450000000  0.5793010000000  0.5233660000000 1.0
C      1  0.5233900000000  0.4924160000000  0.4206360000000 1.0
C      1  0.4206600000000  0.4765710000000  0.5075210000000 1.0
C      1  0.5075440000000  0.5793010000000  0.5233660000000 1.0
C      1  0.4766000000000  0.4924160000000  0.5793070000000 1.0
C      1  0.5233900000000  0.5075160000000  0.5793070000000 1.0
C      1  0.4766000000000  0.5075160000000  0.4206360000000 1.0
C      1  0.5793300000000  0.4765710000000  0.4924220000000 1.0
C      1  0.4206600000000  0.5233610000000  0.4924220000000 1.0
C      1  0.5793300000000  0.5233610000000  0.5075210000000 1.0
C      1  0.4924450000000  0.5793010000000  0.4765770000000 1.0
C      1  0.5075440000000  0.4206310000000  0.4765770000000 1.0
C      1  0.4924450000000  0.4206310000000  0.5233660000000 1.0
C      1  0.5123440000000  0.5656770000000  0.5280560000000 1.0
C      1  0.5280790000000  0.5123150000000  0.5656820000000 1.0
C      1  0.5657050000000  0.5280500000000  0.5123210000000 1.0
C      1  0.4876450000000  0.5656770000000  0.4718870000000 1.0
C      1  0.5123440000000  0.4342560000000  0.4718870000000 1.0
C      1  0.4876450000000  0.4342560000000  0.5280560000000 1.0
C      1  0.4719100000000  0.5123150000000  0.4342610000000 1.0
C      1  0.5280790000000  0.4876170000000  0.4342610000000 1.0
C      1  0.4719100000000  0.4876170000000  0.5656820000000 1.0
C      1  0.4342840000000  0.5280500000000  0.4876220000000 1.0
C      1  0.5657050000000  0.4718820000000  0.4876220000000 1.0
C      1  0.4342840000000  0.4718820000000  0.5123210000000 1.0
C      1  0.5123440000000  0.4342560000000  0.5280560000000 1.0
C      1  0.5280790000000  0.4876170000000  0.5656820000000 1.0
C      1  0.5657050000000  0.4718820000000  0.5123210000000 1.0
C      1  0.4876450000000  0.4342560000000  0.4718870000000 1.0
C      1  0.5123440000000  0.5656770000000  0.4718870000000 1.0
C      1  0.4876450000000  0.5656770000000  0.5280560000000 1.0
C      1  0.4719100000000  0.4876170000000  0.4342610000000 1.0
C      1  0.5280790000000  0.5123150000000  0.4342610000000 1.0
C      1  0.4719100000000  0.5123150000000  0.5656820000000 1.0
C      1  0.4342840000000  0.4718820000000  0.4876220000000 1.0
C      1  0.5657050000000  0.5280500000000  0.4876220000000 1.0
C      1  0.4342840000000  0.5280500000000  0.5123210000000 1.0
C      1  0.5564960000000  0.5164360000000  0.5067200000000 1.0
C      1  0.5067430000000  0.5564670000000  0.5164420000000 1.0
C      1  0.5164650000000  0.5067150000000  0.5564720000000 1.0
C      1  0.4434940000000  0.5164360000000  0.4932230000000 1.0
C      1  0.5564960000000  0.4834960000000  0.4932230000000 1.0
C      1  0.4434940000000  0.4834960000000  0.5067200000000 1.0
C      1  0.4932460000000  0.5564670000000  0.4835010000000 1.0
C      1  0.5067430000000  0.4434650000000  0.4835010000000 1.0
C      1  0.4932460000000  0.4434650000000  0.5164420000000 1.0
C      1  0.4835240000000  0.5067150000000  0.4434710000000 1.0
C      1  0.5164650000000  0.4932180000000  0.4434710000000 1.0
C      1  0.4835240000000  0.4932180000000  0.5564720000000 1.0
C      1  0.5564960000000  0.4834960000000  0.5067200000000 1.0
C      1  0.5067430000000  0.4434650000000  0.5164420000000 1.0
C      1  0.5164650000000  0.4932180000000  0.5564720000000 1.0
C      1  0.4434940000000  0.4834960000000  0.4932230000000 1.0
C      1  0.5564960000000  0.5164360000000  0.4932230000000 1.0
C      1  0.4434940000000  0.5164360000000  0.5067200000000 1.0
C      1  0.4932460000000  0.4434650000000  0.4835010000000 1.0
C      1  0.5067430000000  0.5564670000000  0.4835010000000 1.0
C      1  0.4932460000000  0.5564670000000  0.5164420000000 1.0
C      1  0.4835240000000  0.4932180000000  0.4434710000000 1.0
C      1  0.5164650000000  0.5067150000000  0.4434710000000 1.0
C      1  0.4835240000000  0.5067150000000  0.5564720000000 1.0
C      1  0.5285130000000  0.4494690000000  0.4612860000000 1.0
C      1  0.4613100000000  0.5284850000000  0.4494740000000 1.0
C      1  0.4494970000000  0.4612810000000  0.5284900000000 1.0
C      1  0.4714760000000  0.4494690000000  0.5386570000000 1.0
C      1  0.5285130000000  0.5504640000000  0.5386570000000 1.0
C      1  0.4714760000000  0.5504640000000  0.4612860000000 1.0
C      1  0.5386800000000  0.5284850000000  0.5504690000000 1.0
C      1  0.4613100000000  0.4714470000000  0.5504690000000 1.0
C      1  0.5386800000000  0.4714470000000  0.4494740000000 1.0
C      1  0.5504920000000  0.4612810000000  0.4714530000000 1.0
C      1  0.4494970000000  0.5386510000000  0.4714530000000 1.0
C      1  0.5504920000000  0.5386510000000  0.5284900000000 1.0
C      1  0.5285130000000  0.5504640000000  0.4612860000000 1.0
C      1  0.4613100000000  0.4714470000000  0.4494740000000 1.0
C      1  0.4494970000000  0.5386510000000  0.5284900000000 1.0
C      1  0.4714760000000  0.5504640000000  0.5386570000000 1.0
C      1  0.5285130000000  0.4494690000000  0.5386570000000 1.0
C      1  0.4714760000000  0.4494690000000  0.4612860000000 1.0
C      1  0.5386800000000  0.4714470000000  0.5504690000000 1.0
C      1  0.4613100000000  0.5284850000000  0.5504690000000 1.0
C      1  0.5386800000000  0.5284850000000  0.4494740000000 1.0
C      1  0.5504920000000  0.5386510000000  0.4714530000000 1.0
C      1  0.4494970000000  0.4612810000000  0.4714530000000 1.0
C      1  0.5504920000000  0.4612810000000  0.5284900000000 1.0
C      1  0.4400810000000  0.5280820000000  0.5264310000000 1.0
C      1  0.5264540000000  0.4400530000000  0.5280870000000 1.0
C      1  0.5281100000000  0.5264250000000  0.4400580000000 1.0
C      1  0.5599080000000  0.5280820000000  0.4735120000000 1.0
C      1  0.4400810000000  0.4718500000000  0.4735120000000 1.0
C      1  0.5599080000000  0.4718500000000  0.5264310000000 1.0
C      1  0.4735350000000  0.4400530000000  0.4718560000000 1.0
C      1  0.5264540000000  0.5598790000000  0.4718560000000 1.0
C      1  0.4735350000000  0.5598790000000  0.5280870000000 1.0
C      1  0.4718790000000  0.5264250000000  0.5598850000000 1.0
C      1  0.5281100000000  0.4735070000000  0.5598850000000 1.0
C      1  0.4718790000000  0.4735070000000  0.4400580000000 1.0
C      1  0.4400810000000  0.4718500000000  0.5264310000000 1.0
C      1  0.5264540000000  0.5598790000000  0.5280870000000 1.0
C      1  0.5281100000000  0.4735070000000  0.4400580000000 1.0
C      1  0.5599080000000  0.4718500000000  0.4735120000000 1.0
C      1  0.4400810000000  0.5280820000000  0.4735120000000 1.0
C      1  0.5599080000000  0.5280820000000  0.5264310000000 1.0
C      1  0.4735350000000  0.5598790000000  0.4718560000000 1.0
C      1  0.5264540000000  0.4400530000000  0.4718560000000 1.0
C      1  0.4735350000000  0.4400530000000  0.5280870000000 1.0
C      1  0.4718790000000  0.4735070000000  0.5598850000000 1.0
C      1  0.5281100000000  0.5264250000000  0.5598850000000 1.0
C      1  0.4718790000000  0.5264250000000  0.4400580000000 1.0
C      1  0.5626170000000  0.5409590000000  0.5069690000000 1.0
C      1  0.5069920000000  0.5625890000000  0.5409640000000 1.0
C      1  0.5409880000000  0.5069640000000  0.5625940000000 1.0
C      1  0.4373720000000  0.5409590000000  0.4929740000000 1.0
C      1  0.5626170000000  0.4589730000000  0.4929740000000 1.0
C      1  0.4373720000000  0.4589730000000  0.5069690000000 1.0
C      1  0.4929970000000  0.5625890000000  0.4589790000000 1.0
C      1  0.5069920000000  0.4373440000000  0.4589790000000 1.0
C      1  0.4929970000000  0.4373440000000  0.5409640000000 1.0
C      1  0.4590020000000  0.5069640000000  0.4373490000000 1.0
C      1  0.5409880000000  0.4929690000000  0.4373490000000 1.0
C      1  0.4590020000000  0.4929690000000  0.5625940000000 1.0
C      1  0.5626170000000  0.4589730000000  0.5069690000000 1.0
C      1  0.5069920000000  0.4373440000000  0.5409640000000 1.0
C      1  0.5409880000000  0.4929690000000  0.5625940000000 1.0
C      1  0.4373720000000  0.4589730000000  0.4929740000000 1.0
C      1  0.5626170000000  0.5409590000000  0.4929740000000 1.0
C      1  0.4373720000000  0.5409590000000  0.5069690000000 1.0
C      1  0.4929970000000  0.4373440000000  0.4589790000000 1.0
C      1  0.5069920000000  0.5625890000000  0.4589790000000 1.0
C      1  0.4929970000000  0.5625890000000  0.5409640000000 1.0
C      1  0.4590020000000  0.4929690000000  0.4373490000000 1.0
C      1  0.5409880000000  0.5069640000000  0.4373490000000 1.0
C      1  0.4590020000000  0.5069640000000  0.5625940000000 1.0
C      1  0.5394010000000  0.5393730000000  0.4605650000000 1.0
C      1  0.4605880000000  0.5393730000000  0.5393780000000 1.0
C      1  0.5394010000000  0.4605600000000  0.5393780000000 1.0
C      1  0.5394010000000  0.4605600000000  0.4605650000000 1.0
C      1  0.4605880000000  0.4605600000000  0.5393780000000 1.0
C      1  0.4605880000000  0.5393730000000  0.4605650000000 1.0
C      1  0.4605880000000  0.4605600000000  0.4605650000000 1.0
C      1  0.5394010000000  0.5393730000000  0.5393780000000 1.0
END
