TITL C-1379266-1300-276 -3.39063853695945e-07 1000000 -1764.53750696993 0 0 260 (Th) n - 1
REM
REM in /nfs/bkarasulu/CARBON/AIRSS/Generating-Clusters/GAP-ML-2020/Higher-Symm/Selected-Sizes/TryA-Only_Ih-Symm/Larger-Clusters/Try2-MINAMP_6A
REM
REM
REM
REM
REM
REM ./C.cell (31579ac4e95a012ec27f3239692ae8a5)
REM
REM compiler GCC version 9.2.1 20190827 (Red Hat 9.2.1-1)
REM options -cpp -mtune=generic -march=x86-64 -g -O0 -fpre-include=/usr/include/finclude/math-vector-fortran.h
REM seed -13897589 1141209437 1977696018 -547930936 1665017838 -67149896 382194780 1430740984 -749422692 -542408827 -949047724 2009888067 1622257558 394414188 -2114712761 399104675 -730670223 -22398020 -667838563 1625897556 409580992 125554037 -994174632 -234362931 -1083721603 1664686068 -283021725 1403716045 -128088402 1880676714 -2035923442 50544269 -1563148710
REM
CELL 1.54180  100.00000  100.00000  100.00000   90.00000   90.00000   90.00000
LATT -1
SFAC C  
C      1  0.5080580000000  0.4746630000000  0.4326000000000 1.0
C      1  0.4328910000000  0.5080410000000  0.4743890000000 1.0
C      1  0.4746800000000  0.4328740000000  0.5077660000000 1.0
C      1  0.4924910000000  0.4746630000000  0.5673670000000 1.0
C      1  0.5080580000000  0.5258520000000  0.5673670000000 1.0
C      1  0.4924910000000  0.5258520000000  0.4326000000000 1.0
C      1  0.5676580000000  0.5080410000000  0.5255780000000 1.0
C      1  0.4328910000000  0.4924750000000  0.5255780000000 1.0
C      1  0.5676580000000  0.4924750000000  0.4743890000000 1.0
C      1  0.5258690000000  0.4328740000000  0.4922000000000 1.0
C      1  0.4746800000000  0.5676420000000  0.4922000000000 1.0
C      1  0.5258690000000  0.5676420000000  0.5077660000000 1.0
C      1  0.5080580000000  0.5258520000000  0.4326000000000 1.0
C      1  0.4328910000000  0.4924750000000  0.4743890000000 1.0
C      1  0.4746800000000  0.5676420000000  0.5077660000000 1.0
C      1  0.4924910000000  0.5258520000000  0.5673670000000 1.0
C      1  0.5080580000000  0.4746630000000  0.5673670000000 1.0
C      1  0.4924910000000  0.4746630000000  0.4326000000000 1.0
C      1  0.5676580000000  0.4924750000000  0.5255780000000 1.0
C      1  0.4328910000000  0.5080410000000  0.5255780000000 1.0
C      1  0.5676580000000  0.5080410000000  0.4743890000000 1.0
C      1  0.5258690000000  0.5676420000000  0.4922000000000 1.0
C      1  0.4746800000000  0.4328740000000  0.4922000000000 1.0
C      1  0.5258690000000  0.4328740000000  0.5077660000000 1.0
C      1  0.5363190000000  0.5073090000000  0.4376670000000 1.0
C      1  0.4379580000000  0.5363020000000  0.5070350000000 1.0
C      1  0.5073260000000  0.4379420000000  0.5360280000000 1.0
C      1  0.4642300000000  0.5073090000000  0.5622990000000 1.0
C      1  0.5363190000000  0.4932060000000  0.5622990000000 1.0
C      1  0.4642300000000  0.4932060000000  0.4376670000000 1.0
C      1  0.5625910000000  0.5363020000000  0.4929320000000 1.0
C      1  0.4379580000000  0.4642130000000  0.4929320000000 1.0
C      1  0.5625910000000  0.4642130000000  0.5070350000000 1.0
C      1  0.4932230000000  0.4379420000000  0.4639390000000 1.0
C      1  0.5073260000000  0.5625740000000  0.4639390000000 1.0
C      1  0.4932230000000  0.5625740000000  0.5360280000000 1.0
C      1  0.5363190000000  0.4932060000000  0.4376670000000 1.0
C      1  0.4379580000000  0.4642130000000  0.5070350000000 1.0
C      1  0.5073260000000  0.5625740000000  0.5360280000000 1.0
C      1  0.4642300000000  0.4932060000000  0.5622990000000 1.0
C      1  0.5363190000000  0.5073090000000  0.5622990000000 1.0
C      1  0.4642300000000  0.5073090000000  0.4376670000000 1.0
C      1  0.5625910000000  0.4642130000000  0.4929320000000 1.0
C      1  0.4379580000000  0.5363020000000  0.4929320000000 1.0
C      1  0.5625910000000  0.5363020000000  0.5070350000000 1.0
C      1  0.4932230000000  0.5625740000000  0.4639390000000 1.0
C      1  0.5073260000000  0.4379420000000  0.4639390000000 1.0
C      1  0.4932230000000  0.4379420000000  0.5360280000000 1.0
C      1  0.5276240000000  0.5476190000000  0.4634440000000 1.0
C      1  0.4637360000000  0.5276070000000  0.5473450000000 1.0
C      1  0.5476360000000  0.4637190000000  0.5273320000000 1.0
C      1  0.4729250000000  0.5476190000000  0.5365220000000 1.0
C      1  0.5276240000000  0.4528970000000  0.5365220000000 1.0
C      1  0.4729250000000  0.4528960000000  0.4634440000000 1.0
C      1  0.5368130000000  0.5276070000000  0.4526220000000 1.0
C      1  0.4637360000000  0.4729090000000  0.4526220000000 1.0
C      1  0.5368130000000  0.4729090000000  0.5473450000000 1.0
C      1  0.4529130000000  0.4637190000000  0.4726340000000 1.0
C      1  0.5476360000000  0.5367970000000  0.4726340000000 1.0
C      1  0.4529130000000  0.5367970000000  0.5273320000000 1.0
C      1  0.5276240000000  0.4528960000000  0.4634440000000 1.0
C      1  0.4637360000000  0.4729090000000  0.5473450000000 1.0
C      1  0.5476360000000  0.5367970000000  0.5273320000000 1.0
C      1  0.4729250000000  0.4528970000000  0.5365220000000 1.0
C      1  0.5276240000000  0.5476190000000  0.5365220000000 1.0
C      1  0.4729250000000  0.5476190000000  0.4634440000000 1.0
C      1  0.5368130000000  0.4729090000000  0.4526220000000 1.0
C      1  0.4637360000000  0.5276070000000  0.4526220000000 1.0
C      1  0.5368130000000  0.5276070000000  0.5473450000000 1.0
C      1  0.4529130000000  0.5367970000000  0.4726340000000 1.0
C      1  0.5476360000000  0.4637190000000  0.4726340000000 1.0
C      1  0.4529130000000  0.4637190000000  0.5273320000000 1.0
C      1  0.4786280000000  0.5082160000000  0.4335340000000 1.0
C      1  0.4338250000000  0.4786120000000  0.5079410000000 1.0
C      1  0.5082320000000  0.4338080000000  0.4783370000000 1.0
C      1  0.5219210000000  0.5082160000000  0.5664330000000 1.0
C      1  0.4786280000000  0.4923000000000  0.5664330000000 1.0
C      1  0.5219210000000  0.4923000000000  0.4335340000000 1.0
C      1  0.5667240000000  0.4786120000000  0.4920250000000 1.0
C      1  0.4338250000000  0.5219040000000  0.4920250000000 1.0
C      1  0.5667240000000  0.5219040000000  0.5079410000000 1.0
C      1  0.4923170000000  0.4338080000000  0.5216290000000 1.0
C      1  0.5082320000000  0.5667070000000  0.5216290000000 1.0
C      1  0.4923170000000  0.5667070000000  0.4783370000000 1.0
C      1  0.4786280000000  0.4923000000000  0.4335340000000 1.0
C      1  0.4338250000000  0.5219040000000  0.5079410000000 1.0
C      1  0.5082320000000  0.5667070000000  0.4783370000000 1.0
C      1  0.5219210000000  0.4923000000000  0.5664330000000 1.0
C      1  0.4786280000000  0.5082160000000  0.5664330000000 1.0
C      1  0.5219210000000  0.5082160000000  0.4335340000000 1.0
C      1  0.5667240000000  0.5219040000000  0.4920250000000 1.0
C      1  0.4338250000000  0.4786120000000  0.4920250000000 1.0
C      1  0.5667240000000  0.4786120000000  0.5079410000000 1.0
C      1  0.4923170000000  0.5667070000000  0.5216290000000 1.0
C      1  0.5082320000000  0.4338080000000  0.5216290000000 1.0
C      1  0.4923170000000  0.4338080000000  0.4783370000000 1.0
C      1  0.4927800000000  0.5488780000000  0.4455620000000 1.0
C      1  0.4458530000000  0.4927630000000  0.5486030000000 1.0
C      1  0.5488940000000  0.4458360000000  0.4924890000000 1.0
C      1  0.5077690000000  0.5488780000000  0.5544050000000 1.0
C      1  0.4927800000000  0.4516380000000  0.5544050000000 1.0
C      1  0.5077690000000  0.4516380000000  0.4455620000000 1.0
C      1  0.5546960000000  0.4927630000000  0.4513640000000 1.0
C      1  0.4458530000000  0.5077520000000  0.4513640000000 1.0
C      1  0.5546960000000  0.5077520000000  0.5486030000000 1.0
C      1  0.4516550000000  0.4458360000000  0.5074780000000 1.0
C      1  0.5488940000000  0.5546790000000  0.5074780000000 1.0
C      1  0.4516550000000  0.5546790000000  0.4924890000000 1.0
C      1  0.4927800000000  0.4516380000000  0.4455620000000 1.0
C      1  0.4458530000000  0.5077520000000  0.5486030000000 1.0
C      1  0.5488940000000  0.5546790000000  0.4924890000000 1.0
C      1  0.5077690000000  0.4516380000000  0.5544050000000 1.0
C      1  0.4927800000000  0.5488780000000  0.5544050000000 1.0
C      1  0.5077690000000  0.5488780000000  0.4455620000000 1.0
C      1  0.5546960000000  0.5077520000000  0.4513640000000 1.0
C      1  0.4458530000000  0.4927630000000  0.4513640000000 1.0
C      1  0.5546960000000  0.4927630000000  0.5486030000000 1.0
C      1  0.4516550000000  0.5546790000000  0.5074780000000 1.0
C      1  0.5488940000000  0.4458360000000  0.5074780000000 1.0
C      1  0.4516550000000  0.4458360000000  0.4924890000000 1.0
C      1  0.5438240000000  0.4850540000000  0.5531280000000 1.0
C      1  0.5534200000000  0.5438070000000  0.4847800000000 1.0
C      1  0.4850710000000  0.5534030000000  0.5435330000000 1.0
C      1  0.4567250000000  0.4850540000000  0.4468380000000 1.0
C      1  0.5438240000000  0.5154610000000  0.4468380000000 1.0
C      1  0.4567250000000  0.5154610000000  0.5531280000000 1.0
C      1  0.4471290000000  0.5438070000000  0.5151870000000 1.0
C      1  0.5534200000000  0.4567080000000  0.5151870000000 1.0
C      1  0.4471290000000  0.4567080000000  0.4847800000000 1.0
C      1  0.5154780000000  0.5534030000000  0.4564340000000 1.0
C      1  0.4850710000000  0.4471130000000  0.4564340000000 1.0
C      1  0.5154780000000  0.4471130000000  0.5435330000000 1.0
C      1  0.5438240000000  0.5154610000000  0.5531280000000 1.0
C      1  0.5534200000000  0.4567080000000  0.4847800000000 1.0
C      1  0.4850710000000  0.4471130000000  0.5435330000000 1.0
C      1  0.4567250000000  0.5154610000000  0.4468380000000 1.0
C      1  0.5438240000000  0.4850540000000  0.4468380000000 1.0
C      1  0.4567250000000  0.4850540000000  0.5531280000000 1.0
C      1  0.4471290000000  0.4567080000000  0.5151870000000 1.0
C      1  0.5534200000000  0.5438070000000  0.5151870000000 1.0
C      1  0.4471290000000  0.5438070000000  0.4847800000000 1.0
C      1  0.5154780000000  0.4471130000000  0.4564340000000 1.0
C      1  0.4850710000000  0.5534030000000  0.4564340000000 1.0
C      1  0.5154780000000  0.5534030000000  0.5435330000000 1.0
C      1  0.5077220000000  0.4600220000000  0.5661220000000 1.0
C      1  0.5664130000000  0.5077050000000  0.4597470000000 1.0
C      1  0.4600380000000  0.5663960000000  0.5074310000000 1.0
C      1  0.4928270000000  0.4600220000000  0.4338450000000 1.0
C      1  0.5077220000000  0.5404940000000  0.4338450000000 1.0
C      1  0.4928270000000  0.5404940000000  0.5661220000000 1.0
C      1  0.4341360000000  0.5077050000000  0.5402190000000 1.0
C      1  0.5664130000000  0.4928100000000  0.5402190000000 1.0
C      1  0.4341360000000  0.4928100000000  0.4597470000000 1.0
C      1  0.5405110000000  0.5663960000000  0.4925360000000 1.0
C      1  0.4600380000000  0.4341190000000  0.4925360000000 1.0
C      1  0.5405110000000  0.4341190000000  0.5074310000000 1.0
C      1  0.5077220000000  0.5404940000000  0.5661220000000 1.0
C      1  0.5664130000000  0.4928100000000  0.4597470000000 1.0
C      1  0.4600380000000  0.4341190000000  0.5074310000000 1.0
C      1  0.4928270000000  0.5404940000000  0.4338450000000 1.0
C      1  0.5077220000000  0.4600220000000  0.4338450000000 1.0
C      1  0.4928270000000  0.4600220000000  0.5661220000000 1.0
C      1  0.4341360000000  0.4928100000000  0.5402190000000 1.0
C      1  0.5664130000000  0.5077050000000  0.5402190000000 1.0
C      1  0.4341360000000  0.5077050000000  0.4597470000000 1.0
C      1  0.5405110000000  0.4341190000000  0.4925360000000 1.0
C      1  0.4600380000000  0.5663960000000  0.4925360000000 1.0
C      1  0.5405110000000  0.5663960000000  0.5074310000000 1.0
C      1  0.4242600000000  0.5123360000000  0.5142990000000 1.0
C      1  0.5145900000000  0.4242440000000  0.5120610000000 1.0
C      1  0.5123520000000  0.5145730000000  0.4239690000000 1.0
C      1  0.5762890000000  0.5123360000000  0.4856680000000 1.0
C      1  0.4242600000000  0.4881800000000  0.4856680000000 1.0
C      1  0.5762890000000  0.4881800000000  0.5142990000000 1.0
C      1  0.4859590000000  0.4242430000000  0.4879050000000 1.0
C      1  0.5145900000000  0.5762720000000  0.4879050000000 1.0
C      1  0.4859590000000  0.5762720000000  0.5120610000000 1.0
C      1  0.4881970000000  0.5145730000000  0.5759980000000 1.0
C      1  0.5123520000000  0.4859430000000  0.5759980000000 1.0
C      1  0.4881970000000  0.4859430000000  0.4239690000000 1.0
C      1  0.4242600000000  0.4881800000000  0.5142990000000 1.0
C      1  0.5145900000000  0.5762720000000  0.5120610000000 1.0
C      1  0.5123520000000  0.4859430000000  0.4239690000000 1.0
C      1  0.5762890000000  0.4881800000000  0.4856680000000 1.0
C      1  0.4242600000000  0.5123360000000  0.4856680000000 1.0
C      1  0.5762890000000  0.5123360000000  0.5142990000000 1.0
C      1  0.4859590000000  0.5762720000000  0.4879050000000 1.0
C      1  0.5145900000000  0.4242430000000  0.4879050000000 1.0
C      1  0.4859590000000  0.4242440000000  0.5120610000000 1.0
C      1  0.4881970000000  0.4859430000000  0.5759980000000 1.0
C      1  0.5123520000000  0.5145730000000  0.5759980000000 1.0
C      1  0.4881970000000  0.5145730000000  0.4239690000000 1.0
C      1  0.4741660000000  0.5498340000000  0.4763930000000 1.0
C      1  0.4766840000000  0.4741490000000  0.5495600000000 1.0
C      1  0.5498510000000  0.4766670000000  0.4738750000000 1.0
C      1  0.5263830000000  0.5498340000000  0.5235740000000 1.0
C      1  0.4741660000000  0.4506810000000  0.5235740000000 1.0
C      1  0.5263830000000  0.4506810000000  0.4763930000000 1.0
C      1  0.5238650000000  0.4741490000000  0.4504070000000 1.0
C      1  0.4766840000000  0.5263660000000  0.4504070000000 1.0
C      1  0.5238650000000  0.5263660000000  0.5495600000000 1.0
C      1  0.4506980000000  0.4766670000000  0.5260920000000 1.0
C      1  0.5498510000000  0.5238490000000  0.5260920000000 1.0
C      1  0.4506980000000  0.5238490000000  0.4738750000000 1.0
C      1  0.4741660000000  0.4506810000000  0.4763930000000 1.0
C      1  0.4766840000000  0.5263660000000  0.5495600000000 1.0
C      1  0.5498510000000  0.5238490000000  0.4738750000000 1.0
C      1  0.5263830000000  0.4506810000000  0.5235740000000 1.0
C      1  0.4741660000000  0.5498340000000  0.5235740000000 1.0
C      1  0.5263830000000  0.5498340000000  0.4763930000000 1.0
C      1  0.5238650000000  0.5263660000000  0.4504070000000 1.0
C      1  0.4766840000000  0.4741490000000  0.4504070000000 1.0
C      1  0.5238650000000  0.4741490000000  0.5495600000000 1.0
C      1  0.4506980000000  0.5238490000000  0.5260920000000 1.0
C      1  0.5498510000000  0.4766670000000  0.5260920000000 1.0
C      1  0.4506980000000  0.4766670000000  0.4738750000000 1.0
C      1  0.5185880000000  0.5570050000000  0.5154050000000 1.0
C      1  0.5156970000000  0.5185710000000  0.5567300000000 1.0
C      1  0.5570210000000  0.5156800000000  0.5182960000000 1.0
C      1  0.4819610000000  0.5570050000000  0.4845610000000 1.0
C      1  0.5185880000000  0.4435110000000  0.4845610000000 1.0
C      1  0.4819610000000  0.4435110000000  0.5154050000000 1.0
C      1  0.4848530000000  0.5185710000000  0.4432370000000 1.0
C      1  0.5156970000000  0.4819450000000  0.4432370000000 1.0
C      1  0.4848530000000  0.4819450000000  0.5567300000000 1.0
C      1  0.4435280000000  0.5156800000000  0.4816700000000 1.0
C      1  0.5570210000000  0.4848360000000  0.4816700000000 1.0
C      1  0.4435280000000  0.4848360000000  0.5182960000000 1.0
C      1  0.5185880000000  0.4435110000000  0.5154050000000 1.0
C      1  0.5156970000000  0.4819450000000  0.5567300000000 1.0
C      1  0.5570210000000  0.4848360000000  0.5182960000000 1.0
C      1  0.4819610000000  0.4435110000000  0.4845610000000 1.0
C      1  0.5185880000000  0.5570050000000  0.4845610000000 1.0
C      1  0.4819610000000  0.5570050000000  0.5154050000000 1.0
C      1  0.4848530000000  0.4819450000000  0.4432370000000 1.0
C      1  0.5156970000000  0.5185710000000  0.4432370000000 1.0
C      1  0.4848530000000  0.5185710000000  0.5567300000000 1.0
C      1  0.4435280000000  0.4848360000000  0.4816700000000 1.0
C      1  0.5570210000000  0.5156800000000  0.4816700000000 1.0
C      1  0.4435280000000  0.5156800000000  0.5182960000000 1.0
C      1  0.5002750000000  0.5072770000000  0.4207250000000 1.0
C      1  0.4210160000000  0.5002580000000  0.5070030000000 1.0
C      1  0.5002750000000  0.5072770000000  0.5792420000000 1.0
C      1  0.5002750000000  0.4932390000000  0.5792420000000 1.0
C      1  0.5002750000000  0.4932390000000  0.4207250000000 1.0
C      1  0.5795330000000  0.5002580000000  0.4929640000000 1.0
C      1  0.4210160000000  0.5002580000000  0.4929640000000 1.0
C      1  0.5795330000000  0.5002580000000  0.5070030000000 1.0
C      1  0.5072940000000  0.4209990000000  0.4999830000000 1.0
C      1  0.4932550000000  0.4209990000000  0.4999830000000 1.0
C      1  0.5072940000000  0.5795160000000  0.4999830000000 1.0
C      1  0.4932550000000  0.5795160000000  0.4999830000000 1.0
C      1  0.5388030000000  0.5387870000000  0.5385120000000 1.0
C      1  0.4617460000000  0.5387870000000  0.4614540000000 1.0
C      1  0.5388030000000  0.4617290000000  0.4614540000000 1.0
C      1  0.4617460000000  0.4617290000000  0.5385120000000 1.0
C      1  0.5388030000000  0.4617290000000  0.5385120000000 1.0
C      1  0.5388030000000  0.5387870000000  0.4614540000000 1.0
C      1  0.4617460000000  0.5387870000000  0.5385120000000 1.0
C      1  0.4617460000000  0.4617290000000  0.4614540000000 1.0
END
