TITL C-1379267-1329-407 3.36261294480877e-08 1000000 -1276.59241297849 0 0 200 (Th) n - 1
REM
REM in /nfs/bkarasulu/CARBON/AIRSS/Generating-Clusters/GAP-ML-2020/Higher-Symm/Selected-Sizes/TryA-Only_Ih-Symm/Larger-Clusters/Try2-MINAMP_6A
REM
REM
REM
REM
REM
REM ./C.cell (31579ac4e95a012ec27f3239692ae8a5)
REM
REM compiler GCC version 9.2.1 20190827 (Red Hat 9.2.1-1)
REM options -cpp -mtune=generic -march=x86-64 -g -O0 -fpre-include=/usr/include/finclude/math-vector-fortran.h
REM seed -928423308 9723731 -729595230 -1674361338 487161728 414545935 692951003 -1965984599 -371099633 2119044026 -712451353 1117719729 -1005140972 1483094127 694423790 932224954 -988730437 496026209 1512102278 -1596315706 -182080285 1128485021 161963029 1121768935 1526087812 -2123512016 -1636426653 212149348 -211561948 698593277 1113438793 -1022607778 417342654
REM
CELL 1.54180  100.00000  100.00000  100.00000   90.00000   90.00000   90.00000
LATT -1
SFAC C  
C      1  0.5537410000000  0.5362800000000  0.5163550000000 1.0
C      1  0.5362890000000  0.5159640000000  0.5541240000000 1.0
C      1  0.5159720000000  0.5537320000000  0.5366720000000 1.0
C      1  0.5537410000000  0.4629540000000  0.4836620000000 1.0
C      1  0.4455100000000  0.5362800000000  0.4836620000000 1.0
C      1  0.4455100000000  0.4629540000000  0.5163550000000 1.0
C      1  0.5362890000000  0.4832700000000  0.4458930000000 1.0
C      1  0.4629620000000  0.5159640000000  0.4458930000000 1.0
C      1  0.4629620000000  0.4832700000000  0.5541240000000 1.0
C      1  0.5159720000000  0.4455010000000  0.4633450000000 1.0
C      1  0.4832790000000  0.5537320000000  0.4633450000000 1.0
C      1  0.4832790000000  0.4455010000000  0.5366720000000 1.0
C      1  0.4455100000000  0.5362800000000  0.5163550000000 1.0
C      1  0.4629620000000  0.5159640000000  0.5541240000000 1.0
C      1  0.4832790000000  0.5537320000000  0.5366720000000 1.0
C      1  0.4455100000000  0.4629540000000  0.4836620000000 1.0
C      1  0.5537410000000  0.5362800000000  0.4836620000000 1.0
C      1  0.5537410000000  0.4629540000000  0.5163550000000 1.0
C      1  0.4629620000000  0.4832700000000  0.4458930000000 1.0
C      1  0.5362890000000  0.5159640000000  0.4458930000000 1.0
C      1  0.5362890000000  0.4832700000000  0.5541240000000 1.0
C      1  0.4832790000000  0.4455010000000  0.4633450000000 1.0
C      1  0.5159720000000  0.5537320000000  0.4633450000000 1.0
C      1  0.5159720000000  0.4455010000000  0.5366720000000 1.0
C      1  0.4471610000000  0.4923720000000  0.5637090000000 1.0
C      1  0.4923810000000  0.5633180000000  0.4475440000000 1.0
C      1  0.5633260000000  0.4471520000000  0.4927640000000 1.0
C      1  0.4471610000000  0.5068610000000  0.4363080000000 1.0
C      1  0.5520900000000  0.4923720000000  0.4363080000000 1.0
C      1  0.5520900000000  0.5068610000000  0.5637090000000 1.0
C      1  0.4923810000000  0.4359160000000  0.5524730000000 1.0
C      1  0.5068700000000  0.5633170000000  0.5524730000000 1.0
C      1  0.5068700000000  0.4359160000000  0.4475440000000 1.0
C      1  0.5633260000000  0.5520810000000  0.5072530000000 1.0
C      1  0.4359250000000  0.4471520000000  0.5072530000000 1.0
C      1  0.4359250000000  0.5520810000000  0.4927640000000 1.0
C      1  0.5520900000000  0.4923720000000  0.5637090000000 1.0
C      1  0.5068700000000  0.5633180000000  0.4475440000000 1.0
C      1  0.4359250000000  0.4471520000000  0.4927640000000 1.0
C      1  0.5520900000000  0.5068610000000  0.4363080000000 1.0
C      1  0.4471610000000  0.4923720000000  0.4363080000000 1.0
C      1  0.4471610000000  0.5068610000000  0.5637090000000 1.0
C      1  0.5068700000000  0.4359160000000  0.5524730000000 1.0
C      1  0.4923810000000  0.5633170000000  0.5524730000000 1.0
C      1  0.4923810000000  0.4359160000000  0.4475440000000 1.0
C      1  0.4359250000000  0.5520810000000  0.5072530000000 1.0
C      1  0.5633260000000  0.4471520000000  0.5072530000000 1.0
C      1  0.5633260000000  0.5520810000000  0.4927640000000 1.0
C      1  0.5671510000000  0.4606280000000  0.5131710000000 1.0
C      1  0.4606370000000  0.5127790000000  0.5675340000000 1.0
C      1  0.5127870000000  0.5671430000000  0.4610200000000 1.0
C      1  0.5671510000000  0.5386060000000  0.4868470000000 1.0
C      1  0.4321000000000  0.4606280000000  0.4868470000000 1.0
C      1  0.4321000000000  0.5386060000000  0.5131710000000 1.0
C      1  0.4606370000000  0.4864550000000  0.4324830000000 1.0
C      1  0.5386140000000  0.5127790000000  0.4324830000000 1.0
C      1  0.5386140000000  0.4864550000000  0.5675340000000 1.0
C      1  0.5127870000000  0.4320910000000  0.5389980000000 1.0
C      1  0.4864640000000  0.5671430000000  0.5389980000000 1.0
C      1  0.4864640000000  0.4320910000000  0.4610200000000 1.0
C      1  0.4321000000000  0.4606280000000  0.5131710000000 1.0
C      1  0.5386140000000  0.5127790000000  0.5675350000000 1.0
C      1  0.4864640000000  0.5671430000000  0.4610200000000 1.0
C      1  0.4321000000000  0.5386060000000  0.4868470000000 1.0
C      1  0.5671510000000  0.4606280000000  0.4868470000000 1.0
C      1  0.5671510000000  0.5386060000000  0.5131710000000 1.0
C      1  0.5386140000000  0.4864550000000  0.4324830000000 1.0
C      1  0.4606370000000  0.5127790000000  0.4324830000000 1.0
C      1  0.4606370000000  0.4864550000000  0.5675340000000 1.0
C      1  0.4864640000000  0.4320910000000  0.5389980000000 1.0
C      1  0.5127870000000  0.5671430000000  0.5389980000000 1.0
C      1  0.5127870000000  0.4320910000000  0.4610200000000 1.0
C      1  0.4604690000000  0.5545010000000  0.4840760000000 1.0
C      1  0.5545100000000  0.4836840000000  0.4608520000000 1.0
C      1  0.4836930000000  0.4604600000000  0.5548930000000 1.0
C      1  0.4604690000000  0.4447320000000  0.5159410000000 1.0
C      1  0.5387820000000  0.5545010000000  0.5159410000000 1.0
C      1  0.5387820000000  0.4447320000000  0.4840760000000 1.0
C      1  0.5545100000000  0.5155490000000  0.5391650000000 1.0
C      1  0.4447410000000  0.4836840000000  0.5391650000000 1.0
C      1  0.4447410000000  0.5155490000000  0.4608520000000 1.0
C      1  0.4836930000000  0.5387730000000  0.4451240000000 1.0
C      1  0.5155580000000  0.4604600000000  0.4451240000000 1.0
C      1  0.5155580000000  0.5387730000000  0.5548930000000 1.0
C      1  0.5387820000000  0.5545010000000  0.4840760000000 1.0
C      1  0.4447410000000  0.4836840000000  0.4608520000000 1.0
C      1  0.5155580000000  0.4604600000000  0.5548930000000 1.0
C      1  0.5387820000000  0.4447320000000  0.5159410000000 1.0
C      1  0.4604690000000  0.5545010000000  0.5159410000000 1.0
C      1  0.4604690000000  0.4447320000000  0.4840760000000 1.0
C      1  0.4447410000000  0.5155490000000  0.5391650000000 1.0
C      1  0.5545100000000  0.4836840000000  0.5391650000000 1.0
C      1  0.5545100000000  0.5155490000000  0.4608520000000 1.0
C      1  0.5155580000000  0.5387730000000  0.4451240000000 1.0
C      1  0.4836930000000  0.4604600000000  0.4451240000000 1.0
C      1  0.4836930000000  0.5387730000000  0.5548930000000 1.0
C      1  0.4920730000000  0.4510100000000  0.4516220000000 1.0
C      1  0.4510190000000  0.4512300000000  0.4924560000000 1.0
C      1  0.4512390000000  0.4920640000000  0.4514020000000 1.0
C      1  0.4920730000000  0.5482240000000  0.5483950000000 1.0
C      1  0.5071780000000  0.4510100000000  0.5483950000000 1.0
C      1  0.5071780000000  0.5482240000000  0.4516220000000 1.0
C      1  0.4510190000000  0.5480030000000  0.5075610000000 1.0
C      1  0.5482320000000  0.4512300000000  0.5075610000000 1.0
C      1  0.5482320000000  0.5480030000000  0.4924560000000 1.0
C      1  0.4512390000000  0.5071690000000  0.5486160000000 1.0
C      1  0.5480120000000  0.4920640000000  0.5486160000000 1.0
C      1  0.5480120000000  0.5071690000000  0.4514020000000 1.0
C      1  0.5071780000000  0.4510100000000  0.4516220000000 1.0
C      1  0.5482320000000  0.4512300000000  0.4924560000000 1.0
C      1  0.5480120000000  0.4920640000000  0.4514020000000 1.0
C      1  0.5071780000000  0.5482240000000  0.5483950000000 1.0
C      1  0.4920730000000  0.4510100000000  0.5483950000000 1.0
C      1  0.4920730000000  0.5482240000000  0.4516220000000 1.0
C      1  0.5482320000000  0.5480030000000  0.5075610000000 1.0
C      1  0.4510190000000  0.4512300000000  0.5075610000000 1.0
C      1  0.4510190000000  0.5480030000000  0.4924560000000 1.0
C      1  0.5480120000000  0.5071690000000  0.5486160000000 1.0
C      1  0.4512390000000  0.4920640000000  0.5486160000000 1.0
C      1  0.4512390000000  0.5071690000000  0.4514020000000 1.0
C      1  0.5285900000000  0.5471480000000  0.5374700000000 1.0
C      1  0.5471570000000  0.5370780000000  0.5289730000000 1.0
C      1  0.5370860000000  0.5285810000000  0.5475400000000 1.0
C      1  0.5285900000000  0.4520860000000  0.4625480000000 1.0
C      1  0.4706610000000  0.5471480000000  0.4625480000000 1.0
C      1  0.4706610000000  0.4520860000000  0.5374700000000 1.0
C      1  0.5471570000000  0.4621560000000  0.4710440000000 1.0
C      1  0.4520940000000  0.5370780000000  0.4710440000000 1.0
C      1  0.4520940000000  0.4621560000000  0.5289730000000 1.0
C      1  0.5370860000000  0.4706520000000  0.4524780000000 1.0
C      1  0.4621650000000  0.5285810000000  0.4524780000000 1.0
C      1  0.4621650000000  0.4706520000000  0.5475400000000 1.0
C      1  0.4706610000000  0.5471480000000  0.5374700000000 1.0
C      1  0.4520940000000  0.5370780000000  0.5289730000000 1.0
C      1  0.4621650000000  0.5285810000000  0.5475400000000 1.0
C      1  0.4706610000000  0.4520860000000  0.4625480000000 1.0
C      1  0.5285900000000  0.5471480000000  0.4625480000000 1.0
C      1  0.5285900000000  0.4520860000000  0.5374700000000 1.0
C      1  0.4520940000000  0.4621560000000  0.4710440000000 1.0
C      1  0.5471570000000  0.5370780000000  0.4710440000000 1.0
C      1  0.5471570000000  0.4621560000000  0.5289730000000 1.0
C      1  0.4621650000000  0.4706520000000  0.4524780000000 1.0
C      1  0.5370860000000  0.5285810000000  0.4524780000000 1.0
C      1  0.5370860000000  0.4706520000000  0.5475400000000 1.0
C      1  0.4230510000000  0.5304620000000  0.5065770000000 1.0
C      1  0.5304700000000  0.5061850000000  0.4234340000000 1.0
C      1  0.5061930000000  0.4230420000000  0.5308530000000 1.0
C      1  0.4230510000000  0.4687720000000  0.4934410000000 1.0
C      1  0.5762000000000  0.5304620000000  0.4934410000000 1.0
C      1  0.5762000000000  0.4687720000000  0.5065770000000 1.0
C      1  0.5304700000000  0.4930490000000  0.5765830000000 1.0
C      1  0.4687810000000  0.5061850000000  0.5765830000000 1.0
C      1  0.4687810000000  0.4930490000000  0.4234340000000 1.0
C      1  0.5061930000000  0.5761910000000  0.4691640000000 1.0
C      1  0.4930580000000  0.4230420000000  0.4691640000000 1.0
C      1  0.4930580000000  0.5761910000000  0.5308530000000 1.0
C      1  0.5762000000000  0.5304620000000  0.5065770000000 1.0
C      1  0.4687810000000  0.5061850000000  0.4234340000000 1.0
C      1  0.4930580000000  0.4230420000000  0.5308530000000 1.0
C      1  0.5762000000000  0.4687720000000  0.4934410000000 1.0
C      1  0.4230510000000  0.5304620000000  0.4934410000000 1.0
C      1  0.4230510000000  0.4687720000000  0.5065770000000 1.0
C      1  0.4687810000000  0.4930490000000  0.5765830000000 1.0
C      1  0.5304700000000  0.5061850000000  0.5765830000000 1.0
C      1  0.5304700000000  0.4930490000000  0.4234340000000 1.0
C      1  0.4930580000000  0.5761910000000  0.4691640000000 1.0
C      1  0.5061930000000  0.4230420000000  0.4691640000000 1.0
C      1  0.5061930000000  0.5761910000000  0.5308530000000 1.0
C      1  0.4490770000000  0.4704800000000  0.5402760000000 1.0
C      1  0.4704880000000  0.5398840000000  0.4494600000000 1.0
C      1  0.5398930000000  0.4490690000000  0.4708720000000 1.0
C      1  0.4490770000000  0.5287540000000  0.4597410000000 1.0
C      1  0.5501740000000  0.4704800000000  0.4597410000000 1.0
C      1  0.5501740000000  0.5287540000000  0.5402760000000 1.0
C      1  0.4704880000000  0.4593490000000  0.5505570000000 1.0
C      1  0.5287630000000  0.5398840000000  0.5505570000000 1.0
C      1  0.5287630000000  0.4593490000000  0.4494600000000 1.0
C      1  0.5398930000000  0.5501650000000  0.5291460000000 1.0
C      1  0.4593580000000  0.4490680000000  0.5291460000000 1.0
C      1  0.4593580000000  0.5501650000000  0.4708720000000 1.0
C      1  0.5501740000000  0.4704800000000  0.5402760000000 1.0
C      1  0.5287630000000  0.5398840000000  0.4494600000000 1.0
C      1  0.4593580000000  0.4490690000000  0.4708720000000 1.0
C      1  0.5501740000000  0.5287540000000  0.4597410000000 1.0
C      1  0.4490770000000  0.4704800000000  0.4597410000000 1.0
C      1  0.4490770000000  0.5287540000000  0.5402760000000 1.0
C      1  0.5287630000000  0.4593490000000  0.5505570000000 1.0
C      1  0.4704880000000  0.5398840000000  0.5505570000000 1.0
C      1  0.4704880000000  0.4593490000000  0.4494600000000 1.0
C      1  0.4593580000000  0.5501650000000  0.5291460000000 1.0
C      1  0.5398930000000  0.4490680000000  0.5291460000000 1.0
C      1  0.5398930000000  0.5501650000000  0.4708720000000 1.0
C      1  0.5325790000000  0.4666640000000  0.5329620000000 1.0
C      1  0.5325790000000  0.5325700000000  0.4670550000000 1.0
C      1  0.4666720000000  0.4666640000000  0.5329620000000 1.0
C      1  0.4666720000000  0.5325700000000  0.4670550000000 1.0
C      1  0.4666720000000  0.4666640000000  0.4670550000000 1.0
C      1  0.4666720000000  0.5325700000000  0.5329620000000 1.0
C      1  0.5325790000000  0.4666640000000  0.4670550000000 1.0
C      1  0.5325790000000  0.5325700000000  0.5329620000000 1.0
END
