TITL C-1379267-1329-210 2.9531944126524e-07 1000000 -3904.05301633019 0 0 560 (C1) n - 1
REM
REM in /nfs/bkarasulu/CARBON/AIRSS/Generating-Clusters/GAP-ML-2020/Higher-Symm/Selected-Sizes/TryA-Only_Ih-Symm/Larger-Clusters/Try2-MINAMP_6A
REM
REM
REM
REM
REM
REM ./C.cell (31579ac4e95a012ec27f3239692ae8a5)
REM
REM compiler GCC version 9.2.1 20190827 (Red Hat 9.2.1-1)
REM options -cpp -mtune=generic -march=x86-64 -g -O0 -fpre-include=/usr/include/finclude/math-vector-fortran.h
REM seed 1967078061 2045540489 -887540240 -544342692 51540077 1374869091 -1381909134 1363798564 -1359961682 1256573128 -1081027921 1987717964 -1321250339 1821651190 710795749 -295617415 -1762846878 -2122583541 -599562636 1818101196 1843697039 -196740480 -718222172 -1040502580 148451545 782810856 1119036905 -1347986327 986875872 -1635274987 -1819889296 -1934906018 673843889
REM
CELL 1.54180  100.00000  100.00000  100.00000   90.00000   90.00000   90.00000
LATT -1
SFAC C  
C      1  0.5778990000000  0.5136730000000  0.4816910000000 1.0
C      1  0.4817740000000  0.5778500000000  0.5137950000000 1.0
C      1  0.5138240000000  0.4817380000000  0.5775850000000 1.0
C      1  0.5777210000000  0.4865660000000  0.5186880000000 1.0
C      1  0.4227600000000  0.4859310000000  0.4819220000000 1.0
C      1  0.4223160000000  0.5138190000000  0.5183450000000 1.0
C      1  0.4816660000000  0.4225530000000  0.4861820000000 1.0
C      1  0.5184840000000  0.4222700000000  0.5136000000000 1.0
C      1  0.5187070000000  0.5777970000000  0.4865340000000 1.0
C      1  0.5138580000000  0.5184290000000  0.4222440000000 1.0
C      1  0.4865730000000  0.5186620000000  0.5776620000000 1.0
C      1  0.4860700000000  0.4816990000000  0.4225710000000 1.0
C      1  0.4224380000000  0.5141610000000  0.4817810000000 1.0
C      1  0.5185990000000  0.5779570000000  0.5135400000000 1.0
C      1  0.4862920000000  0.4815180000000  0.5774000000000 1.0
C      1  0.4227150000000  0.4862290000000  0.5181240000000 1.0
C      1  0.5778690000000  0.4864680000000  0.4816520000000 1.0
C      1  0.5778340000000  0.5136560000000  0.5186240000000 1.0
C      1  0.5185700000000  0.4224690000000  0.4864160000000 1.0
C      1  0.4819220000000  0.4223070000000  0.5139710000000 1.0
C      1  0.4816780000000  0.5776830000000  0.4861470000000 1.0
C      1  0.4865210000000  0.5186170000000  0.4224000000000 1.0
C      1  0.5135010000000  0.5185680000000  0.5777810000000 1.0
C      1  0.5137320000000  0.4817300000000  0.4223550000000 1.0
C      1  0.4376090000000  0.4358580000000  0.4958790000000 1.0
C      1  0.4956550000000  0.4376490000000  0.4365050000000 1.0
C      1  0.4363840000000  0.4959280000000  0.4376840000000 1.0
C      1  0.4358830000000  0.5634850000000  0.5104290000000 1.0
C      1  0.5632430000000  0.5631090000000  0.4960050000000 1.0
C      1  0.5648150000000  0.4361220000000  0.5101570000000 1.0
C      1  0.4958500000000  0.5632300000000  0.5628230000000 1.0
C      1  0.5106220000000  0.5645760000000  0.4359650000000 1.0
C      1  0.5105270000000  0.4359010000000  0.5632250000000 1.0
C      1  0.4360650000000  0.5103010000000  0.5645790000000 1.0
C      1  0.5626940000000  0.5071730000000  0.4363650000000 1.0
C      1  0.5628000000000  0.4958990000000  0.5630410000000 1.0
C      1  0.5630640000000  0.4366380000000  0.4956140000000 1.0
C      1  0.5102040000000  0.4359340000000  0.4359230000000 1.0
C      1  0.5626800000000  0.4929470000000  0.4363540000000 1.0
C      1  0.5649570000000  0.5634100000000  0.5105650000000 1.0
C      1  0.4375470000000  0.5631510000000  0.4958270000000 1.0
C      1  0.4359870000000  0.4354690000000  0.5104250000000 1.0
C      1  0.5104130000000  0.5649630000000  0.5631820000000 1.0
C      1  0.4960570000000  0.5629110000000  0.4364360000000 1.0
C      1  0.4959240000000  0.4375410000000  0.5628490000000 1.0
C      1  0.5631340000000  0.5104580000000  0.5648060000000 1.0
C      1  0.4358980000000  0.5105010000000  0.4360150000000 1.0
C      1  0.4365940000000  0.4957620000000  0.5628070000000 1.0
C      1  0.5677630000000  0.4924650000000  0.5499270000000 1.0
C      1  0.5501220000000  0.5680380000000  0.4925420000000 1.0
C      1  0.4924000000000  0.5501080000000  0.5677540000000 1.0
C      1  0.5675920000000  0.5082730000000  0.4503410000000 1.0
C      1  0.4305380000000  0.5067790000000  0.5445160000000 1.0
C      1  0.4318410000000  0.4924220000000  0.4509320000000 1.0
C      1  0.5447440000000  0.4305370000000  0.5066570000000 1.0
C      1  0.4507410000000  0.4310880000000  0.4922830000000 1.0
C      1  0.4558590000000  0.5693780000000  0.5066100000000 1.0
C      1  0.4921710000000  0.4509110000000  0.4319920000000 1.0
C      1  0.5066460000000  0.4558800000000  0.5690650000000 1.0
C      1  0.5069940000000  0.5445650000000  0.4304220000000 1.0
C      1  0.4319610000000  0.4924000000000  0.5495560000000 1.0
C      1  0.4506890000000  0.5679740000000  0.4922470000000 1.0
C      1  0.5067070000000  0.5449690000000  0.5692330000000 1.0
C      1  0.4305040000000  0.5068310000000  0.4560510000000 1.0
C      1  0.5692270000000  0.5067870000000  0.5448290000000 1.0
C      1  0.5675570000000  0.4919140000000  0.4503600000000 1.0
C      1  0.4560370000000  0.4296560000000  0.5066090000000 1.0
C      1  0.5498160000000  0.4319510000000  0.4922970000000 1.0
C      1  0.5449590000000  0.5694290000000  0.5068440000000 1.0
C      1  0.5065840000000  0.4559860000000  0.4305920000000 1.0
C      1  0.4923030000000  0.4506810000000  0.5676190000000 1.0
C      1  0.4926330000000  0.5496870000000  0.4317930000000 1.0
C      1  0.5629660000000  0.5149110000000  0.5154970000000 1.0
C      1  0.5155960000000  0.5630840000000  0.5148380000000 1.0
C      1  0.5148160000000  0.5155920000000  0.5628960000000 1.0
C      1  0.5631250000000  0.4853390000000  0.4845070000000 1.0
C      1  0.4375070000000  0.4851600000000  0.5153260000000 1.0
C      1  0.4372130000000  0.5151540000000  0.4848180000000 1.0
C      1  0.5156070000000  0.4372430000000  0.4850550000000 1.0
C      1  0.4849650000000  0.4370790000000  0.5148700000000 1.0
C      1  0.4847780000000  0.5629860000000  0.4850650000000 1.0
C      1  0.5149480000000  0.4848730000000  0.4371400000000 1.0
C      1  0.4851240000000  0.4846830000000  0.5627050000000 1.0
C      1  0.4851680000000  0.5155890000000  0.4371400000000 1.0
C      1  0.4371790000000  0.5150980000000  0.5153920000000 1.0
C      1  0.4848670000000  0.5630600000000  0.5148330000000 1.0
C      1  0.4851750000000  0.5156960000000  0.5628860000000 1.0
C      1  0.4374640000000  0.4851420000000  0.4848230000000 1.0
C      1  0.5629650000000  0.4852100000000  0.5155000000000 1.0
C      1  0.5631570000000  0.5148780000000  0.4846150000000 1.0
C      1  0.4848130000000  0.4372080000000  0.4851180000000 1.0
C      1  0.5155440000000  0.4371520000000  0.5148530000000 1.0
C      1  0.5157360000000  0.5630160000000  0.4851560000000 1.0
C      1  0.4850430000000  0.4847590000000  0.4372870000000 1.0
C      1  0.5148630000000  0.4848740000000  0.5627990000000 1.0
C      1  0.5149900000000  0.5154870000000  0.4370830000000 1.0
C      1  0.4211430000000  0.5268910000000  0.5250730000000 1.0
C      1  0.5252230000000  0.4211640000000  0.5266850000000 1.0
C      1  0.5271510000000  0.5250170000000  0.4212380000000 1.0
C      1  0.4216250000000  0.4723770000000  0.4762960000000 1.0
C      1  0.5789920000000  0.4732210000000  0.5247470000000 1.0
C      1  0.5790190000000  0.5272940000000  0.4756810000000 1.0
C      1  0.5249070000000  0.5791090000000  0.4732070000000 1.0
C      1  0.4753580000000  0.5788150000000  0.5271820000000 1.0
C      1  0.4759580000000  0.4213000000000  0.4725500000000 1.0
C      1  0.5272140000000  0.4753540000000  0.5785520000000 1.0
C      1  0.4723730000000  0.4760380000000  0.4213510000000 1.0
C      1  0.4732190000000  0.5248740000000  0.5789760000000 1.0
C      1  0.5788740000000  0.5267250000000  0.5253400000000 1.0
C      1  0.4756230000000  0.4213160000000  0.5273710000000 1.0
C      1  0.4731600000000  0.5247190000000  0.4210640000000 1.0
C      1  0.5789310000000  0.4728460000000  0.4755960000000 1.0
C      1  0.4215530000000  0.4730270000000  0.5243130000000 1.0
C      1  0.4214040000000  0.5275610000000  0.4754510000000 1.0
C      1  0.4760100000000  0.5789190000000  0.4724720000000 1.0
C      1  0.5253610000000  0.5790430000000  0.5266320000000 1.0
C      1  0.5246960000000  0.4211380000000  0.4730560000000 1.0
C      1  0.4726210000000  0.4758000000000  0.5786660000000 1.0
C      1  0.5270220000000  0.4752680000000  0.4212750000000 1.0
C      1  0.5265780000000  0.5253570000000  0.5788730000000 1.0
C      1  0.5079310000000  0.5798180000000  0.5460240000000 1.0
C      1  0.5459950000000  0.5079450000000  0.5796440000000 1.0
C      1  0.5796860000000  0.5461330000000  0.5080260000000 1.0
C      1  0.5078750000000  0.4210620000000  0.4534250000000 1.0
C      1  0.4935020000000  0.4213600000000  0.5467160000000 1.0
C      1  0.4936000000000  0.5786970000000  0.4530920000000 1.0
C      1  0.5464670000000  0.4927580000000  0.4208200000000 1.0
C      1  0.4532080000000  0.4933760000000  0.5786170000000 1.0
C      1  0.4534040000000  0.5080540000000  0.4211140000000 1.0
C      1  0.5787850000000  0.4533620000000  0.4931890000000 1.0
C      1  0.4216230000000  0.4533850000000  0.5079460000000 1.0
C      1  0.4213980000000  0.5469570000000  0.4933240000000 1.0
C      1  0.4933650000000  0.5791700000000  0.5464790000000 1.0
C      1  0.4536410000000  0.5079150000000  0.5792690000000 1.0
C      1  0.4207380000000  0.5464750000000  0.5078850000000 1.0
C      1  0.4933420000000  0.4217000000000  0.4530210000000 1.0
C      1  0.5080510000000  0.4207350000000  0.5462520000000 1.0
C      1  0.5081300000000  0.5793180000000  0.4535580000000 1.0
C      1  0.4529180000000  0.4935110000000  0.4217590000000 1.0
C      1  0.5464730000000  0.4933830000000  0.5789740000000 1.0
C      1  0.5465220000000  0.5074510000000  0.4208340000000 1.0
C      1  0.4222860000000  0.4529210000000  0.4934530000000 1.0
C      1  0.5794230000000  0.4537750000000  0.5077280000000 1.0
C      1  0.5790860000000  0.5466420000000  0.4934740000000 1.0
C      1  0.4466580000000  0.4449160000000  0.4634560000000 1.0
C      1  0.4634430000000  0.4466310000000  0.4451520000000 1.0
C      1  0.4450690000000  0.4635270000000  0.4466820000000 1.0
C      1  0.4462440000000  0.5544770000000  0.5366620000000 1.0
C      1  0.5540540000000  0.5550500000000  0.4635980000000 1.0
C      1  0.5541060000000  0.4454340000000  0.5364840000000 1.0
C      1  0.4634530000000  0.5540090000000  0.5546700000000 1.0
C      1  0.5368230000000  0.5540490000000  0.4454070000000 1.0
C      1  0.5367310000000  0.4463000000000  0.5542290000000 1.0
C      1  0.4453690000000  0.5366830000000  0.5540010000000 1.0
C      1  0.5546900000000  0.5369470000000  0.4464540000000 1.0
C      1  0.5547210000000  0.4635100000000  0.5538020000000 1.0
C      1  0.5538440000000  0.4451150000000  0.4634120000000 1.0
C      1  0.5365420000000  0.4462630000000  0.4453160000000 1.0
C      1  0.5545320000000  0.4632620000000  0.4463710000000 1.0
C      1  0.5541620000000  0.5544730000000  0.5367170000000 1.0
C      1  0.4465850000000  0.5549000000000  0.4633640000000 1.0
C      1  0.4465490000000  0.4452240000000  0.5365800000000 1.0
C      1  0.5366680000000  0.5542640000000  0.5544110000000 1.0
C      1  0.4636560000000  0.5538950000000  0.4450220000000 1.0
C      1  0.4634900000000  0.4464000000000  0.5546620000000 1.0
C      1  0.5543590000000  0.5367420000000  0.5541700000000 1.0
C      1  0.4454450000000  0.5368090000000  0.4463150000000 1.0
C      1  0.4451970000000  0.4634660000000  0.5536560000000 1.0
C      1  0.4297340000000  0.4461180000000  0.5168530000000 1.0
C      1  0.5166950000000  0.4296000000000  0.4464300000000 1.0
C      1  0.4464130000000  0.5169260000000  0.4296170000000 1.0
C      1  0.4312220000000  0.5545460000000  0.4865240000000 1.0
C      1  0.5711000000000  0.5527940000000  0.5171160000000 1.0
C      1  0.5691960000000  0.4455060000000  0.4863970000000 1.0
C      1  0.5170190000000  0.5711830000000  0.5526480000000 1.0
C      1  0.4868190000000  0.5691010000000  0.4452490000000 1.0
C      1  0.4866520000000  0.4311780000000  0.5542600000000 1.0
C      1  0.4454410000000  0.4865680000000  0.5689500000000 1.0
C      1  0.5535280000000  0.4845530000000  0.4302050000000 1.0
C      1  0.5525980000000  0.5170580000000  0.5710250000000 1.0
C      1  0.5709560000000  0.4467520000000  0.5166170000000 1.0
C      1  0.4864890000000  0.4313580000000  0.4453040000000 1.0
C      1  0.5536040000000  0.5156350000000  0.4302280000000 1.0
C      1  0.5694210000000  0.5544410000000  0.4866760000000 1.0
C      1  0.4294350000000  0.5530370000000  0.5169680000000 1.0
C      1  0.4315240000000  0.4448300000000  0.4866230000000 1.0
C      1  0.4865590000000  0.5694000000000  0.5541380000000 1.0
C      1  0.5170190000000  0.5708300000000  0.4465700000000 1.0
C      1  0.5171070000000  0.4294570000000  0.5528060000000 1.0
C      1  0.5541340000000  0.4865890000000  0.5691950000000 1.0
C      1  0.4451700000000  0.4867050000000  0.4314160000000 1.0
C      1  0.4466460000000  0.5167940000000  0.5707780000000 1.0
C      1  0.5611730000000  0.4541400000000  0.5265920000000 1.0
C      1  0.5269290000000  0.5611670000000  0.4540510000000 1.0
C      1  0.4540650000000  0.5268160000000  0.5610990000000 1.0
C      1  0.5604750000000  0.5468570000000  0.4745890000000 1.0
C      1  0.4389280000000  0.5455360000000  0.5272040000000 1.0
C      1  0.4402290000000  0.4526410000000  0.4747530000000 1.0
C      1  0.5273000000000  0.4389690000000  0.5452910000000 1.0
C      1  0.4746100000000  0.4400810000000  0.4530700000000 1.0
C      1  0.4742460000000  0.5603570000000  0.5462810000000 1.0
C      1  0.4529630000000  0.4747450000000  0.4401980000000 1.0
C      1  0.5463100000000  0.4742920000000  0.5601260000000 1.0
C      1  0.5460790000000  0.5266120000000  0.4396880000000 1.0
C      1  0.4395150000000  0.4537160000000  0.5264620000000 1.0
C      1  0.4748160000000  0.5602710000000  0.4529850000000 1.0
C      1  0.5452740000000  0.5273280000000  0.5613290000000 1.0
C      1  0.4400980000000  0.5466150000000  0.4741980000000 1.0
C      1  0.5613210000000  0.5454030000000  0.5272610000000 1.0
C      1  0.5603160000000  0.4532260000000  0.4744210000000 1.0
C      1  0.4743300000000  0.4399480000000  0.5463600000000 1.0
C      1  0.5266580000000  0.4391720000000  0.4539570000000 1.0
C      1  0.5272740000000  0.5614710000000  0.5453260000000 1.0
C      1  0.5459510000000  0.4736280000000  0.4396510000000 1.0
C      1  0.4531610000000  0.4746390000000  0.5600320000000 1.0
C      1  0.4540210000000  0.5268660000000  0.4391470000000 1.0
C      1  0.5077030000000  0.4349060000000  0.4726530000000 1.0
C      1  0.4727080000000  0.5078020000000  0.4348640000000 1.0
C      1  0.4364740000000  0.4724290000000  0.5075820000000 1.0
C      1  0.5078390000000  0.5657760000000  0.5271810000000 1.0
C      1  0.4928410000000  0.5654860000000  0.4728180000000 1.0
C      1  0.4927590000000  0.4344610000000  0.5271480000000 1.0
C      1  0.4729340000000  0.4927530000000  0.5655140000000 1.0
C      1  0.5272560000000  0.4926300000000  0.4343350000000 1.0
C      1  0.5271760000000  0.5078600000000  0.5655560000000 1.0
C      1  0.4345000000000  0.5274270000000  0.4926210000000 1.0
C      1  0.5656240000000  0.5272500000000  0.5077460000000 1.0
C      1  0.5655160000000  0.4730130000000  0.4924320000000 1.0
C      1  0.4927370000000  0.4347720000000  0.4728290000000 1.0
C      1  0.5273000000000  0.5076960000000  0.4343620000000 1.0
C      1  0.5654830000000  0.4728930000000  0.5075220000000 1.0
C      1  0.4926830000000  0.5658920000000  0.5270750000000 1.0
C      1  0.5078760000000  0.5654020000000  0.4727450000000 1.0
C      1  0.5078540000000  0.4346690000000  0.5272930000000 1.0
C      1  0.5270910000000  0.4927020000000  0.5656550000000 1.0
C      1  0.4727710000000  0.4928100000000  0.4348020000000 1.0
C      1  0.4728290000000  0.5077970000000  0.5654320000000 1.0
C      1  0.5657420000000  0.5271330000000  0.4926070000000 1.0
C      1  0.4346240000000  0.5275210000000  0.5077330000000 1.0
C      1  0.4364390000000  0.4725530000000  0.4926770000000 1.0
C      1  0.4338990000000  0.5308160000000  0.5327850000000 1.0
C      1  0.5329250000000  0.4339200000000  0.5306010000000 1.0
C      1  0.5311110000000  0.5325270000000  0.4341470000000 1.0
C      1  0.4343610000000  0.4678150000000  0.4691040000000 1.0
C      1  0.5662150000000  0.4685410000000  0.5319970000000 1.0
C      1  0.5661480000000  0.5318490000000  0.4684590000000 1.0
C      1  0.5322380000000  0.5663400000000  0.4685030000000 1.0
C      1  0.4679100000000  0.5658520000000  0.5309760000000 1.0
C      1  0.4688930000000  0.4341450000000  0.4678750000000 1.0
C      1  0.5310260000000  0.4679410000000  0.5655960000000 1.0
C      1  0.4677410000000  0.4689750000000  0.4342670000000 1.0
C      1  0.4684960000000  0.5321980000000  0.5661790000000 1.0
C      1  0.5660730000000  0.5306830000000  0.5329600000000 1.0
C      1  0.4681070000000  0.4341560000000  0.5310920000000 1.0
C      1  0.4684870000000  0.5320660000000  0.4338360000000 1.0
C      1  0.5660490000000  0.4683150000000  0.4683510000000 1.0
C      1  0.4341940000000  0.4683720000000  0.5316940000000 1.0
C      1  0.4343200000000  0.5313390000000  0.4679670000000 1.0
C      1  0.4689290000000  0.5660300000000  0.4678370000000 1.0
C      1  0.5330110000000  0.5662400000000  0.5306410000000 1.0
C      1  0.5320240000000  0.4339200000000  0.4683480000000 1.0
C      1  0.4679460000000  0.4687730000000  0.5657490000000 1.0
C      1  0.5309590000000  0.4677890000000  0.4341400000000 1.0
C      1  0.5305680000000  0.5330490000000  0.5660890000000 1.0
C      1  0.5338720000000  0.4932770000000  0.5523830000000 1.0
C      1  0.5524350000000  0.5338900000000  0.4931350000000 1.0
C      1  0.4932410000000  0.5526130000000  0.5338460000000 1.0
C      1  0.5341660000000  0.5070060000000  0.4475360000000 1.0
C      1  0.4656090000000  0.5070150000000  0.5524760000000 1.0
C      1  0.4661210000000  0.4932710000000  0.4481420000000 1.0
C      1  0.5525220000000  0.4656970000000  0.5067610000000 1.0
C      1  0.4504330000000  0.4661930000000  0.4927480000000 1.0
C      1  0.4476680000000  0.5346350000000  0.5068930000000 1.0
C      1  0.4930250000000  0.4482900000000  0.4663600000000 1.0
C      1  0.5069120000000  0.4476980000000  0.5343650000000 1.0
C      1  0.5071560000000  0.5523680000000  0.4655900000000 1.0
C      1  0.4661510000000  0.4932550000000  0.5522680000000 1.0
C      1  0.4478950000000  0.5340580000000  0.4931310000000 1.0
C      1  0.5069700000000  0.5528300000000  0.5343950000000 1.0
C      1  0.4655950000000  0.5070980000000  0.4479520000000 1.0
C      1  0.5344040000000  0.5070080000000  0.5526170000000 1.0
C      1  0.5341410000000  0.4932860000000  0.4475060000000 1.0
C      1  0.4501800000000  0.4657210000000  0.5072100000000 1.0
C      1  0.5521970000000  0.4662890000000  0.4929550000000 1.0
C      1  0.5527130000000  0.5344840000000  0.5069030000000 1.0
C      1  0.5068750000000  0.4479780000000  0.4656000000000 1.0
C      1  0.4931210000000  0.4479730000000  0.5336080000000 1.0
C      1  0.4933260000000  0.5521740000000  0.4660970000000 1.0
C      1  0.4838180000000  0.4524630000000  0.5429570000000 1.0
C      1  0.5431590000000  0.4840160000000  0.4523740000000 1.0
C      1  0.4525230000000  0.5433440000000  0.4838560000000 1.0
C      1  0.4843490000000  0.5479020000000  0.4563710000000 1.0
C      1  0.5159290000000  0.5478070000000  0.5433700000000 1.0
C      1  0.5157730000000  0.4525960000000  0.4562570000000 1.0
C      1  0.5433690000000  0.5159880000000  0.5476180000000 1.0
C      1  0.4562280000000  0.5160070000000  0.4525130000000 1.0
C      1  0.4566510000000  0.4842230000000  0.5476230000000 1.0
C      1  0.4523280000000  0.4549240000000  0.5156540000000 1.0
C      1  0.5479770000000  0.4565500000000  0.4839640000000 1.0
C      1  0.5477700000000  0.5434790000000  0.5159130000000 1.0
C      1  0.5159310000000  0.4527140000000  0.5433130000000 1.0
C      1  0.4565340000000  0.4842090000000  0.4525920000000 1.0
C      1  0.5480410000000  0.5435000000000  0.4840920000000 1.0
C      1  0.5160420000000  0.5478080000000  0.4562040000000 1.0
C      1  0.4840200000000  0.5479620000000  0.5431440000000 1.0
C      1  0.4839270000000  0.4525390000000  0.4566870000000 1.0
C      1  0.4563230000000  0.5158560000000  0.5477120000000 1.0
C      1  0.5432300000000  0.5162460000000  0.4523910000000 1.0
C      1  0.5431700000000  0.4840630000000  0.5477180000000 1.0
C      1  0.5478560000000  0.4563830000000  0.5156430000000 1.0
C      1  0.4521380000000  0.4551590000000  0.4841870000000 1.0
C      1  0.4526800000000  0.5435820000000  0.5159120000000 1.0
C      1  0.4618550000000  0.4672330000000  0.4823000000000 1.0
C      1  0.4803300000000  0.4623330000000  0.4670090000000 1.0
C      1  0.4666630000000  0.4806200000000  0.4625140000000 1.0
C      1  0.4623070000000  0.5334440000000  0.5193010000000 1.0
C      1  0.5380810000000  0.5334900000000  0.4804490000000 1.0
C      1  0.5381670000000  0.4664950000000  0.5192380000000 1.0
C      1  0.4805510000000  0.5378180000000  0.5332710000000 1.0
C      1  0.5194190000000  0.5382320000000  0.4665240000000 1.0
C      1  0.5193450000000  0.4623230000000  0.5331740000000 1.0
C      1  0.4664510000000  0.5194860000000  0.5380730000000 1.0
C      1  0.5332960000000  0.5195440000000  0.4623650000000 1.0
C      1  0.5333140000000  0.4805920000000  0.5375550000000 1.0
C      1  0.5380820000000  0.4667270000000  0.4804830000000 1.0
C      1  0.5193090000000  0.4621190000000  0.4665590000000 1.0
C      1  0.5332780000000  0.4807070000000  0.4623910000000 1.0
C      1  0.5379640000000  0.5335200000000  0.5194050000000 1.0
C      1  0.4625610000000  0.5333140000000  0.4805180000000 1.0
C      1  0.4616410000000  0.4668460000000  0.5178580000000 1.0
C      1  0.5194930000000  0.5380360000000  0.5334220000000 1.0
C      1  0.4808350000000  0.5379850000000  0.4665390000000 1.0
C      1  0.4802220000000  0.4624440000000  0.5328860000000 1.0
C      1  0.5334160000000  0.5195150000000  0.5378390000000 1.0
C      1  0.4666710000000  0.5193370000000  0.4619750000000 1.0
C      1  0.4665220000000  0.4804140000000  0.5375360000000 1.0
C      1  0.5080360000000  0.5391110000000  0.4443550000000 1.0
C      1  0.4444620000000  0.5078220000000  0.5390090000000 1.0
C      1  0.5392240000000  0.4444740000000  0.5076640000000 1.0
C      1  0.5077740000000  0.4614650000000  0.5553040000000 1.0
C      1  0.4907020000000  0.4603660000000  0.4449780000000 1.0
C      1  0.4909200000000  0.5402940000000  0.5550370000000 1.0
C      1  0.4448460000000  0.4909380000000  0.4603490000000 1.0
C      1  0.5550690000000  0.4909710000000  0.5400760000000 1.0
C      1  0.5555300000000  0.5086190000000  0.4600040000000 1.0
C      1  0.5403120000000  0.5552660000000  0.4910110000000 1.0
C      1  0.4614490000000  0.5556110000000  0.5077330000000 1.0
C      1  0.4602120000000  0.4440490000000  0.4907620000000 1.0
C      1  0.4911740000000  0.5401190000000  0.4447080000000 1.0
C      1  0.5554750000000  0.5077140000000  0.5390190000000 1.0
C      1  0.4612620000000  0.4436130000000  0.5079260000000 1.0
C      1  0.4906460000000  0.4602700000000  0.5548130000000 1.0
C      1  0.5078180000000  0.4613630000000  0.4444970000000 1.0
C      1  0.5076500000000  0.5391930000000  0.5554580000000 1.0
C      1  0.5554890000000  0.4916060000000  0.4599770000000 1.0
C      1  0.4449020000000  0.4910750000000  0.5399610000000 1.0
C      1  0.4444440000000  0.5080820000000  0.4613310000000 1.0
C      1  0.4603100000000  0.5551930000000  0.4906250000000 1.0
C      1  0.5392040000000  0.5556270000000  0.5077210000000 1.0
C      1  0.5402090000000  0.4448480000000  0.4908880000000 1.0
C      1  0.5400630000000  0.5071730000000  0.5161470000000 1.0
C      1  0.5164010000000  0.5401510000000  0.5071010000000 1.0
C      1  0.5070820000000  0.5164330000000  0.5399720000000 1.0
C      1  0.5404380000000  0.4929330000000  0.4836930000000 1.0
C      1  0.4598920000000  0.4928550000000  0.5163180000000 1.0
C      1  0.4601990000000  0.5072520000000  0.4839760000000 1.0
C      1  0.5165580000000  0.4598100000000  0.4926880000000 1.0
C      1  0.4841370000000  0.4600450000000  0.5070910000000 1.0
C      1  0.4840110000000  0.5403650000000  0.4927190000000 1.0
C      1  0.5071750000000  0.4841030000000  0.4601320000000 1.0
C      1  0.4927620000000  0.4839860000000  0.5400430000000 1.0
C      1  0.4927770000000  0.5164750000000  0.4597120000000 1.0
C      1  0.4601180000000  0.5072500000000  0.5163010000000 1.0
C      1  0.4841480000000  0.5400540000000  0.5070360000000 1.0
C      1  0.4927150000000  0.5165680000000  0.5402770000000 1.0
C      1  0.4599090000000  0.4929320000000  0.4839060000000 1.0
C      1  0.5403640000000  0.4928020000000  0.5162820000000 1.0
C      1  0.5404270000000  0.5072480000000  0.4836790000000 1.0
C      1  0.4840330000000  0.4598150000000  0.4927710000000 1.0
C      1  0.5164120000000  0.4600620000000  0.5070530000000 1.0
C      1  0.5165920000000  0.5404230000000  0.4927210000000 1.0
C      1  0.4928340000000  0.4839520000000  0.4598850000000 1.0
C      1  0.5070900000000  0.4841740000000  0.5397750000000 1.0
C      1  0.5071290000000  0.5163550000000  0.4600070000000 1.0
C      1  0.5173210000000  0.5541140000000  0.5692290000000 1.0
C      1  0.5691800000000  0.5173930000000  0.5539860000000 1.0
C      1  0.5540900000000  0.5694250000000  0.5174660000000 1.0
C      1  0.5172870000000  0.4469390000000  0.4303700000000 1.0
C      1  0.4793800000000  0.4497980000000  0.5732400000000 1.0
C      1  0.4797140000000  0.5510570000000  0.4263240000000 1.0
C      1  0.5732100000000  0.4794500000000  0.4485240000000 1.0
C      1  0.4264830000000  0.4794720000000  0.5507860000000 1.0
C      1  0.4304450000000  0.5176000000000  0.4470680000000 1.0
C      1  0.5511710000000  0.4264200000000  0.4794250000000 1.0
C      1  0.4471440000000  0.4301490000000  0.5174100000000 1.0
C      1  0.4499140000000  0.5735180000000  0.4792690000000 1.0
C      1  0.4795270000000  0.5515780000000  0.5733280000000 1.0
C      1  0.4303230000000  0.5173880000000  0.5536700000000 1.0
C      1  0.4468600000000  0.5692520000000  0.5173730000000 1.0
C      1  0.4792130000000  0.4502320000000  0.4264860000000 1.0
C      1  0.5174300000000  0.4469030000000  0.5689770000000 1.0
C      1  0.5177120000000  0.5535840000000  0.4303420000000 1.0
C      1  0.4264130000000  0.4793970000000  0.4504370000000 1.0
C      1  0.5733670000000  0.4796040000000  0.5513500000000 1.0
C      1  0.5733380000000  0.5207190000000  0.4486840000000 1.0
C      1  0.4500860000000  0.4260820000000  0.4791150000000 1.0
C      1  0.5538960000000  0.4303580000000  0.5172510000000 1.0
C      1  0.5514820000000  0.5736430000000  0.4796880000000 1.0
C      1  0.5076240000000  0.4926550000000  0.4477460000000 1.0
C      1  0.4478350000000  0.5078080000000  0.4925610000000 1.0
C      1  0.4927270000000  0.4477100000000  0.5075350000000 1.0
C      1  0.5075370000000  0.5077820000000  0.5522560000000 1.0
C      1  0.4924890000000  0.5077430000000  0.4476210000000 1.0
C      1  0.4924250000000  0.4926040000000  0.5522680000000 1.0
C      1  0.4478030000000  0.4926810000000  0.5076110000000 1.0
C      1  0.5525850000000  0.4925550000000  0.4924360000000 1.0
C      1  0.5524160000000  0.5076410000000  0.5075860000000 1.0
C      1  0.4926650000000  0.5525380000000  0.4924200000000 1.0
C      1  0.5077900000000  0.5524550000000  0.5075410000000 1.0
C      1  0.5078110000000  0.4477270000000  0.4923820000000 1.0
C      1  0.4925010000000  0.4925780000000  0.4476840000000 1.0
C      1  0.5525630000000  0.5076410000000  0.4924550000000 1.0
C      1  0.5077780000000  0.4477790000000  0.5075350000000 1.0
C      1  0.4924120000000  0.5078040000000  0.5523460000000 1.0
C      1  0.5076200000000  0.5077310000000  0.4477030000000 1.0
C      1  0.5075270000000  0.4926940000000  0.5522020000000 1.0
C      1  0.5525050000000  0.4925190000000  0.5076050000000 1.0
C      1  0.4477640000000  0.4927180000000  0.4925610000000 1.0
C      1  0.4478450000000  0.5078110000000  0.5076540000000 1.0
C      1  0.5078510000000  0.5525210000000  0.4924110000000 1.0
C      1  0.4926990000000  0.5524570000000  0.5075130000000 1.0
C      1  0.4926780000000  0.4476650000000  0.4924340000000 1.0
C      1  0.4814460000000  0.5283060000000  0.4436330000000 1.0
C      1  0.4438230000000  0.4813950000000  0.5281010000000 1.0
C      1  0.5283240000000  0.4437460000000  0.4812590000000 1.0
C      1  0.4810770000000  0.4721960000000  0.5559820000000 1.0
C      1  0.5184110000000  0.4723900000000  0.4439720000000 1.0
C      1  0.5182110000000  0.5281810000000  0.5561530000000 1.0
C      1  0.4440350000000  0.5186980000000  0.4723800000000 1.0
C      1  0.5561650000000  0.5182940000000  0.5280430000000 1.0
C      1  0.5564250000000  0.4815610000000  0.4719110000000 1.0
C      1  0.5281660000000  0.5563160000000  0.5182510000000 1.0
C      1  0.4722620000000  0.5563180000000  0.4810290000000 1.0
C      1  0.4724200000000  0.4437860000000  0.5183400000000 1.0
C      1  0.5185150000000  0.5279830000000  0.4438890000000 1.0
C      1  0.5563790000000  0.4813760000000  0.5281810000000 1.0
C      1  0.4721600000000  0.4437200000000  0.4812320000000 1.0
C      1  0.5184490000000  0.4724660000000  0.5558940000000 1.0
C      1  0.4810480000000  0.4722770000000  0.4439800000000 1.0
C      1  0.4813260000000  0.5284010000000  0.5563380000000 1.0
C      1  0.5564760000000  0.5186490000000  0.4719870000000 1.0
C      1  0.4438650000000  0.5184100000000  0.5279980000000 1.0
C      1  0.4439180000000  0.4812440000000  0.4722240000000 1.0
C      1  0.4724460000000  0.5561710000000  0.5184030000000 1.0
C      1  0.5284540000000  0.5564890000000  0.4813590000000 1.0
C      1  0.5281530000000  0.4438570000000  0.5181900000000 1.0
C      1  0.5784460000000  0.4666800000000  0.5126980000000 1.0
C      1  0.5129680000000  0.5784620000000  0.4665270000000 1.0
C      1  0.4665730000000  0.5128960000000  0.5784140000000 1.0
C      1  0.5784060000000  0.5339740000000  0.4876190000000 1.0
C      1  0.4218460000000  0.5336740000000  0.5131620000000 1.0
C      1  0.4232500000000  0.4656220000000  0.4879760000000 1.0
C      1  0.5133110000000  0.4218740000000  0.5334550000000 1.0
C      1  0.4878480000000  0.4220620000000  0.4658500000000 1.0
C      1  0.4873390000000  0.5782980000000  0.5338540000000 1.0
C      1  0.4657220000000  0.4879430000000  0.4221110000000 1.0
C      1  0.5338580000000  0.4873510000000  0.5780650000000 1.0
C      1  0.5337670000000  0.5130360000000  0.4217130000000 1.0
C      1  0.4229140000000  0.4663020000000  0.5125450000000 1.0
C      1  0.4879660000000  0.5782090000000  0.4658670000000 1.0
C      1  0.5332820000000  0.5133620000000  0.5782850000000 1.0
C      1  0.4220700000000  0.5342920000000  0.4873670000000 1.0
C      1  0.5783360000000  0.5333580000000  0.5132900000000 1.0
C      1  0.5782080000000  0.4661120000000  0.4874950000000 1.0
C      1  0.4875620000000  0.4220250000000  0.5340510000000 1.0
C      1  0.5127650000000  0.4218210000000  0.4663870000000 1.0
C      1  0.5133520000000  0.5784830000000  0.5333090000000 1.0
C      1  0.5336650000000  0.4872580000000  0.4216930000000 1.0
C      1  0.4660060000000  0.4877740000000  0.5781460000000 1.0
C      1  0.4664240000000  0.5128240000000  0.4217970000000 1.0
C      1  0.4335730000000  0.4685590000000  0.5469220000000 1.0
C      1  0.5472150000000  0.4334720000000  0.4685330000000 1.0
C      1  0.4687590000000  0.5472270000000  0.4333740000000 1.0
C      1  0.4346120000000  0.5302170000000  0.4526990000000 1.0
C      1  0.5653290000000  0.5298520000000  0.5482220000000 1.0
C      1  0.5661280000000  0.4685820000000  0.4531350000000 1.0
C      1  0.5482740000000  0.5655030000000  0.5298780000000 1.0
C      1  0.4536930000000  0.5664290000000  0.4682780000000 1.0
C      1  0.4528660000000  0.4343720000000  0.5299860000000 1.0
C      1  0.4683860000000  0.4535460000000  0.5661580000000 1.0
C      1  0.5298950000000  0.4525490000000  0.4344490000000 1.0
C      1  0.5297670000000  0.5483230000000  0.5653760000000 1.0
C      1  0.5664230000000  0.4687180000000  0.5472490000000 1.0
C      1  0.4537990000000  0.4333920000000  0.4682130000000 1.0
C      1  0.5302020000000  0.5478170000000  0.4344910000000 1.0
C      1  0.5662510000000  0.5315980000000  0.4532450000000 1.0
C      1  0.4343640000000  0.5299160000000  0.5480120000000 1.0
C      1  0.4336120000000  0.4683310000000  0.4539140000000 1.0
C      1  0.4525910000000  0.5652820000000  0.5299230000000 1.0
C      1  0.5474530000000  0.5667050000000  0.4687530000000 1.0
C      1  0.5481680000000  0.4343990000000  0.5297440000000 1.0
C      1  0.5299840000000  0.4526340000000  0.5650270000000 1.0
C      1  0.4681930000000  0.4538260000000  0.4336770000000 1.0
C      1  0.4686570000000  0.5474550000000  0.5663830000000 1.0
C      1  0.4800930000000  0.4751620000000  0.4598030000000 1.0
C      1  0.4595630000000  0.4801630000000  0.4753210000000 1.0
C      1  0.4747660000000  0.4596740000000  0.4806480000000 1.0
C      1  0.4798720000000  0.5252450000000  0.5406890000000 1.0
C      1  0.5198630000000  0.5252550000000  0.4596310000000 1.0
C      1  0.5197760000000  0.4752260000000  0.5401320000000 1.0
C      1  0.4595160000000  0.5200400000000  0.5251790000000 1.0
C      1  0.5406470000000  0.5199860000000  0.4749950000000 1.0
C      1  0.5407390000000  0.4799390000000  0.5249840000000 1.0
C      1  0.4752000000000  0.5404070000000  0.5197320000000 1.0
C      1  0.5253760000000  0.5408200000000  0.4798920000000 1.0
C      1  0.5252880000000  0.4595110000000  0.5198080000000 1.0
C      1  0.5198120000000  0.4751030000000  0.4596950000000 1.0
C      1  0.5406390000000  0.4802140000000  0.4749890000000 1.0
C      1  0.5253160000000  0.4594400000000  0.4798890000000 1.0
C      1  0.5199450000000  0.5252450000000  0.5405110000000 1.0
C      1  0.4800570000000  0.5252610000000  0.4592850000000 1.0
C      1  0.4800300000000  0.4751760000000  0.5401760000000 1.0
C      1  0.5405420000000  0.5200040000000  0.5250490000000 1.0
C      1  0.4598250000000  0.5198570000000  0.4749790000000 1.0
C      1  0.4593240000000  0.4799020000000  0.5248370000000 1.0
C      1  0.5252080000000  0.5406800000000  0.5199460000000 1.0
C      1  0.4752670000000  0.5405580000000  0.4799780000000 1.0
C      1  0.4747560000000  0.4597040000000  0.5192330000000 1.0
C      1  0.4928740000000  0.5077010000000  0.4158750000000 1.0
C      1  0.4159180000000  0.4928840000000  0.5075640000000 1.0
C      1  0.5076430000000  0.4159140000000  0.4927690000000 1.0
C      1  0.4928100000000  0.4923560000000  0.5839680000000 1.0
C      1  0.5071380000000  0.4923980000000  0.4157880000000 1.0
C      1  0.5071570000000  0.5076520000000  0.5843240000000 1.0
C      1  0.4159380000000  0.5073010000000  0.4923040000000 1.0
C      1  0.5845020000000  0.5072520000000  0.5078590000000 1.0
C      1  0.5843150000000  0.4928440000000  0.4926140000000 1.0
C      1  0.5077220000000  0.5845080000000  0.5071470000000 1.0
C      1  0.4924640000000  0.5842100000000  0.4927570000000 1.0
C      1  0.4924710000000  0.4157260000000  0.5072120000000 1.0
C      1  0.5072600000000  0.5076510000000  0.4157460000000 1.0
C      1  0.5843950000000  0.4928770000000  0.5078120000000 1.0
C      1  0.4923940000000  0.4159980000000  0.4928100000000 1.0
C      1  0.5072210000000  0.4924120000000  0.5841900000000 1.0
C      1  0.4927350000000  0.4924550000000  0.4160120000000 1.0
C      1  0.4927870000000  0.5075860000000  0.5841570000000 1.0
C      1  0.5843520000000  0.5072850000000  0.4926490000000 1.0
C      1  0.4158220000000  0.5072360000000  0.5076180000000 1.0
C      1  0.4160550000000  0.4928980000000  0.4922800000000 1.0
C      1  0.4924700000000  0.5844010000000  0.5071730000000 1.0
C      1  0.5076990000000  0.5843540000000  0.4927800000000 1.0
C      1  0.5077160000000  0.4156900000000  0.5071330000000 1.0
C      1  0.4512600000000  0.5488990000000  0.5488790000000 1.0
C      1  0.5489510000000  0.4513220000000  0.5486800000000 1.0
C      1  0.5490120000000  0.5491130000000  0.4513720000000 1.0
C      1  0.4513230000000  0.4512100000000  0.5487950000000 1.0
C      1  0.4514140000000  0.5490220000000  0.4511700000000 1.0
C      1  0.5487830000000  0.4511200000000  0.4512470000000 1.0
C      1  0.4512470000000  0.4512690000000  0.4513110000000 1.0
C      1  0.5488490000000  0.5489450000000  0.5488900000000 1.0
END
