TITL C-1379266-1300-162 -3.14975076611514e-06 1000000 -3839.60430770748 0 0 540 (Td) n - 1
REM
REM in /nfs/bkarasulu/CARBON/AIRSS/Generating-Clusters/GAP-ML-2020/Higher-Symm/Selected-Sizes/TryA-Only_Ih-Symm/Larger-Clusters/Try2-MINAMP_6A
REM
REM
REM
REM
REM
REM ./C.cell (31579ac4e95a012ec27f3239692ae8a5)
REM
REM compiler GCC version 9.2.1 20190827 (Red Hat 9.2.1-1)
REM options -cpp -mtune=generic -march=x86-64 -g -O0 -fpre-include=/usr/include/finclude/math-vector-fortran.h
REM seed -1938617826 -1665405568 -616333715 551397924 1519973891 2010287631 -2078489274 -1011121407 -1948818307 1072162674 1014205450 44800554 1874117211 -1989501088 -306972241 -2140883157 2081337108 -262696514 -136729485 1076541824 2125761267 -1043828471 81020569 1446479641 274169312 1718571805 -793525598 -388015263 1714750948 136505296 -155374452 -1265479908 165302507
REM
CELL 1.54180  100.00000  100.00000  100.00000   90.00000   90.00000   90.00000
LATT -1
SFAC C  
C      1  0.5155040000000  0.4228340000000  0.5055650000000 1.0
C      1  0.5055650000000  0.5155040000000  0.4228340000000 1.0
C      1  0.4228340000000  0.5055650000000  0.5155040000000 1.0
C      1  0.5155040000000  0.5771660000000  0.4944350000000 1.0
C      1  0.4844960000000  0.5771660000000  0.5055650000000 1.0
C      1  0.4844960000000  0.4228340000000  0.4944350000000 1.0
C      1  0.5055650000000  0.4844960000000  0.5771660000000 1.0
C      1  0.4944350000000  0.4844960000000  0.4228340000000 1.0
C      1  0.4944350000000  0.5155040000000  0.5771660000000 1.0
C      1  0.4228340000000  0.4944350000000  0.4844960000000 1.0
C      1  0.5771660000000  0.4944350000000  0.5155040000000 1.0
C      1  0.5771660000000  0.5055650000000  0.4844960000000 1.0
C      1  0.5155040000000  0.5055650000000  0.4228340000000 1.0
C      1  0.5055650000000  0.4228340000000  0.5155040000000 1.0
C      1  0.4228340000000  0.5155040000000  0.5055650000000 1.0
C      1  0.5155040000000  0.4944350000000  0.5771660000000 1.0
C      1  0.4844960000000  0.5055650000000  0.5771660000000 1.0
C      1  0.4844960000000  0.4944350000000  0.4228340000000 1.0
C      1  0.5055650000000  0.5771660000000  0.4844960000000 1.0
C      1  0.4944350000000  0.4228340000000  0.4844960000000 1.0
C      1  0.4944350000000  0.5771660000000  0.5155040000000 1.0
C      1  0.4228340000000  0.4844960000000  0.4944350000000 1.0
C      1  0.5771660000000  0.5155040000000  0.4944350000000 1.0
C      1  0.5771660000000  0.4844960000000  0.5055650000000 1.0
C      1  0.4221830000000  0.4622960000000  0.4723520000000 1.0
C      1  0.4723520000000  0.4221830000000  0.4622960000000 1.0
C      1  0.4622960000000  0.4723520000000  0.4221830000000 1.0
C      1  0.4221830000000  0.5377040000000  0.5276480000000 1.0
C      1  0.5778170000000  0.5377040000000  0.4723520000000 1.0
C      1  0.5778170000000  0.4622960000000  0.5276480000000 1.0
C      1  0.4723520000000  0.5778170000000  0.5377040000000 1.0
C      1  0.5276480000000  0.5778170000000  0.4622960000000 1.0
C      1  0.5276480000000  0.4221830000000  0.5377040000000 1.0
C      1  0.4622960000000  0.5276480000000  0.5778170000000 1.0
C      1  0.5377040000000  0.5276480000000  0.4221830000000 1.0
C      1  0.5377040000000  0.4723520000000  0.5778170000000 1.0
C      1  0.4221830000000  0.4723520000000  0.4622960000000 1.0
C      1  0.4723520000000  0.4622960000000  0.4221830000000 1.0
C      1  0.4622960000000  0.4221830000000  0.4723520000000 1.0
C      1  0.4221830000000  0.5276480000000  0.5377040000000 1.0
C      1  0.5778170000000  0.4723520000000  0.5377040000000 1.0
C      1  0.5778170000000  0.5276480000000  0.4622960000000 1.0
C      1  0.4723520000000  0.5377040000000  0.5778170000000 1.0
C      1  0.5276480000000  0.4622960000000  0.5778170000000 1.0
C      1  0.5276480000000  0.5377040000000  0.4221830000000 1.0
C      1  0.4622960000000  0.5778170000000  0.5276480000000 1.0
C      1  0.5377040000000  0.4221830000000  0.5276480000000 1.0
C      1  0.5377040000000  0.5778170000000  0.4723520000000 1.0
C      1  0.4631500000000  0.4829740000000  0.4469140000000 1.0
C      1  0.4469140000000  0.4631500000000  0.4829740000000 1.0
C      1  0.4829740000000  0.4469140000000  0.4631500000000 1.0
C      1  0.4631500000000  0.5170260000000  0.5530860000000 1.0
C      1  0.5368500000000  0.5170260000000  0.4469140000000 1.0
C      1  0.5368500000000  0.4829740000000  0.5530860000000 1.0
C      1  0.4469140000000  0.5368500000000  0.5170260000000 1.0
C      1  0.5530860000000  0.5368500000000  0.4829740000000 1.0
C      1  0.5530860000000  0.4631500000000  0.5170260000000 1.0
C      1  0.4829740000000  0.5530860000000  0.5368500000000 1.0
C      1  0.5170260000000  0.5530860000000  0.4631500000000 1.0
C      1  0.5170260000000  0.4469140000000  0.5368500000000 1.0
C      1  0.4631500000000  0.4469140000000  0.4829740000000 1.0
C      1  0.4469140000000  0.4829740000000  0.4631500000000 1.0
C      1  0.4829740000000  0.4631500000000  0.4469140000000 1.0
C      1  0.4631500000000  0.5530860000000  0.5170260000000 1.0
C      1  0.5368500000000  0.4469140000000  0.5170260000000 1.0
C      1  0.5368500000000  0.5530860000000  0.4829740000000 1.0
C      1  0.4469140000000  0.5170260000000  0.5368500000000 1.0
C      1  0.5530860000000  0.4829740000000  0.5368500000000 1.0
C      1  0.5530860000000  0.5170260000000  0.4631500000000 1.0
C      1  0.4829740000000  0.5368500000000  0.5530860000000 1.0
C      1  0.5170260000000  0.4631500000000  0.5530860000000 1.0
C      1  0.5170260000000  0.5368500000000  0.4469140000000 1.0
C      1  0.4855360000000  0.4572310000000  0.5722590000000 1.0
C      1  0.5722590000000  0.4855360000000  0.4572310000000 1.0
C      1  0.4572310000000  0.5722590000000  0.4855360000000 1.0
C      1  0.4855360000000  0.5427690000000  0.4277410000000 1.0
C      1  0.5144640000000  0.5427690000000  0.5722590000000 1.0
C      1  0.5144640000000  0.4572310000000  0.4277410000000 1.0
C      1  0.5722590000000  0.5144640000000  0.5427690000000 1.0
C      1  0.4277410000000  0.5144640000000  0.4572310000000 1.0
C      1  0.4277410000000  0.4855360000000  0.5427690000000 1.0
C      1  0.4572310000000  0.4277410000000  0.5144640000000 1.0
C      1  0.5427690000000  0.4277410000000  0.4855360000000 1.0
C      1  0.5427690000000  0.5722590000000  0.5144640000000 1.0
C      1  0.4855360000000  0.5722590000000  0.4572310000000 1.0
C      1  0.5722590000000  0.4572310000000  0.4855360000000 1.0
C      1  0.4572310000000  0.4855360000000  0.5722590000000 1.0
C      1  0.4855360000000  0.4277410000000  0.5427690000000 1.0
C      1  0.5144640000000  0.5722590000000  0.5427690000000 1.0
C      1  0.5144640000000  0.4277410000000  0.4572310000000 1.0
C      1  0.5722590000000  0.5427690000000  0.5144640000000 1.0
C      1  0.4277410000000  0.4572310000000  0.5144640000000 1.0
C      1  0.4277410000000  0.5427690000000  0.4855360000000 1.0
C      1  0.4572310000000  0.5144640000000  0.4277410000000 1.0
C      1  0.5427690000000  0.4855360000000  0.4277410000000 1.0
C      1  0.5427690000000  0.5144640000000  0.5722590000000 1.0
C      1  0.4732970000000  0.5169350000000  0.4933290000000 1.0
C      1  0.4933290000000  0.4732970000000  0.5169350000000 1.0
C      1  0.5169350000000  0.4933290000000  0.4732970000000 1.0
C      1  0.4732970000000  0.4830650000000  0.5066710000000 1.0
C      1  0.5267030000000  0.4830650000000  0.4933290000000 1.0
C      1  0.5267030000000  0.5169350000000  0.5066710000000 1.0
C      1  0.4933290000000  0.5267030000000  0.4830650000000 1.0
C      1  0.5066710000000  0.5267030000000  0.5169350000000 1.0
C      1  0.5066710000000  0.4732970000000  0.4830650000000 1.0
C      1  0.5169350000000  0.5066710000000  0.5267030000000 1.0
C      1  0.4830650000000  0.5066710000000  0.4732970000000 1.0
C      1  0.4830650000000  0.4933290000000  0.5267030000000 1.0
C      1  0.4732970000000  0.4933290000000  0.5169350000000 1.0
C      1  0.4933290000000  0.5169350000000  0.4732970000000 1.0
C      1  0.5169350000000  0.4732970000000  0.4933290000000 1.0
C      1  0.4732970000000  0.5066710000000  0.4830650000000 1.0
C      1  0.5267030000000  0.4933290000000  0.4830650000000 1.0
C      1  0.5267030000000  0.5066710000000  0.5169350000000 1.0
C      1  0.4933290000000  0.4830650000000  0.5267030000000 1.0
C      1  0.5066710000000  0.5169350000000  0.5267030000000 1.0
C      1  0.5066710000000  0.4830650000000  0.4732970000000 1.0
C      1  0.5169350000000  0.5267030000000  0.5066710000000 1.0
C      1  0.4830650000000  0.4732970000000  0.5066710000000 1.0
C      1  0.4830650000000  0.5267030000000  0.4933290000000 1.0
C      1  0.5136680000000  0.4183420000000  0.5389340000000 1.0
C      1  0.5389340000000  0.5136680000000  0.4183420000000 1.0
C      1  0.4183420000000  0.5389340000000  0.5136680000000 1.0
C      1  0.5136680000000  0.5816580000000  0.4610660000000 1.0
C      1  0.4863320000000  0.5816580000000  0.5389340000000 1.0
C      1  0.4863320000000  0.4183420000000  0.4610660000000 1.0
C      1  0.5389340000000  0.4863320000000  0.5816580000000 1.0
C      1  0.4610660000000  0.4863320000000  0.4183420000000 1.0
C      1  0.4610660000000  0.5136680000000  0.5816580000000 1.0
C      1  0.4183420000000  0.4610660000000  0.4863320000000 1.0
C      1  0.5816580000000  0.4610660000000  0.5136680000000 1.0
C      1  0.5816580000000  0.5389340000000  0.4863320000000 1.0
C      1  0.5136680000000  0.5389340000000  0.4183420000000 1.0
C      1  0.5389340000000  0.4183420000000  0.5136680000000 1.0
C      1  0.4183420000000  0.5136680000000  0.5389340000000 1.0
C      1  0.5136680000000  0.4610660000000  0.5816580000000 1.0
C      1  0.4863320000000  0.5389340000000  0.5816580000000 1.0
C      1  0.4863320000000  0.4610660000000  0.4183420000000 1.0
C      1  0.5389340000000  0.5816580000000  0.4863320000000 1.0
C      1  0.4610660000000  0.4183420000000  0.4863320000000 1.0
C      1  0.4610660000000  0.5816580000000  0.5136680000000 1.0
C      1  0.4183420000000  0.4863320000000  0.4610660000000 1.0
C      1  0.5816580000000  0.5136680000000  0.4610660000000 1.0
C      1  0.5816580000000  0.4863320000000  0.5389340000000 1.0
C      1  0.4912150000000  0.4583960000000  0.5204180000000 1.0
C      1  0.5204180000000  0.4912150000000  0.4583960000000 1.0
C      1  0.4583960000000  0.5204180000000  0.4912150000000 1.0
C      1  0.4912150000000  0.5416040000000  0.4795820000000 1.0
C      1  0.5087850000000  0.5416040000000  0.5204180000000 1.0
C      1  0.5087850000000  0.4583960000000  0.4795820000000 1.0
C      1  0.5204180000000  0.5087850000000  0.5416040000000 1.0
C      1  0.4795820000000  0.5087850000000  0.4583960000000 1.0
C      1  0.4795820000000  0.4912150000000  0.5416040000000 1.0
C      1  0.4583960000000  0.4795820000000  0.5087850000000 1.0
C      1  0.5416040000000  0.4795820000000  0.4912150000000 1.0
C      1  0.5416040000000  0.5204180000000  0.5087850000000 1.0
C      1  0.4912150000000  0.5204180000000  0.4583960000000 1.0
C      1  0.5204180000000  0.4583960000000  0.4912150000000 1.0
C      1  0.4583960000000  0.4912150000000  0.5204180000000 1.0
C      1  0.4912150000000  0.4795820000000  0.5416040000000 1.0
C      1  0.5087850000000  0.5204180000000  0.5416040000000 1.0
C      1  0.5087850000000  0.4795820000000  0.4583960000000 1.0
C      1  0.5204180000000  0.5416040000000  0.5087850000000 1.0
C      1  0.4795820000000  0.4583960000000  0.5087850000000 1.0
C      1  0.4795820000000  0.5416040000000  0.4912150000000 1.0
C      1  0.4583960000000  0.5087850000000  0.4795820000000 1.0
C      1  0.5416040000000  0.4912150000000  0.4795820000000 1.0
C      1  0.5416040000000  0.5087850000000  0.5204180000000 1.0
C      1  0.4967010000000  0.5284100000000  0.5819450000000 1.0
C      1  0.5819450000000  0.4967010000000  0.5284100000000 1.0
C      1  0.5284100000000  0.5819450000000  0.4967010000000 1.0
C      1  0.4967010000000  0.4715900000000  0.4180550000000 1.0
C      1  0.5032990000000  0.4715900000000  0.5819450000000 1.0
C      1  0.5032990000000  0.5284100000000  0.4180550000000 1.0
C      1  0.5819450000000  0.5032990000000  0.4715900000000 1.0
C      1  0.4180550000000  0.5032990000000  0.5284100000000 1.0
C      1  0.4180550000000  0.4967010000000  0.4715900000000 1.0
C      1  0.5284100000000  0.4180550000000  0.5032990000000 1.0
C      1  0.4715900000000  0.4180550000000  0.4967010000000 1.0
C      1  0.4715900000000  0.5819450000000  0.5032990000000 1.0
C      1  0.4967010000000  0.5819450000000  0.5284100000000 1.0
C      1  0.5819450000000  0.5284100000000  0.4967010000000 1.0
C      1  0.5284100000000  0.4967010000000  0.5819450000000 1.0
C      1  0.4967010000000  0.4180550000000  0.4715900000000 1.0
C      1  0.5032990000000  0.5819450000000  0.4715900000000 1.0
C      1  0.5032990000000  0.4180550000000  0.5284100000000 1.0
C      1  0.5819450000000  0.4715900000000  0.5032990000000 1.0
C      1  0.4180550000000  0.5284100000000  0.5032990000000 1.0
C      1  0.4180550000000  0.4715900000000  0.4967010000000 1.0
C      1  0.5284100000000  0.5032990000000  0.4180550000000 1.0
C      1  0.4715900000000  0.4967010000000  0.4180550000000 1.0
C      1  0.4715900000000  0.5032990000000  0.5819450000000 1.0
C      1  0.4553490000000  0.5639520000000  0.4739550000000 1.0
C      1  0.4739550000000  0.4553490000000  0.5639520000000 1.0
C      1  0.5639520000000  0.4739550000000  0.4553490000000 1.0
C      1  0.4553490000000  0.4360480000000  0.5260450000000 1.0
C      1  0.5446510000000  0.4360480000000  0.4739550000000 1.0
C      1  0.5446510000000  0.5639520000000  0.5260450000000 1.0
C      1  0.4739550000000  0.5446510000000  0.4360480000000 1.0
C      1  0.5260450000000  0.5446510000000  0.5639520000000 1.0
C      1  0.5260450000000  0.4553490000000  0.4360480000000 1.0
C      1  0.5639520000000  0.5260450000000  0.5446510000000 1.0
C      1  0.4360480000000  0.5260450000000  0.4553490000000 1.0
C      1  0.4360480000000  0.4739550000000  0.5446510000000 1.0
C      1  0.4553490000000  0.4739550000000  0.5639520000000 1.0
C      1  0.4739550000000  0.5639520000000  0.4553490000000 1.0
C      1  0.5639520000000  0.4553490000000  0.4739550000000 1.0
C      1  0.4553490000000  0.5260450000000  0.4360480000000 1.0
C      1  0.5446510000000  0.4739550000000  0.4360480000000 1.0
C      1  0.5446510000000  0.5260450000000  0.5639520000000 1.0
C      1  0.4739550000000  0.4360480000000  0.5446510000000 1.0
C      1  0.5260450000000  0.5639520000000  0.5446510000000 1.0
C      1  0.5260450000000  0.4360480000000  0.4553490000000 1.0
C      1  0.5639520000000  0.5446510000000  0.5260450000000 1.0
C      1  0.4360480000000  0.4553490000000  0.5260450000000 1.0
C      1  0.4360480000000  0.5446510000000  0.4739550000000 1.0
C      1  0.4799910000000  0.5417940000000  0.4694720000000 1.0
C      1  0.4694720000000  0.4799910000000  0.5417940000000 1.0
C      1  0.5417940000000  0.4694720000000  0.4799910000000 1.0
C      1  0.4799910000000  0.4582060000000  0.5305280000000 1.0
C      1  0.5200090000000  0.4582060000000  0.4694720000000 1.0
C      1  0.5200090000000  0.5417940000000  0.5305280000000 1.0
C      1  0.4694720000000  0.5200090000000  0.4582060000000 1.0
C      1  0.5305280000000  0.5200090000000  0.5417940000000 1.0
C      1  0.5305280000000  0.4799910000000  0.4582060000000 1.0
C      1  0.5417940000000  0.5305280000000  0.5200090000000 1.0
C      1  0.4582060000000  0.5305280000000  0.4799910000000 1.0
C      1  0.4582060000000  0.4694720000000  0.5200090000000 1.0
C      1  0.4799910000000  0.4694720000000  0.5417940000000 1.0
C      1  0.4694720000000  0.5417940000000  0.4799910000000 1.0
C      1  0.5417940000000  0.4799910000000  0.4694720000000 1.0
C      1  0.4799910000000  0.5305280000000  0.4582060000000 1.0
C      1  0.5200090000000  0.4694720000000  0.4582060000000 1.0
C      1  0.5200090000000  0.5305280000000  0.5417940000000 1.0
C      1  0.4694720000000  0.4582060000000  0.5200090000000 1.0
C      1  0.5305280000000  0.5417940000000  0.5200090000000 1.0
C      1  0.5305280000000  0.4582060000000  0.4799910000000 1.0
C      1  0.5417940000000  0.5200090000000  0.5305280000000 1.0
C      1  0.4582060000000  0.4799910000000  0.5305280000000 1.0
C      1  0.4582060000000  0.5200090000000  0.4694720000000 1.0
C      1  0.4700200000000  0.4322720000000  0.4517850000000 1.0
C      1  0.4517850000000  0.4700200000000  0.4322720000000 1.0
C      1  0.4322720000000  0.4517850000000  0.4700200000000 1.0
C      1  0.4700200000000  0.5677280000000  0.5482150000000 1.0
C      1  0.5299800000000  0.5677280000000  0.4517850000000 1.0
C      1  0.5299800000000  0.4322720000000  0.5482150000000 1.0
C      1  0.4517850000000  0.5299800000000  0.5677280000000 1.0
C      1  0.5482150000000  0.5299800000000  0.4322720000000 1.0
C      1  0.5482150000000  0.4700200000000  0.5677280000000 1.0
C      1  0.4322720000000  0.5482150000000  0.5299800000000 1.0
C      1  0.5677280000000  0.5482150000000  0.4700200000000 1.0
C      1  0.5677280000000  0.4517850000000  0.5299800000000 1.0
C      1  0.4700200000000  0.4517850000000  0.4322720000000 1.0
C      1  0.4517850000000  0.4322720000000  0.4700200000000 1.0
C      1  0.4322720000000  0.4700200000000  0.4517850000000 1.0
C      1  0.4700200000000  0.5482150000000  0.5677280000000 1.0
C      1  0.5299800000000  0.4517850000000  0.5677280000000 1.0
C      1  0.5299800000000  0.5482150000000  0.4322720000000 1.0
C      1  0.4517850000000  0.5677280000000  0.5299800000000 1.0
C      1  0.5482150000000  0.4322720000000  0.5299800000000 1.0
C      1  0.5482150000000  0.5677280000000  0.4700200000000 1.0
C      1  0.4322720000000  0.5299800000000  0.5482150000000 1.0
C      1  0.5677280000000  0.4700200000000  0.5482150000000 1.0
C      1  0.5677280000000  0.5299800000000  0.4517850000000 1.0
C      1  0.5414310000000  0.4485880000000  0.4791690000000 1.0
C      1  0.4791690000000  0.5414310000000  0.4485880000000 1.0
C      1  0.4485880000000  0.4791690000000  0.5414310000000 1.0
C      1  0.5414310000000  0.5514120000000  0.5208310000000 1.0
C      1  0.4585690000000  0.5514120000000  0.4791690000000 1.0
C      1  0.4585690000000  0.4485880000000  0.5208310000000 1.0
C      1  0.4791690000000  0.4585690000000  0.5514120000000 1.0
C      1  0.5208310000000  0.4585690000000  0.4485880000000 1.0
C      1  0.5208310000000  0.5414310000000  0.5514120000000 1.0
C      1  0.4485880000000  0.5208310000000  0.4585690000000 1.0
C      1  0.5514120000000  0.5208310000000  0.5414310000000 1.0
C      1  0.5514120000000  0.4791690000000  0.4585690000000 1.0
C      1  0.5414310000000  0.4791690000000  0.4485880000000 1.0
C      1  0.4791690000000  0.4485880000000  0.5414310000000 1.0
C      1  0.4485880000000  0.5414310000000  0.4791690000000 1.0
C      1  0.5414310000000  0.5208310000000  0.5514120000000 1.0
C      1  0.4585690000000  0.4791690000000  0.5514120000000 1.0
C      1  0.4585690000000  0.5208310000000  0.4485880000000 1.0
C      1  0.4791690000000  0.5514120000000  0.4585690000000 1.0
C      1  0.5208310000000  0.4485880000000  0.4585690000000 1.0
C      1  0.5208310000000  0.5514120000000  0.5414310000000 1.0
C      1  0.4485880000000  0.4585690000000  0.5208310000000 1.0
C      1  0.5514120000000  0.5414310000000  0.5208310000000 1.0
C      1  0.5514120000000  0.4585690000000  0.4791690000000 1.0
C      1  0.4760850000000  0.5514950000000  0.5141430000000 1.0
C      1  0.5141430000000  0.4760850000000  0.5514950000000 1.0
C      1  0.5514950000000  0.5141430000000  0.4760850000000 1.0
C      1  0.4760850000000  0.4485050000000  0.4858570000000 1.0
C      1  0.5239150000000  0.4485050000000  0.5141430000000 1.0
C      1  0.5239150000000  0.5514950000000  0.4858570000000 1.0
C      1  0.5141430000000  0.5239150000000  0.4485050000000 1.0
C      1  0.4858570000000  0.5239150000000  0.5514950000000 1.0
C      1  0.4858570000000  0.4760850000000  0.4485050000000 1.0
C      1  0.5514950000000  0.4858570000000  0.5239150000000 1.0
C      1  0.4485050000000  0.4858570000000  0.4760850000000 1.0
C      1  0.4485050000000  0.5141430000000  0.5239150000000 1.0
C      1  0.4760850000000  0.5141430000000  0.5514950000000 1.0
C      1  0.5141430000000  0.5514950000000  0.4760850000000 1.0
C      1  0.5514950000000  0.4760850000000  0.5141430000000 1.0
C      1  0.4760850000000  0.4858570000000  0.4485050000000 1.0
C      1  0.5239150000000  0.5141430000000  0.4485050000000 1.0
C      1  0.5239150000000  0.4858570000000  0.5514950000000 1.0
C      1  0.5141430000000  0.4485050000000  0.5239150000000 1.0
C      1  0.4858570000000  0.5514950000000  0.5239150000000 1.0
C      1  0.4858570000000  0.4485050000000  0.4760850000000 1.0
C      1  0.5514950000000  0.5239150000000  0.4858570000000 1.0
C      1  0.4485050000000  0.4760850000000  0.4858570000000 1.0
C      1  0.4485050000000  0.5239150000000  0.5141430000000 1.0
C      1  0.5682040000000  0.4511550000000  0.4980540000000 1.0
C      1  0.4980540000000  0.5682040000000  0.4511550000000 1.0
C      1  0.4511550000000  0.4980540000000  0.5682040000000 1.0
C      1  0.5682040000000  0.5488450000000  0.5019460000000 1.0
C      1  0.4317960000000  0.5488450000000  0.4980540000000 1.0
C      1  0.4317960000000  0.4511550000000  0.5019460000000 1.0
C      1  0.4980540000000  0.4317960000000  0.5488450000000 1.0
C      1  0.5019460000000  0.4317960000000  0.4511550000000 1.0
C      1  0.5019460000000  0.5682040000000  0.5488450000000 1.0
C      1  0.4511550000000  0.5019460000000  0.4317960000000 1.0
C      1  0.5488450000000  0.5019460000000  0.5682040000000 1.0
C      1  0.5488450000000  0.4980540000000  0.4317960000000 1.0
C      1  0.5682040000000  0.4980540000000  0.4511550000000 1.0
C      1  0.4980540000000  0.4511550000000  0.5682040000000 1.0
C      1  0.4511550000000  0.5682040000000  0.4980540000000 1.0
C      1  0.5682040000000  0.5019460000000  0.5488450000000 1.0
C      1  0.4317960000000  0.4980540000000  0.5488450000000 1.0
C      1  0.4317960000000  0.5019460000000  0.4511550000000 1.0
C      1  0.4980540000000  0.5488450000000  0.4317960000000 1.0
C      1  0.5019460000000  0.4511550000000  0.4317960000000 1.0
C      1  0.5019460000000  0.5488450000000  0.5682040000000 1.0
C      1  0.4511550000000  0.4317960000000  0.5019460000000 1.0
C      1  0.5488450000000  0.5682040000000  0.5019460000000 1.0
C      1  0.5488450000000  0.4317960000000  0.4980540000000 1.0
C      1  0.5192490000000  0.4993310000000  0.5521680000000 1.0
C      1  0.5521680000000  0.5192490000000  0.4993310000000 1.0
C      1  0.4993310000000  0.5521680000000  0.5192490000000 1.0
C      1  0.5192490000000  0.5006690000000  0.4478320000000 1.0
C      1  0.4807510000000  0.5006690000000  0.5521680000000 1.0
C      1  0.4807510000000  0.4993310000000  0.4478320000000 1.0
C      1  0.5521680000000  0.4807510000000  0.5006690000000 1.0
C      1  0.4478320000000  0.4807510000000  0.4993310000000 1.0
C      1  0.4478320000000  0.5192490000000  0.5006690000000 1.0
C      1  0.4993310000000  0.4478320000000  0.4807510000000 1.0
C      1  0.5006690000000  0.4478320000000  0.5192490000000 1.0
C      1  0.5006690000000  0.5521680000000  0.4807510000000 1.0
C      1  0.5192490000000  0.5521680000000  0.4993310000000 1.0
C      1  0.5521680000000  0.4993310000000  0.5192490000000 1.0
C      1  0.4993310000000  0.5192490000000  0.5521680000000 1.0
C      1  0.5192490000000  0.4478320000000  0.5006690000000 1.0
C      1  0.4807510000000  0.5521680000000  0.5006690000000 1.0
C      1  0.4807510000000  0.4478320000000  0.4993310000000 1.0
C      1  0.5521680000000  0.5006690000000  0.4807510000000 1.0
C      1  0.4478320000000  0.4993310000000  0.4807510000000 1.0
C      1  0.4478320000000  0.5006690000000  0.5192490000000 1.0
C      1  0.4993310000000  0.4807510000000  0.4478320000000 1.0
C      1  0.5006690000000  0.5192490000000  0.4478320000000 1.0
C      1  0.5006690000000  0.4807510000000  0.5521680000000 1.0
C      1  0.4237410000000  0.4483050000000  0.4906530000000 1.0
C      1  0.4906530000000  0.4237410000000  0.4483050000000 1.0
C      1  0.4483050000000  0.4906530000000  0.4237410000000 1.0
C      1  0.4237410000000  0.5516950000000  0.5093470000000 1.0
C      1  0.5762590000000  0.5516950000000  0.4906530000000 1.0
C      1  0.5762590000000  0.4483050000000  0.5093470000000 1.0
C      1  0.4906530000000  0.5762590000000  0.5516950000000 1.0
C      1  0.5093470000000  0.5762590000000  0.4483050000000 1.0
C      1  0.5093470000000  0.4237410000000  0.5516950000000 1.0
C      1  0.4483050000000  0.5093470000000  0.5762590000000 1.0
C      1  0.5516950000000  0.5093470000000  0.4237410000000 1.0
C      1  0.5516950000000  0.4906530000000  0.5762590000000 1.0
C      1  0.4237410000000  0.4906530000000  0.4483050000000 1.0
C      1  0.4906530000000  0.4483050000000  0.4237410000000 1.0
C      1  0.4483050000000  0.4237410000000  0.4906530000000 1.0
C      1  0.4237410000000  0.5093470000000  0.5516950000000 1.0
C      1  0.5762590000000  0.4906530000000  0.5516950000000 1.0
C      1  0.5762590000000  0.5093470000000  0.4483050000000 1.0
C      1  0.4906530000000  0.5516950000000  0.5762590000000 1.0
C      1  0.5093470000000  0.4483050000000  0.5762590000000 1.0
C      1  0.5093470000000  0.5516950000000  0.4237410000000 1.0
C      1  0.4483050000000  0.5762590000000  0.5093470000000 1.0
C      1  0.5516950000000  0.4237410000000  0.5093470000000 1.0
C      1  0.5516950000000  0.5762590000000  0.4906530000000 1.0
C      1  0.4195360000000  0.5308380000000  0.4882010000000 1.0
C      1  0.4882010000000  0.4195360000000  0.5308380000000 1.0
C      1  0.5308380000000  0.4882010000000  0.4195360000000 1.0
C      1  0.4195360000000  0.4691620000000  0.5117990000000 1.0
C      1  0.5804640000000  0.4691620000000  0.4882010000000 1.0
C      1  0.5804640000000  0.5308380000000  0.5117990000000 1.0
C      1  0.4882010000000  0.5804640000000  0.4691620000000 1.0
C      1  0.5117990000000  0.5804640000000  0.5308380000000 1.0
C      1  0.5117990000000  0.4195360000000  0.4691620000000 1.0
C      1  0.5308380000000  0.5117990000000  0.5804640000000 1.0
C      1  0.4691620000000  0.5117990000000  0.4195360000000 1.0
C      1  0.4691620000000  0.4882010000000  0.5804640000000 1.0
C      1  0.4195360000000  0.4882010000000  0.5308380000000 1.0
C      1  0.4882010000000  0.5308380000000  0.4195360000000 1.0
C      1  0.5308380000000  0.4195360000000  0.4882010000000 1.0
C      1  0.4195360000000  0.5117990000000  0.4691620000000 1.0
C      1  0.5804640000000  0.4882010000000  0.4691620000000 1.0
C      1  0.5804640000000  0.5117990000000  0.5308380000000 1.0
C      1  0.4882010000000  0.4691620000000  0.5804640000000 1.0
C      1  0.5117990000000  0.5308380000000  0.5804640000000 1.0
C      1  0.5117990000000  0.4691620000000  0.4195360000000 1.0
C      1  0.5308380000000  0.5804640000000  0.5117990000000 1.0
C      1  0.4691620000000  0.4195360000000  0.5117990000000 1.0
C      1  0.4691620000000  0.5804640000000  0.4882010000000 1.0
C      1  0.5425980000000  0.4464010000000  0.5317770000000 1.0
C      1  0.5317770000000  0.5425980000000  0.4464010000000 1.0
C      1  0.4464010000000  0.5317770000000  0.5425980000000 1.0
C      1  0.5425980000000  0.5535990000000  0.4682230000000 1.0
C      1  0.4574020000000  0.5535990000000  0.5317770000000 1.0
C      1  0.4574020000000  0.4464010000000  0.4682230000000 1.0
C      1  0.5317770000000  0.4574020000000  0.5535990000000 1.0
C      1  0.4682230000000  0.4574020000000  0.4464010000000 1.0
C      1  0.4682230000000  0.5425980000000  0.5535990000000 1.0
C      1  0.4464010000000  0.4682230000000  0.4574020000000 1.0
C      1  0.5535990000000  0.4682230000000  0.5425980000000 1.0
C      1  0.5535990000000  0.5317770000000  0.4574020000000 1.0
C      1  0.5425980000000  0.5317770000000  0.4464010000000 1.0
C      1  0.5317770000000  0.4464010000000  0.5425980000000 1.0
C      1  0.4464010000000  0.5425980000000  0.5317770000000 1.0
C      1  0.5425980000000  0.4682230000000  0.5535990000000 1.0
C      1  0.4574020000000  0.5317770000000  0.5535990000000 1.0
C      1  0.4574020000000  0.4682230000000  0.4464010000000 1.0
C      1  0.5317770000000  0.5535990000000  0.4574020000000 1.0
C      1  0.4682230000000  0.4464010000000  0.4574020000000 1.0
C      1  0.4682230000000  0.5535990000000  0.5425980000000 1.0
C      1  0.4464010000000  0.4574020000000  0.4682230000000 1.0
C      1  0.5535990000000  0.5425980000000  0.4682230000000 1.0
C      1  0.5535990000000  0.4574020000000  0.5317770000000 1.0
C      1  0.5056000000000  0.5458150000000  0.4445610000000 1.0
C      1  0.4445610000000  0.5056000000000  0.5458150000000 1.0
C      1  0.5458150000000  0.4445610000000  0.5056000000000 1.0
C      1  0.5056000000000  0.4541850000000  0.5554390000000 1.0
C      1  0.4944000000000  0.4541850000000  0.4445610000000 1.0
C      1  0.4944000000000  0.5458150000000  0.5554390000000 1.0
C      1  0.4445610000000  0.4944000000000  0.4541850000000 1.0
C      1  0.5554390000000  0.4944000000000  0.5458150000000 1.0
C      1  0.5554390000000  0.5056000000000  0.4541850000000 1.0
C      1  0.5458150000000  0.5554390000000  0.4944000000000 1.0
C      1  0.4541850000000  0.5554390000000  0.5056000000000 1.0
C      1  0.4541850000000  0.4445610000000  0.4944000000000 1.0
C      1  0.5056000000000  0.4445610000000  0.5458150000000 1.0
C      1  0.4445610000000  0.5458150000000  0.5056000000000 1.0
C      1  0.5458150000000  0.5056000000000  0.4445610000000 1.0
C      1  0.5056000000000  0.5554390000000  0.4541850000000 1.0
C      1  0.4944000000000  0.4445610000000  0.4541850000000 1.0
C      1  0.4944000000000  0.5554390000000  0.5458150000000 1.0
C      1  0.4445610000000  0.4541850000000  0.4944000000000 1.0
C      1  0.5554390000000  0.5458150000000  0.4944000000000 1.0
C      1  0.5554390000000  0.4541850000000  0.5056000000000 1.0
C      1  0.5458150000000  0.4944000000000  0.5554390000000 1.0
C      1  0.4541850000000  0.5056000000000  0.5554390000000 1.0
C      1  0.4541850000000  0.4944000000000  0.4445610000000 1.0
C      1  0.4796590000000  0.4311340000000  0.4410950000000 1.0
C      1  0.4410950000000  0.4796590000000  0.4311340000000 1.0
C      1  0.4311340000000  0.4410950000000  0.4796590000000 1.0
C      1  0.4796590000000  0.5688660000000  0.5589050000000 1.0
C      1  0.5203410000000  0.5688660000000  0.4410950000000 1.0
C      1  0.5203410000000  0.4311340000000  0.5589050000000 1.0
C      1  0.4410950000000  0.5203410000000  0.5688660000000 1.0
C      1  0.5589050000000  0.5203410000000  0.4311340000000 1.0
C      1  0.5589050000000  0.4796590000000  0.5688660000000 1.0
C      1  0.4311340000000  0.5589050000000  0.5203410000000 1.0
C      1  0.5688660000000  0.5589050000000  0.4796590000000 1.0
C      1  0.5688660000000  0.4410950000000  0.5203410000000 1.0
C      1  0.4796590000000  0.4410950000000  0.4311340000000 1.0
C      1  0.4410950000000  0.4311340000000  0.4796590000000 1.0
C      1  0.4311340000000  0.4796590000000  0.4410950000000 1.0
C      1  0.4796590000000  0.5589050000000  0.5688660000000 1.0
C      1  0.5203410000000  0.4410950000000  0.5688660000000 1.0
C      1  0.5203410000000  0.5589050000000  0.4311340000000 1.0
C      1  0.4410950000000  0.5688660000000  0.5203410000000 1.0
C      1  0.5589050000000  0.4311340000000  0.5203410000000 1.0
C      1  0.5589050000000  0.5688660000000  0.4796590000000 1.0
C      1  0.4311340000000  0.5203410000000  0.5589050000000 1.0
C      1  0.5688660000000  0.4796590000000  0.5589050000000 1.0
C      1  0.5688660000000  0.5203410000000  0.4410950000000 1.0
C      1  0.5007770000000  0.4889940000000  0.4360420000000 1.0
C      1  0.4360420000000  0.5007770000000  0.4889940000000 1.0
C      1  0.4889940000000  0.4360420000000  0.5007770000000 1.0
C      1  0.5007770000000  0.5110060000000  0.5639580000000 1.0
C      1  0.4992230000000  0.5110060000000  0.4360420000000 1.0
C      1  0.4992230000000  0.4889940000000  0.5639580000000 1.0
C      1  0.4360420000000  0.4992230000000  0.5110060000000 1.0
C      1  0.5639580000000  0.4992230000000  0.4889940000000 1.0
C      1  0.5639580000000  0.5007770000000  0.5110060000000 1.0
C      1  0.4889940000000  0.5639580000000  0.4992230000000 1.0
C      1  0.5110060000000  0.5639580000000  0.5007770000000 1.0
C      1  0.5110060000000  0.4360420000000  0.4992230000000 1.0
C      1  0.5007770000000  0.4360420000000  0.4889940000000 1.0
C      1  0.4360420000000  0.4889940000000  0.5007770000000 1.0
C      1  0.4889940000000  0.5007770000000  0.4360420000000 1.0
C      1  0.5007770000000  0.5639580000000  0.5110060000000 1.0
C      1  0.4992230000000  0.4360420000000  0.5110060000000 1.0
C      1  0.4992230000000  0.5639580000000  0.4889940000000 1.0
C      1  0.4360420000000  0.5110060000000  0.4992230000000 1.0
C      1  0.5639580000000  0.4889940000000  0.4992230000000 1.0
C      1  0.5639580000000  0.5110060000000  0.5007770000000 1.0
C      1  0.4889940000000  0.4992230000000  0.5639580000000 1.0
C      1  0.5110060000000  0.5007770000000  0.5639580000000 1.0
C      1  0.5110060000000  0.4992230000000  0.4360420000000 1.0
C      1  0.4398150000000  0.5497020000000  0.4604060000000 1.0
C      1  0.4604060000000  0.4398150000000  0.5497020000000 1.0
C      1  0.5497020000000  0.4604060000000  0.4398150000000 1.0
C      1  0.4398150000000  0.4502980000000  0.5395940000000 1.0
C      1  0.5601850000000  0.4502980000000  0.4604060000000 1.0
C      1  0.5601850000000  0.5497020000000  0.5395940000000 1.0
C      1  0.4604060000000  0.5601850000000  0.4502980000000 1.0
C      1  0.5395940000000  0.5601850000000  0.5497020000000 1.0
C      1  0.5395940000000  0.4398150000000  0.4502980000000 1.0
C      1  0.5497020000000  0.5395940000000  0.5601850000000 1.0
C      1  0.4502980000000  0.5395940000000  0.4398150000000 1.0
C      1  0.4502980000000  0.4604060000000  0.5601850000000 1.0
C      1  0.4398150000000  0.4604060000000  0.5497020000000 1.0
C      1  0.4604060000000  0.5497020000000  0.4398150000000 1.0
C      1  0.5497020000000  0.4398150000000  0.4604060000000 1.0
C      1  0.4398150000000  0.5395940000000  0.4502980000000 1.0
C      1  0.5601850000000  0.4604060000000  0.4502980000000 1.0
C      1  0.5601850000000  0.5395940000000  0.5497020000000 1.0
C      1  0.4604060000000  0.4502980000000  0.5601850000000 1.0
C      1  0.5395940000000  0.5497020000000  0.5601850000000 1.0
C      1  0.5395940000000  0.4502980000000  0.4398150000000 1.0
C      1  0.5497020000000  0.5601850000000  0.5395940000000 1.0
C      1  0.4502980000000  0.4398150000000  0.5395940000000 1.0
C      1  0.4502980000000  0.5601850000000  0.4604060000000 1.0
C      1  0.4791190000000  0.4791190000000  0.5826480000000 1.0
C      1  0.5826480000000  0.5208810000000  0.5208810000000 1.0
C      1  0.5208810000000  0.5826480000000  0.5208810000000 1.0
C      1  0.5208810000000  0.4791190000000  0.4173520000000 1.0
C      1  0.4791190000000  0.5208810000000  0.4173520000000 1.0
C      1  0.5826480000000  0.4791190000000  0.4791190000000 1.0
C      1  0.4173520000000  0.4791190000000  0.5208810000000 1.0
C      1  0.4173520000000  0.5208810000000  0.4791190000000 1.0
C      1  0.5208810000000  0.4173520000000  0.4791190000000 1.0
C      1  0.4791190000000  0.4173520000000  0.5208810000000 1.0
C      1  0.4791190000000  0.5826480000000  0.4791190000000 1.0
C      1  0.5208810000000  0.5208810000000  0.5826480000000 1.0
END
