TITL C-1379265-1223-480 -2.47827960644347e-07 1000000 -2227.68664443781 0 0 320 (Th) n - 1
REM
REM in /nfs/bkarasulu/CARBON/AIRSS/Generating-Clusters/GAP-ML-2020/Higher-Symm/Selected-Sizes/TryA-Only_Ih-Symm/Larger-Clusters/Try2-MINAMP_6A
REM
REM
REM
REM
REM
REM ./C.cell (31579ac4e95a012ec27f3239692ae8a5)
REM
REM compiler GCC version 9.2.1 20190827 (Red Hat 9.2.1-1)
REM options -cpp -mtune=generic -march=x86-64 -g -O0 -fpre-include=/usr/include/finclude/math-vector-fortran.h
REM seed 785084302 1281747080 -951222997 -137500636 -1702986567 -1799975618 2034705536 293064946 -1003591578 727695853 -272875062 -1768166174 1331727940 -2019827976 -1248449396 -1561452647 1556975006 -2033811502 2073979751 1676517392 -1378307397 1382894144 1517615014 1790425078 600901668 -2059750318 2011681874 -1671053650 -802220974 -233488729 1332880847 -343382843 285928508
REM
CELL 1.54180  100.00000  100.00000  100.00000   90.00000   90.00000   90.00000
LATT -1
SFAC C  
C      1  0.5709880000000  0.4709630000000  0.4854260000000 1.0
C      1  0.4852890000000  0.5710830000000  0.4710050000000 1.0
C      1  0.4708680000000  0.4853840000000  0.5711250000000 1.0
C      1  0.4289280000000  0.4709630000000  0.5147640000000 1.0
C      1  0.5709880000000  0.5291420000000  0.5147640000000 1.0
C      1  0.4289280000000  0.5291420000000  0.4854260000000 1.0
C      1  0.5146270000000  0.5710830000000  0.5291840000000 1.0
C      1  0.4852890000000  0.4290230000000  0.5291840000000 1.0
C      1  0.5146270000000  0.4290230000000  0.4710050000000 1.0
C      1  0.5290480000000  0.4853840000000  0.4290640000000 1.0
C      1  0.4708680000000  0.5147220000000  0.4290640000000 1.0
C      1  0.5290480000000  0.5147220000000  0.5711250000000 1.0
C      1  0.5709880000000  0.5291420000000  0.4854260000000 1.0
C      1  0.4852890000000  0.4290230000000  0.4710050000000 1.0
C      1  0.4708680000000  0.5147220000000  0.5711250000000 1.0
C      1  0.4289280000000  0.5291420000000  0.5147640000000 1.0
C      1  0.5709880000000  0.4709630000000  0.5147640000000 1.0
C      1  0.4289280000000  0.4709630000000  0.4854260000000 1.0
C      1  0.5146270000000  0.4290230000000  0.5291840000000 1.0
C      1  0.4852890000000  0.5710830000000  0.5291840000000 1.0
C      1  0.5146270000000  0.5710830000000  0.4710050000000 1.0
C      1  0.5290480000000  0.5147220000000  0.4290640000000 1.0
C      1  0.4708680000000  0.4853840000000  0.4290640000000 1.0
C      1  0.5290480000000  0.4853840000000  0.5711250000000 1.0
C      1  0.5706470000000  0.5170890000000  0.5235680000000 1.0
C      1  0.5234310000000  0.5707420000000  0.5171310000000 1.0
C      1  0.5169940000000  0.5235260000000  0.5707840000000 1.0
C      1  0.4292690000000  0.5170890000000  0.4766220000000 1.0
C      1  0.5706470000000  0.4830170000000  0.4766220000000 1.0
C      1  0.4292690000000  0.4830170000000  0.5235680000000 1.0
C      1  0.4764850000000  0.5707420000000  0.4830590000000 1.0
C      1  0.5234310000000  0.4293640000000  0.4830590000000 1.0
C      1  0.4764850000000  0.4293640000000  0.5171310000000 1.0
C      1  0.4829220000000  0.5235260000000  0.4294060000000 1.0
C      1  0.5169940000000  0.4765800000000  0.4294060000000 1.0
C      1  0.4829220000000  0.4765800000000  0.5707840000000 1.0
C      1  0.5706470000000  0.4830170000000  0.5235680000000 1.0
C      1  0.5234310000000  0.4293640000000  0.5171310000000 1.0
C      1  0.5169940000000  0.4765800000000  0.5707840000000 1.0
C      1  0.4292690000000  0.4830170000000  0.4766220000000 1.0
C      1  0.5706470000000  0.5170890000000  0.4766220000000 1.0
C      1  0.4292690000000  0.5170890000000  0.5235680000000 1.0
C      1  0.4764850000000  0.4293640000000  0.4830590000000 1.0
C      1  0.5234310000000  0.5707420000000  0.4830590000000 1.0
C      1  0.4764850000000  0.5707420000000  0.5171310000000 1.0
C      1  0.4829220000000  0.4765800000000  0.4294060000000 1.0
C      1  0.5169940000000  0.5235260000000  0.4294060000000 1.0
C      1  0.4829220000000  0.5235260000000  0.5707840000000 1.0
C      1  0.5369010000000  0.4765980000000  0.4821420000000 1.0
C      1  0.4820050000000  0.5369960000000  0.4766400000000 1.0
C      1  0.4765030000000  0.4821000000000  0.5370380000000 1.0
C      1  0.4630150000000  0.4765980000000  0.5180480000000 1.0
C      1  0.5369010000000  0.5235080000000  0.5180480000000 1.0
C      1  0.4630150000000  0.5235080000000  0.4821420000000 1.0
C      1  0.5179110000000  0.5369960000000  0.5235500000000 1.0
C      1  0.4820050000000  0.4631100000000  0.5235500000000 1.0
C      1  0.5179110000000  0.4631100000000  0.4766400000000 1.0
C      1  0.5234130000000  0.4821000000000  0.4631520000000 1.0
C      1  0.4765030000000  0.5180060000000  0.4631520000000 1.0
C      1  0.5234130000000  0.5180060000000  0.5370380000000 1.0
C      1  0.5369010000000  0.5235080000000  0.4821420000000 1.0
C      1  0.4820050000000  0.4631100000000  0.4766400000000 1.0
C      1  0.4765030000000  0.5180060000000  0.5370380000000 1.0
C      1  0.4630150000000  0.5235080000000  0.5180480000000 1.0
C      1  0.5369010000000  0.4765980000000  0.5180480000000 1.0
C      1  0.4630150000000  0.4765980000000  0.4821420000000 1.0
C      1  0.5179110000000  0.4631100000000  0.5235500000000 1.0
C      1  0.4820050000000  0.5369960000000  0.5235500000000 1.0
C      1  0.5179110000000  0.5369960000000  0.4766400000000 1.0
C      1  0.5234130000000  0.5180060000000  0.4631520000000 1.0
C      1  0.4765030000000  0.4821000000000  0.4631520000000 1.0
C      1  0.5234130000000  0.4821000000000  0.5370380000000 1.0
C      1  0.5140640000000  0.5538500000000  0.4511080000000 1.0
C      1  0.4509710000000  0.5141590000000  0.5538920000000 1.0
C      1  0.5537550000000  0.4510660000000  0.5142010000000 1.0
C      1  0.4858520000000  0.5538500000000  0.5490820000000 1.0
C      1  0.5140640000000  0.4462560000000  0.5490820000000 1.0
C      1  0.4858520000000  0.4462560000000  0.4511080000000 1.0
C      1  0.5489450000000  0.5141590000000  0.4462980000000 1.0
C      1  0.4509710000000  0.4859470000000  0.4462970000000 1.0
C      1  0.5489450000000  0.4859470000000  0.5538920000000 1.0
C      1  0.4461610000000  0.4510660000000  0.4859890000000 1.0
C      1  0.5537550000000  0.5490400000000  0.4859890000000 1.0
C      1  0.4461610000000  0.5490400000000  0.5142010000000 1.0
C      1  0.5140640000000  0.4462560000000  0.4511080000000 1.0
C      1  0.4509710000000  0.4859470000000  0.5538920000000 1.0
C      1  0.5537550000000  0.5490400000000  0.5142010000000 1.0
C      1  0.4858520000000  0.4462560000000  0.5490820000000 1.0
C      1  0.5140640000000  0.5538500000000  0.5490820000000 1.0
C      1  0.4858520000000  0.5538500000000  0.4511080000000 1.0
C      1  0.5489450000000  0.4859470000000  0.4462980000000 1.0
C      1  0.4509710000000  0.5141590000000  0.4462970000000 1.0
C      1  0.5489450000000  0.5141590000000  0.5538920000000 1.0
C      1  0.4461610000000  0.5490400000000  0.4859890000000 1.0
C      1  0.5537550000000  0.4510660000000  0.4859890000000 1.0
C      1  0.4461610000000  0.4510660000000  0.5142010000000 1.0
C      1  0.4929780000000  0.5168970000000  0.5801600000000 1.0
C      1  0.5800230000000  0.4930730000000  0.5169390000000 1.0
C      1  0.5168020000000  0.5801180000000  0.4931150000000 1.0
C      1  0.5069380000000  0.5168970000000  0.4200300000000 1.0
C      1  0.4929780000000  0.4832090000000  0.4200300000000 1.0
C      1  0.5069380000000  0.4832090000000  0.5801600000000 1.0
C      1  0.4198930000000  0.4930730000000  0.4832510000000 1.0
C      1  0.5800230000000  0.5070330000000  0.4832510000000 1.0
C      1  0.4198930000000  0.5070330000000  0.5169390000000 1.0
C      1  0.4831140000000  0.5801180000000  0.5070750000000 1.0
C      1  0.5168020000000  0.4199880000000  0.5070750000000 1.0
C      1  0.4831140000000  0.4199880000000  0.4931150000000 1.0
C      1  0.4929780000000  0.4832090000000  0.5801600000000 1.0
C      1  0.5800230000000  0.5070330000000  0.5169390000000 1.0
C      1  0.5168020000000  0.4199880000000  0.4931150000000 1.0
C      1  0.5069380000000  0.4832090000000  0.4200300000000 1.0
C      1  0.4929780000000  0.5168970000000  0.4200300000000 1.0
C      1  0.5069380000000  0.5168970000000  0.5801600000000 1.0
C      1  0.4198930000000  0.5070330000000  0.4832510000000 1.0
C      1  0.5800230000000  0.4930730000000  0.4832510000000 1.0
C      1  0.4198930000000  0.4930730000000  0.5169390000000 1.0
C      1  0.4831140000000  0.4199880000000  0.5070750000000 1.0
C      1  0.5168020000000  0.5801180000000  0.5070750000000 1.0
C      1  0.4831140000000  0.5801180000000  0.4931150000000 1.0
C      1  0.4857500000000  0.5342900000000  0.5637170000000 1.0
C      1  0.5635800000000  0.4858450000000  0.5343320000000 1.0
C      1  0.5341950000000  0.5636750000000  0.4858870000000 1.0
C      1  0.5141660000000  0.5342900000000  0.4364730000000 1.0
C      1  0.4857500000000  0.4658160000000  0.4364730000000 1.0
C      1  0.5141660000000  0.4658160000000  0.5637170000000 1.0
C      1  0.4363360000000  0.4858450000000  0.4658580000000 1.0
C      1  0.5635800000000  0.5142610000000  0.4658580000000 1.0
C      1  0.4363360000000  0.5142610000000  0.5343320000000 1.0
C      1  0.4657210000000  0.5636750000000  0.5143030000000 1.0
C      1  0.5341950000000  0.4364310000000  0.5143030000000 1.0
C      1  0.4657210000000  0.4364310000000  0.4858870000000 1.0
C      1  0.4857500000000  0.4658160000000  0.5637170000000 1.0
C      1  0.5635800000000  0.5142610000000  0.5343320000000 1.0
C      1  0.5341950000000  0.4364310000000  0.4858870000000 1.0
C      1  0.5141660000000  0.4658160000000  0.4364730000000 1.0
C      1  0.4857500000000  0.5342900000000  0.4364730000000 1.0
C      1  0.5141660000000  0.5342900000000  0.5637170000000 1.0
C      1  0.4363360000000  0.5142610000000  0.4658580000000 1.0
C      1  0.5635800000000  0.4858450000000  0.4658580000000 1.0
C      1  0.4363360000000  0.4858450000000  0.5343320000000 1.0
C      1  0.4657210000000  0.4364310000000  0.5143030000000 1.0
C      1  0.5341950000000  0.5636750000000  0.5143030000000 1.0
C      1  0.4657210000000  0.5636750000000  0.4858870000000 1.0
C      1  0.5498880000000  0.4725480000000  0.5542070000000 1.0
C      1  0.5540700000000  0.5499830000000  0.4725900000000 1.0
C      1  0.4724530000000  0.5541650000000  0.5500250000000 1.0
C      1  0.4500280000000  0.4725480000000  0.4459830000000 1.0
C      1  0.5498880000000  0.5275580000000  0.4459830000000 1.0
C      1  0.4500280000000  0.5275580000000  0.5542070000000 1.0
C      1  0.4458460000000  0.5499830000000  0.5276000000000 1.0
C      1  0.5540700000000  0.4501230000000  0.5276000000000 1.0
C      1  0.4458460000000  0.4501230000000  0.4725900000000 1.0
C      1  0.5274630000000  0.5541650000000  0.4501650000000 1.0
C      1  0.4724530000000  0.4459410000000  0.4501650000000 1.0
C      1  0.5274630000000  0.4459410000000  0.5500250000000 1.0
C      1  0.5498880000000  0.5275580000000  0.5542070000000 1.0
C      1  0.5540700000000  0.4501230000000  0.4725900000000 1.0
C      1  0.4724530000000  0.4459410000000  0.5500250000000 1.0
C      1  0.4500280000000  0.5275580000000  0.4459830000000 1.0
C      1  0.5498880000000  0.4725480000000  0.4459830000000 1.0
C      1  0.4500280000000  0.4725480000000  0.5542070000000 1.0
C      1  0.4458460000000  0.4501230000000  0.5276000000000 1.0
C      1  0.5540700000000  0.5499830000000  0.5276000000000 1.0
C      1  0.4458460000000  0.5499830000000  0.4725900000000 1.0
C      1  0.5274630000000  0.4459410000000  0.4501650000000 1.0
C      1  0.4724530000000  0.5541650000000  0.4501650000000 1.0
C      1  0.5274630000000  0.5541650000000  0.5500250000000 1.0
C      1  0.5398620000000  0.5511540000000  0.4507660000000 1.0
C      1  0.4506290000000  0.5399570000000  0.5511960000000 1.0
C      1  0.5510590000000  0.4507240000000  0.5399990000000 1.0
C      1  0.4600540000000  0.5511540000000  0.5494240000000 1.0
C      1  0.5398620000000  0.4489520000000  0.5494240000000 1.0
C      1  0.4600540000000  0.4489520000000  0.4507660000000 1.0
C      1  0.5492870000000  0.5399570000000  0.4489940000000 1.0
C      1  0.4506290000000  0.4601490000000  0.4489940000000 1.0
C      1  0.5492870000000  0.4601490000000  0.5511960000000 1.0
C      1  0.4488570000000  0.4507240000000  0.4601910000000 1.0
C      1  0.5510590000000  0.5493820000000  0.4601910000000 1.0
C      1  0.4488570000000  0.5493820000000  0.5399990000000 1.0
C      1  0.5398620000000  0.4489520000000  0.4507660000000 1.0
C      1  0.4506290000000  0.4601490000000  0.5511960000000 1.0
C      1  0.5510590000000  0.5493820000000  0.5399990000000 1.0
C      1  0.4600540000000  0.4489520000000  0.5494240000000 1.0
C      1  0.5398620000000  0.5511540000000  0.5494240000000 1.0
C      1  0.4600540000000  0.5511540000000  0.4507660000000 1.0
C      1  0.5492870000000  0.4601490000000  0.4489940000000 1.0
C      1  0.4506290000000  0.5399570000000  0.4489940000000 1.0
C      1  0.5492870000000  0.5399570000000  0.5511960000000 1.0
C      1  0.4488570000000  0.5493820000000  0.4601910000000 1.0
C      1  0.5510590000000  0.4507240000000  0.4601910000000 1.0
C      1  0.4488570000000  0.4507240000000  0.5399990000000 1.0
C      1  0.4928920000000  0.4173720000000  0.4720110000000 1.0
C      1  0.4718740000000  0.4929870000000  0.4174140000000 1.0
C      1  0.4172770000000  0.4719690000000  0.4930290000000 1.0
C      1  0.5070240000000  0.4173720000000  0.5281780000000 1.0
C      1  0.4928920000000  0.5827340000000  0.5281780000000 1.0
C      1  0.5070240000000  0.5827340000000  0.4720110000000 1.0
C      1  0.5280420000000  0.4929870000000  0.5827760000000 1.0
C      1  0.4718740000000  0.5071180000000  0.5827760000000 1.0
C      1  0.5280420000000  0.5071180000000  0.4174140000000 1.0
C      1  0.5826390000000  0.4719690000000  0.5071600000000 1.0
C      1  0.4172770000000  0.5281370000000  0.5071600000000 1.0
C      1  0.5826390000000  0.5281370000000  0.4930290000000 1.0
C      1  0.4928920000000  0.5827340000000  0.4720110000000 1.0
C      1  0.4718740000000  0.5071180000000  0.4174140000000 1.0
C      1  0.4172770000000  0.5281370000000  0.4930290000000 1.0
C      1  0.5070240000000  0.5827340000000  0.5281780000000 1.0
C      1  0.4928920000000  0.4173720000000  0.5281780000000 1.0
C      1  0.5070240000000  0.4173720000000  0.4720110000000 1.0
C      1  0.5280420000000  0.5071180000000  0.5827760000000 1.0
C      1  0.4718740000000  0.4929870000000  0.5827760000000 1.0
C      1  0.5280420000000  0.4929870000000  0.4174140000000 1.0
C      1  0.5826390000000  0.5281370000000  0.5071600000000 1.0
C      1  0.4172770000000  0.4719690000000  0.5071600000000 1.0
C      1  0.5826390000000  0.4719690000000  0.4930290000000 1.0
C      1  0.5584730000000  0.4647650000000  0.5084310000000 1.0
C      1  0.5082940000000  0.5585680000000  0.4648070000000 1.0
C      1  0.4646700000000  0.5083890000000  0.5586100000000 1.0
C      1  0.4414430000000  0.4647650000000  0.4917590000000 1.0
C      1  0.5584730000000  0.5353410000000  0.4917590000000 1.0
C      1  0.4414430000000  0.5353410000000  0.5084310000000 1.0
C      1  0.4916220000000  0.5585680000000  0.5353830000000 1.0
C      1  0.5082940000000  0.4415380000000  0.5353830000000 1.0
C      1  0.4916220000000  0.4415380000000  0.4648070000000 1.0
C      1  0.5352460000000  0.5083890000000  0.4415800000000 1.0
C      1  0.4646700000000  0.4917170000000  0.4415800000000 1.0
C      1  0.5352460000000  0.4917170000000  0.5586100000000 1.0
C      1  0.5584730000000  0.5353410000000  0.5084310000000 1.0
C      1  0.5082940000000  0.4415380000000  0.4648070000000 1.0
C      1  0.4646700000000  0.4917170000000  0.5586100000000 1.0
C      1  0.4414430000000  0.5353410000000  0.4917590000000 1.0
C      1  0.5584730000000  0.4647650000000  0.4917590000000 1.0
C      1  0.4414430000000  0.4647650000000  0.5084310000000 1.0
C      1  0.4916220000000  0.4415380000000  0.5353830000000 1.0
C      1  0.5082940000000  0.5585680000000  0.5353830000000 1.0
C      1  0.4916220000000  0.5585680000000  0.4648070000000 1.0
C      1  0.5352460000000  0.4917170000000  0.4415800000000 1.0
C      1  0.4646700000000  0.5083890000000  0.4415800000000 1.0
C      1  0.5352460000000  0.5083890000000  0.5586100000000 1.0
C      1  0.4857290000000  0.4927660000000  0.5877820000000 1.0
C      1  0.5876450000000  0.4858240000000  0.4928080000000 1.0
C      1  0.4926710000000  0.5877400000000  0.4858660000000 1.0
C      1  0.5141870000000  0.4927660000000  0.4124080000000 1.0
C      1  0.4857290000000  0.5073400000000  0.4124080000000 1.0
C      1  0.5141870000000  0.5073400000000  0.5877820000000 1.0
C      1  0.4122710000000  0.4858240000000  0.5073820000000 1.0
C      1  0.5876450000000  0.5142820000000  0.5073820000000 1.0
C      1  0.4122710000000  0.5142820000000  0.4928080000000 1.0
C      1  0.5072450000000  0.5877400000000  0.5143240000000 1.0
C      1  0.4926710000000  0.4123660000000  0.5143240000000 1.0
C      1  0.5072450000000  0.4123660000000  0.4858660000000 1.0
C      1  0.4857290000000  0.5073400000000  0.5877820000000 1.0
C      1  0.5876450000000  0.5142820000000  0.4928080000000 1.0
C      1  0.4926710000000  0.4123660000000  0.4858660000000 1.0
C      1  0.5141870000000  0.5073400000000  0.4124080000000 1.0
C      1  0.4857290000000  0.4927660000000  0.4124080000000 1.0
C      1  0.5141870000000  0.4927660000000  0.5877820000000 1.0
C      1  0.4122710000000  0.5142820000000  0.5073820000000 1.0
C      1  0.5876450000000  0.4858240000000  0.5073820000000 1.0
C      1  0.4122710000000  0.4858240000000  0.4928080000000 1.0
C      1  0.5072450000000  0.4123660000000  0.5143240000000 1.0
C      1  0.4926710000000  0.5877400000000  0.5143240000000 1.0
C      1  0.5072450000000  0.5877400000000  0.4858660000000 1.0
C      1  0.5437230000000  0.4431720000000  0.5073060000000 1.0
C      1  0.5071700000000  0.5438180000000  0.4432140000000 1.0
C      1  0.4430780000000  0.5072640000000  0.5438600000000 1.0
C      1  0.4561930000000  0.4431720000000  0.4928830000000 1.0
C      1  0.5437230000000  0.5569330000000  0.4928830000000 1.0
C      1  0.4561930000000  0.5569330000000  0.5073060000000 1.0
C      1  0.4927470000000  0.5438180000000  0.5569750000000 1.0
C      1  0.5071700000000  0.4562880000000  0.5569750000000 1.0
C      1  0.4927470000000  0.4562880000000  0.4432140000000 1.0
C      1  0.5568380000000  0.5072640000000  0.4563300000000 1.0
C      1  0.4430780000000  0.4928410000000  0.4563300000000 1.0
C      1  0.5568390000000  0.4928410000000  0.5438600000000 1.0
C      1  0.5437230000000  0.5569330000000  0.5073060000000 1.0
C      1  0.5071700000000  0.4562880000000  0.4432140000000 1.0
C      1  0.4430780000000  0.4928410000000  0.5438600000000 1.0
C      1  0.4561930000000  0.5569330000000  0.4928830000000 1.0
C      1  0.5437230000000  0.4431720000000  0.4928830000000 1.0
C      1  0.4561930000000  0.4431720000000  0.5073060000000 1.0
C      1  0.4927470000000  0.4562880000000  0.5569750000000 1.0
C      1  0.5071700000000  0.5438180000000  0.5569750000000 1.0
C      1  0.4927470000000  0.5438180000000  0.4432140000000 1.0
C      1  0.5568390000000  0.4928410000000  0.4563300000000 1.0
C      1  0.4430780000000  0.5072640000000  0.4563300000000 1.0
C      1  0.5568390000000  0.5072640000000  0.5438600000000 1.0
C      1  0.4745820000000  0.5122310000000  0.5477230000000 1.0
C      1  0.5475860000000  0.4746770000000  0.5122730000000 1.0
C      1  0.5121360000000  0.5476810000000  0.4747190000000 1.0
C      1  0.5253340000000  0.5122310000000  0.4524670000000 1.0
C      1  0.4745820000000  0.4878750000000  0.4524670000000 1.0
C      1  0.5253340000000  0.4878750000000  0.5477230000000 1.0
C      1  0.4523300000000  0.4746770000000  0.4879170000000 1.0
C      1  0.5475860000000  0.5254290000000  0.4879170000000 1.0
C      1  0.4523300000000  0.5254290000000  0.5122730000000 1.0
C      1  0.4877800000000  0.5476810000000  0.5254710000000 1.0
C      1  0.5121360000000  0.4524250000000  0.5254710000000 1.0
C      1  0.4877800000000  0.4524250000000  0.4747190000000 1.0
C      1  0.4745820000000  0.4878750000000  0.5477230000000 1.0
C      1  0.5475860000000  0.5254290000000  0.5122730000000 1.0
C      1  0.5121360000000  0.4524250000000  0.4747190000000 1.0
C      1  0.5253340000000  0.4878750000000  0.4524670000000 1.0
C      1  0.4745820000000  0.5122310000000  0.4524670000000 1.0
C      1  0.5253340000000  0.5122310000000  0.5477230000000 1.0
C      1  0.4523300000000  0.5254290000000  0.4879170000000 1.0
C      1  0.5475860000000  0.4746770000000  0.4879170000000 1.0
C      1  0.4523300000000  0.4746770000000  0.5122730000000 1.0
C      1  0.4877800000000  0.4524250000000  0.5254710000000 1.0
C      1  0.5121360000000  0.5476810000000  0.5254710000000 1.0
C      1  0.4877800000000  0.5476810000000  0.4747190000000 1.0
C      1  0.4749770000000  0.4750720000000  0.5250760000000 1.0
C      1  0.5249390000000  0.4750720000000  0.4751140000000 1.0
C      1  0.4749770000000  0.5250340000000  0.4751140000000 1.0
C      1  0.5249390000000  0.5250340000000  0.5250760000000 1.0
C      1  0.4749770000000  0.5250340000000  0.5250760000000 1.0
C      1  0.5249390000000  0.5250340000000  0.4751140000000 1.0
C      1  0.4749770000000  0.4750720000000  0.4751140000000 1.0
C      1  0.5249390000000  0.4750720000000  0.5250760000000 1.0
END
