TITL C-1379266-1300-278 2.00097150812129e-06 1000000 -3860.35203184499 0 0 540 (C1) n - 1
REM
REM in /nfs/bkarasulu/CARBON/AIRSS/Generating-Clusters/GAP-ML-2020/Higher-Symm/Selected-Sizes/TryA-Only_Ih-Symm/Larger-Clusters/Try2-MINAMP_6A
REM
REM
REM
REM
REM
REM ./C.cell (31579ac4e95a012ec27f3239692ae8a5)
REM
REM compiler GCC version 9.2.1 20190827 (Red Hat 9.2.1-1)
REM options -cpp -mtune=generic -march=x86-64 -g -O0 -fpre-include=/usr/include/finclude/math-vector-fortran.h
REM seed 618787908 40734819 993981490 -109691820 1963107479 -186318090 -1078828079 614198606 1864556098 -1764478457 -1725221321 -663065663 39513577 292427740 104901243 649510612 -1156043607 355100770 554826980 263560406 1002503060 -664073563 220392208 -361885770 1819265796 521091831 -1903760067 -1309940454 -51028700 136810336 -560937871 644940387 1723012505
REM
CELL 1.54180  100.00000  100.00000  100.00000   90.00000   90.00000   90.00000
LATT -1
SFAC C  
C      1  0.4829830000000  0.4457310000000  0.5673680000000 1.0
C      1  0.4453550000000  0.5658150000000  0.4826330000000 1.0
C      1  0.5656520000000  0.4829060000000  0.4430880000000 1.0
C      1  0.5172190000000  0.5541090000000  0.5676540000000 1.0
C      1  0.4827060000000  0.5544320000000  0.4321930000000 1.0
C      1  0.5173070000000  0.4429030000000  0.4345470000000 1.0
C      1  0.5569820000000  0.4345080000000  0.4829690000000 1.0
C      1  0.4454460000000  0.4327730000000  0.5173600000000 1.0
C      1  0.5539890000000  0.5674520000000  0.5170430000000 1.0
C      1  0.4330960000000  0.5169740000000  0.4435650000000 1.0
C      1  0.5676240000000  0.5175970000000  0.5543280000000 1.0
C      1  0.4324220000000  0.4826580000000  0.5544940000000 1.0
C      1  0.4425690000000  0.4826890000000  0.5654270000000 1.0
C      1  0.5672650000000  0.4453320000000  0.4828000000000 1.0
C      1  0.4824760000000  0.5650940000000  0.4426090000000 1.0
C      1  0.5575100000000  0.5173820000000  0.5652900000000 1.0
C      1  0.5548370000000  0.4826980000000  0.4328000000000 1.0
C      1  0.4433210000000  0.5167240000000  0.4329960000000 1.0
C      1  0.4344020000000  0.5553200000000  0.4827820000000 1.0
C      1  0.4345600000000  0.4429720000000  0.5172350000000 1.0
C      1  0.5649680000000  0.5573400000000  0.5168650000000 1.0
C      1  0.5173610000000  0.4327070000000  0.4454250000000 1.0
C      1  0.5170060000000  0.5650590000000  0.5575160000000 1.0
C      1  0.4830740000000  0.4348410000000  0.5571760000000 1.0
C      1  0.5495780000000  0.5009440000000  0.4607280000000 1.0
C      1  0.5009860000000  0.4613840000000  0.5500340000000 1.0
C      1  0.4613370000000  0.5495900000000  0.5007550000000 1.0
C      1  0.4501250000000  0.4988970000000  0.4607670000000 1.0
C      1  0.5502830000000  0.4993430000000  0.5387440000000 1.0
C      1  0.4498080000000  0.5008010000000  0.5388820000000 1.0
C      1  0.4991440000000  0.5384430000000  0.5502890000000 1.0
C      1  0.5007580000000  0.5387570000000  0.4495970000000 1.0
C      1  0.4991710000000  0.4607130000000  0.4503990000000 1.0
C      1  0.5392600000000  0.4505070000000  0.5009490000000 1.0
C      1  0.4610930000000  0.4500560000000  0.4992160000000 1.0
C      1  0.5384460000000  0.5500220000000  0.4990450000000 1.0
C      1  0.5007010000000  0.5494050000000  0.4603380000000 1.0
C      1  0.4604250000000  0.5007550000000  0.5496640000000 1.0
C      1  0.5500480000000  0.4611120000000  0.5008200000000 1.0
C      1  0.4991950000000  0.4500000000000  0.4610820000000 1.0
C      1  0.4990470000000  0.5492570000000  0.5397150000000 1.0
C      1  0.5010140000000  0.4506680000000  0.5393630000000 1.0
C      1  0.5396700000000  0.4992190000000  0.5495210000000 1.0
C      1  0.5389870000000  0.5007930000000  0.4499280000000 1.0
C      1  0.4607180000000  0.4987930000000  0.4500450000000 1.0
C      1  0.4504200000000  0.5390520000000  0.5007370000000 1.0
C      1  0.4504310000000  0.4607900000000  0.4991420000000 1.0
C      1  0.5492310000000  0.5394180000000  0.4989480000000 1.0
C      1  0.5576400000000  0.4623020000000  0.4515620000000 1.0
C      1  0.4620480000000  0.4530610000000  0.5584770000000 1.0
C      1  0.4528130000000  0.5571530000000  0.4619890000000 1.0
C      1  0.4418520000000  0.5378400000000  0.4517080000000 1.0
C      1  0.5584130000000  0.5382220000000  0.5468270000000 1.0
C      1  0.4415740000000  0.4619830000000  0.5470390000000 1.0
C      1  0.5380120000000  0.5469450000000  0.5584320000000 1.0
C      1  0.4620800000000  0.5467910000000  0.4408600000000 1.0
C      1  0.5378410000000  0.4514680000000  0.4425440000000 1.0
C      1  0.5485640000000  0.4425070000000  0.4623880000000 1.0
C      1  0.4530840000000  0.4416530000000  0.5380900000000 1.0
C      1  0.5467270000000  0.5584900000000  0.5379530000000 1.0
C      1  0.4620460000000  0.5567810000000  0.4512750000000 1.0
C      1  0.4514180000000  0.4622690000000  0.5575740000000 1.0
C      1  0.5584540000000  0.4529840000000  0.4620760000000 1.0
C      1  0.5380760000000  0.4416210000000  0.4530580000000 1.0
C      1  0.5375460000000  0.5574830000000  0.5486060000000 1.0
C      1  0.4624040000000  0.4425760000000  0.5486140000000 1.0
C      1  0.5486470000000  0.5377930000000  0.5574210000000 1.0
C      1  0.5471730000000  0.4619750000000  0.4416740000000 1.0
C      1  0.4516040000000  0.5375660000000  0.4412850000000 1.0
C      1  0.4422030000000  0.5471840000000  0.4622370000000 1.0
C      1  0.4425500000000  0.4514790000000  0.5377530000000 1.0
C      1  0.5573150000000  0.5487360000000  0.5375310000000 1.0
C      1  0.4878900000000  0.5369100000000  0.5020910000000 1.0
C      1  0.5369180000000  0.5017870000000  0.4876730000000 1.0
C      1  0.5020290000000  0.4878980000000  0.5372590000000 1.0
C      1  0.5122860000000  0.4631550000000  0.5018030000000 1.0
C      1  0.4876590000000  0.4628970000000  0.4980920000000 1.0
C      1  0.5120400000000  0.5370370000000  0.4979490000000 1.0
C      1  0.4630020000000  0.4982680000000  0.4876890000000 1.0
C      1  0.5372600000000  0.4982060000000  0.5122680000000 1.0
C      1  0.4627720000000  0.5018450000000  0.5123670000000 1.0
C      1  0.4980620000000  0.5120010000000  0.5373450000000 1.0
C      1  0.5018040000000  0.5122600000000  0.4625280000000 1.0
C      1  0.4982430000000  0.4877660000000  0.4629020000000 1.0
C      1  0.5372400000000  0.4877120000000  0.5018580000000 1.0
C      1  0.5016160000000  0.5369050000000  0.4874610000000 1.0
C      1  0.4875480000000  0.5015640000000  0.5372300000000 1.0
C      1  0.4628710000000  0.5123280000000  0.5019690000000 1.0
C      1  0.4630340000000  0.4877890000000  0.4982240000000 1.0
C      1  0.5368680000000  0.5123170000000  0.4981370000000 1.0
C      1  0.4981100000000  0.4628840000000  0.4876490000000 1.0
C      1  0.4982750000000  0.5368650000000  0.5126040000000 1.0
C      1  0.5018200000000  0.4631930000000  0.5123220000000 1.0
C      1  0.5125110000000  0.4983700000000  0.5371660000000 1.0
C      1  0.5123080000000  0.5018250000000  0.4626190000000 1.0
C      1  0.4876880000000  0.4982720000000  0.4628040000000 1.0
C      1  0.4075760000000  0.5113650000000  0.5008540000000 1.0
C      1  0.5114420000000  0.5006670000000  0.4073300000000 1.0
C      1  0.4988960000000  0.4087300000000  0.5093260000000 1.0
C      1  0.5925450000000  0.4890110000000  0.5007910000000 1.0
C      1  0.4085710000000  0.4909270000000  0.5011390000000 1.0
C      1  0.5913630000000  0.5094590000000  0.5009430000000 1.0
C      1  0.4909800000000  0.5007470000000  0.4083380000000 1.0
C      1  0.5104630000000  0.5006030000000  0.5918600000000 1.0
C      1  0.4898040000000  0.4990930000000  0.5919080000000 1.0
C      1  0.5003940000000  0.5915660000000  0.5102440000000 1.0
C      1  0.4989110000000  0.5915410000000  0.4895660000000 1.0
C      1  0.4990380000000  0.4075870000000  0.4888800000000 1.0
C      1  0.5092250000000  0.4087040000000  0.4989930000000 1.0
C      1  0.5011530000000  0.5108820000000  0.4072230000000 1.0
C      1  0.4075040000000  0.5011750000000  0.5111880000000 1.0
C      1  0.4895600000000  0.5917390000000  0.5004740000000 1.0
C      1  0.4887790000000  0.4076020000000  0.4991400000000 1.0
C      1  0.5097480000000  0.5918800000000  0.4993450000000 1.0
C      1  0.5013480000000  0.4904530000000  0.4084470000000 1.0
C      1  0.4995410000000  0.5099450000000  0.5921830000000 1.0
C      1  0.5007290000000  0.4897500000000  0.5921050000000 1.0
C      1  0.5925540000000  0.4992740000000  0.5110520000000 1.0
C      1  0.5913740000000  0.4991200000000  0.4906140000000 1.0
C      1  0.4086060000000  0.5012040000000  0.4907190000000 1.0
C      1  0.4675200000000  0.5200720000000  0.4366480000000 1.0
C      1  0.5209350000000  0.4344240000000  0.4715090000000 1.0
C      1  0.4372980000000  0.4674030000000  0.5203130000000 1.0
C      1  0.5287230000000  0.4789930000000  0.4343720000000 1.0
C      1  0.4671590000000  0.4797270000000  0.5628080000000 1.0
C      1  0.5329660000000  0.5202250000000  0.5627340000000 1.0
C      1  0.4794740000000  0.5622810000000  0.4671060000000 1.0
C      1  0.5199950000000  0.5625970000000  0.5329250000000 1.0
C      1  0.4798250000000  0.4374580000000  0.5327200000000 1.0
C      1  0.5625440000000  0.5328790000000  0.5200730000000 1.0
C      1  0.4346840000000  0.5288690000000  0.4793970000000 1.0
C      1  0.5656370000000  0.4714770000000  0.4791160000000 1.0
C      1  0.5204330000000  0.4673390000000  0.4372960000000 1.0
C      1  0.4370680000000  0.5204720000000  0.4677250000000 1.0
C      1  0.4715420000000  0.4344870000000  0.5210450000000 1.0
C      1  0.4792200000000  0.5283440000000  0.4338940000000 1.0
C      1  0.4789550000000  0.4716370000000  0.5657340000000 1.0
C      1  0.5211710000000  0.5282330000000  0.5657630000000 1.0
C      1  0.5627590000000  0.4797500000000  0.4674560000000 1.0
C      1  0.5656590000000  0.5212160000000  0.5283020000000 1.0
C      1  0.4342760000000  0.4790800000000  0.5285150000000 1.0
C      1  0.5280530000000  0.5656040000000  0.5211120000000 1.0
C      1  0.5325900000000  0.4373550000000  0.4797810000000 1.0
C      1  0.4714320000000  0.5650660000000  0.4789180000000 1.0
C      1  0.4517950000000  0.5127880000000  0.5302470000000 1.0
C      1  0.5127400000000  0.5301360000000  0.4515930000000 1.0
C      1  0.5302690000000  0.4521070000000  0.5127200000000 1.0
C      1  0.5482900000000  0.4873530000000  0.5301420000000 1.0
C      1  0.4519190000000  0.4872390000000  0.4697680000000 1.0
C      1  0.5479320000000  0.5127280000000  0.4697050000000 1.0
C      1  0.4873900000000  0.4696920000000  0.4519620000000 1.0
C      1  0.5129730000000  0.4700550000000  0.5481880000000 1.0
C      1  0.4871530000000  0.5297990000000  0.5483890000000 1.0
C      1  0.4699920000000  0.5478960000000  0.5128540000000 1.0
C      1  0.5298100000000  0.5481300000000  0.4870540000000 1.0
C      1  0.4697310000000  0.4519510000000  0.4872370000000 1.0
C      1  0.5127520000000  0.4522000000000  0.5303530000000 1.0
C      1  0.5303080000000  0.5127240000000  0.4517690000000 1.0
C      1  0.4520530000000  0.5303860000000  0.5127540000000 1.0
C      1  0.4873150000000  0.5477250000000  0.5307190000000 1.0
C      1  0.4872250000000  0.4519290000000  0.4697280000000 1.0
C      1  0.5124550000000  0.5478480000000  0.4693240000000 1.0
C      1  0.4697600000000  0.4871510000000  0.4518040000000 1.0
C      1  0.4694140000000  0.5124810000000  0.5481080000000 1.0
C      1  0.5306800000000  0.4874560000000  0.5479650000000 1.0
C      1  0.5481900000000  0.4697750000000  0.5127500000000 1.0
C      1  0.5477790000000  0.5303990000000  0.4872010000000 1.0
C      1  0.4520060000000  0.4697620000000  0.4873620000000 1.0
C      1  0.5082070000000  0.5578140000000  0.4805120000000 1.0
C      1  0.5582120000000  0.4808310000000  0.5088680000000 1.0
C      1  0.4805850000000  0.5082560000000  0.5581220000000 1.0
C      1  0.4910510000000  0.4419190000000  0.4807950000000 1.0
C      1  0.5085280000000  0.4423090000000  0.5189590000000 1.0
C      1  0.4914660000000  0.5577260000000  0.5195010000000 1.0
C      1  0.4419480000000  0.5193890000000  0.5088960000000 1.0
C      1  0.5577240000000  0.5190500000000  0.4913980000000 1.0
C      1  0.4421260000000  0.4811280000000  0.4915910000000 1.0
C      1  0.5195450000000  0.4916080000000  0.5580140000000 1.0
C      1  0.4811790000000  0.4913250000000  0.4419450000000 1.0
C      1  0.5193090000000  0.5088570000000  0.4416860000000 1.0
C      1  0.5577870000000  0.5086010000000  0.4810900000000 1.0
C      1  0.4811970000000  0.5577860000000  0.5090920000000 1.0
C      1  0.5092160000000  0.4812640000000  0.5580990000000 1.0
C      1  0.4421100000000  0.4914810000000  0.4812030000000 1.0
C      1  0.4418250000000  0.5090690000000  0.5191530000000 1.0
C      1  0.5582570000000  0.4911830000000  0.5190750000000 1.0
C      1  0.5188710000000  0.4422630000000  0.5085470000000 1.0
C      1  0.5185250000000  0.5579470000000  0.4908550000000 1.0
C      1  0.4807780000000  0.4419320000000  0.4910900000000 1.0
C      1  0.4909330000000  0.5185650000000  0.5582420000000 1.0
C      1  0.4916170000000  0.4810090000000  0.4420320000000 1.0
C      1  0.5089680000000  0.5190810000000  0.4415790000000 1.0
C      1  0.5234190000000  0.5122430000000  0.4654300000000 1.0
C      1  0.5123030000000  0.4658660000000  0.5234890000000 1.0
C      1  0.4656760000000  0.5234100000000  0.5123980000000 1.0
C      1  0.4765450000000  0.4877630000000  0.4655360000000 1.0
C      1  0.5236930000000  0.4879530000000  0.5343590000000 1.0
C      1  0.4763840000000  0.5120090000000  0.5344910000000 1.0
C      1  0.4878200000000  0.5341010000000  0.5237540000000 1.0
C      1  0.5120130000000  0.5342290000000  0.4762540000000 1.0
C      1  0.4877150000000  0.4656400000000  0.4765030000000 1.0
C      1  0.5344970000000  0.4766130000000  0.5122930000000 1.0
C      1  0.4656760000000  0.4766000000000  0.4877660000000 1.0
C      1  0.5341410000000  0.5234600000000  0.4876380000000 1.0
C      1  0.5122040000000  0.5233810000000  0.4653200000000 1.0
C      1  0.4655320000000  0.5122170000000  0.5235460000000 1.0
C      1  0.5234880000000  0.4658020000000  0.5122570000000 1.0
C      1  0.4878050000000  0.4765760000000  0.4656080000000 1.0
C      1  0.4876360000000  0.5231450000000  0.5346310000000 1.0
C      1  0.5124690000000  0.4767850000000  0.5344530000000 1.0
C      1  0.5345570000000  0.4878340000000  0.5234340000000 1.0
C      1  0.5342270000000  0.5122210000000  0.4764640000000 1.0
C      1  0.4656440000000  0.4877960000000  0.4765110000000 1.0
C      1  0.4767130000000  0.5341940000000  0.5124850000000 1.0
C      1  0.4765360000000  0.4656470000000  0.4876860000000 1.0
C      1  0.5231710000000  0.5343580000000  0.4875040000000 1.0
C      1  0.4640380000000  0.5135960000000  0.5774310000000 1.0
C      1  0.5134690000000  0.5772080000000  0.4640120000000 1.0
C      1  0.5773080000000  0.4639760000000  0.5156080000000 1.0
C      1  0.5361930000000  0.4862590000000  0.5772400000000 1.0
C      1  0.4655040000000  0.4858570000000  0.4225210000000 1.0
C      1  0.5362770000000  0.5155730000000  0.4226300000000 1.0
C      1  0.4843360000000  0.4227770000000  0.4639090000000 1.0
C      1  0.5136180000000  0.4229100000000  0.5348760000000 1.0
C      1  0.4860230000000  0.5769360000000  0.5360670000000 1.0
C      1  0.4229870000000  0.5365490000000  0.5153420000000 1.0
C      1  0.5770060000000  0.5350640000000  0.4863160000000 1.0
C      1  0.4226600000000  0.4652200000000  0.4866200000000 1.0
C      1  0.5157430000000  0.4650600000000  0.5772960000000 1.0
C      1  0.5772560000000  0.5138150000000  0.4652030000000 1.0
C      1  0.4648880000000  0.5771170000000  0.5152610000000 1.0
C      1  0.4844680000000  0.5346570000000  0.5775970000000 1.0
C      1  0.4866200000000  0.4650050000000  0.4226000000000 1.0
C      1  0.5157790000000  0.5359670000000  0.4224570000000 1.0
C      1  0.4225190000000  0.4860650000000  0.4656290000000 1.0
C      1  0.4226510000000  0.5158730000000  0.5359660000000 1.0
C      1  0.5775600000000  0.4844950000000  0.5358860000000 1.0
C      1  0.5347370000000  0.4228000000000  0.5137130000000 1.0
C      1  0.5345690000000  0.5772880000000  0.4843630000000 1.0
C      1  0.4638740000000  0.4228120000000  0.4843670000000 1.0
C      1  0.4952580000000  0.4287360000000  0.5537140000000 1.0
C      1  0.4284970000000  0.5529870000000  0.4952230000000 1.0
C      1  0.5522620000000  0.4952540000000  0.4275440000000 1.0
C      1  0.5048040000000  0.5711470000000  0.5543210000000 1.0
C      1  0.4945210000000  0.5713730000000  0.4459790000000 1.0
C      1  0.5047660000000  0.4275280000000  0.4480190000000 1.0
C      1  0.5724940000000  0.4478600000000  0.4953750000000 1.0
C      1  0.4284190000000  0.4464450000000  0.5050740000000 1.0
C      1  0.5710940000000  0.5539150000000  0.5046650000000 1.0
C      1  0.4467970000000  0.5042360000000  0.4277760000000 1.0
C      1  0.5543040000000  0.5052010000000  0.5714270000000 1.0
C      1  0.4458170000000  0.4948150000000  0.5715960000000 1.0
C      1  0.4272450000000  0.4952450000000  0.5517050000000 1.0
C      1  0.5534700000000  0.4284040000000  0.4951540000000 1.0
C      1  0.4953540000000  0.5519320000000  0.4270580000000 1.0
C      1  0.5728690000000  0.5050690000000  0.5515900000000 1.0
C      1  0.5717000000000  0.4951300000000  0.4465780000000 1.0
C      1  0.4278150000000  0.5045820000000  0.4471660000000 1.0
C      1  0.4483890000000  0.5717680000000  0.4949720000000 1.0
C      1  0.4479850000000  0.4275820000000  0.5047700000000 1.0
C      1  0.5511500000000  0.5725870000000  0.5044290000000 1.0
C      1  0.5051430000000  0.4463560000000  0.4284310000000 1.0
C      1  0.5046650000000  0.5511020000000  0.5728650000000 1.0
C      1  0.4956190000000  0.4485520000000  0.5724990000000 1.0
C      1  0.5370520000000  0.4257750000000  0.5271070000000 1.0
C      1  0.4257940000000  0.5290150000000  0.5385600000000 1.0
C      1  0.5288820000000  0.5386600000000  0.4256790000000 1.0
C      1  0.4624190000000  0.5742190000000  0.5285270000000 1.0
C      1  0.5371440000000  0.5743430000000  0.4711350000000 1.0
C      1  0.4611800000000  0.4259020000000  0.4712270000000 1.0
C      1  0.5743500000000  0.4714010000000  0.5386730000000 1.0
C      1  0.4256240000000  0.4727160000000  0.4631700000000 1.0
C      1  0.5742520000000  0.5271980000000  0.4628980000000 1.0
C      1  0.4732660000000  0.4625270000000  0.4256210000000 1.0
C      1  0.5289800000000  0.4625790000000  0.5743260000000 1.0
C      1  0.4712620000000  0.5372420000000  0.5745620000000 1.0
C      1  0.4259550000000  0.5390570000000  0.5285590000000 1.0
C      1  0.5270420000000  0.4258450000000  0.5371830000000 1.0
C      1  0.5389500000000  0.5287110000000  0.4257720000000 1.0
C      1  0.5742090000000  0.4613020000000  0.5287570000000 1.0
C      1  0.5741060000000  0.5373040000000  0.4728760000000 1.0
C      1  0.4256480000000  0.4627200000000  0.4732590000000 1.0
C      1  0.4726370000000  0.5740030000000  0.5383870000000 1.0
C      1  0.4712010000000  0.4258800000000  0.4612050000000 1.0
C      1  0.5267840000000  0.5741760000000  0.4614400000000 1.0
C      1  0.4631460000000  0.4724900000000  0.4256200000000 1.0
C      1  0.4615370000000  0.5269200000000  0.5743690000000 1.0
C      1  0.5386730000000  0.4729440000000  0.5741790000000 1.0
C      1  0.5200090000000  0.4986130000000  0.4182950000000 1.0
C      1  0.4959030000000  0.4198840000000  0.5175080000000 1.0
C      1  0.4185320000000  0.5199240000000  0.4986880000000 1.0
C      1  0.4827000000000  0.5037900000000  0.4194050000000 1.0
C      1  0.5185810000000  0.5037700000000  0.5806470000000 1.0
C      1  0.4816270000000  0.4959970000000  0.5807140000000 1.0
C      1  0.5035690000000  0.5804030000000  0.5184420000000 1.0
C      1  0.4958350000000  0.5803020000000  0.4814470000000 1.0
C      1  0.5012000000000  0.4184900000000  0.4802560000000 1.0
C      1  0.5816580000000  0.4803390000000  0.4986760000000 1.0
C      1  0.4196650000000  0.4826750000000  0.5042220000000 1.0
C      1  0.5802150000000  0.5176510000000  0.5039660000000 1.0
C      1  0.4989390000000  0.5195380000000  0.4180860000000 1.0
C      1  0.4184130000000  0.4990170000000  0.5197870000000 1.0
C      1  0.5174150000000  0.4198390000000  0.4959740000000 1.0
C      1  0.5043360000000  0.4823500000000  0.4196530000000 1.0
C      1  0.5015440000000  0.5186080000000  0.5813460000000 1.0
C      1  0.4986710000000  0.4811360000000  0.5812380000000 1.0
C      1  0.5816310000000  0.5014110000000  0.5196480000000 1.0
C      1  0.5802030000000  0.4960670000000  0.4824930000000 1.0
C      1  0.4197690000000  0.5041620000000  0.4825490000000 1.0
C      1  0.4810380000000  0.5808060000000  0.4984550000000 1.0
C      1  0.4801750000000  0.4185230000000  0.5012840000000 1.0
C      1  0.5184590000000  0.5810860000000  0.5014380000000 1.0
C      1  0.5402770000000  0.5208350000000  0.5302010000000 1.0
C      1  0.5207350000000  0.5301050000000  0.5403430000000 1.0
C      1  0.5300370000000  0.5402210000000  0.5207550000000 1.0
C      1  0.4596870000000  0.4792790000000  0.5303170000000 1.0
C      1  0.5398290000000  0.4794460000000  0.4694370000000 1.0
C      1  0.4600380000000  0.5206170000000  0.4694080000000 1.0
C      1  0.4792770000000  0.4698640000000  0.5403160000000 1.0
C      1  0.5206200000000  0.4694620000000  0.4602160000000 1.0
C      1  0.4791180000000  0.5302390000000  0.4592280000000 1.0
C      1  0.4697640000000  0.4598460000000  0.5208240000000 1.0
C      1  0.5305660000000  0.4602670000000  0.4794520000000 1.0
C      1  0.4698940000000  0.5396560000000  0.4793350000000 1.0
C      1  0.5205010000000  0.5396920000000  0.5307210000000 1.0
C      1  0.5306850000000  0.5205750000000  0.5398110000000 1.0
C      1  0.5396430000000  0.5306190000000  0.5204980000000 1.0
C      1  0.4794730000000  0.4603540000000  0.5306190000000 1.0
C      1  0.4794940000000  0.5393210000000  0.4693500000000 1.0
C      1  0.5207880000000  0.4597820000000  0.4697380000000 1.0
C      1  0.4693270000000  0.4794120000000  0.5398860000000 1.0
C      1  0.4692920000000  0.5206590000000  0.4595720000000 1.0
C      1  0.5303380000000  0.4792370000000  0.4597300000000 1.0
C      1  0.4602190000000  0.4695050000000  0.5206110000000 1.0
C      1  0.4599640000000  0.5302570000000  0.4792830000000 1.0
C      1  0.5402940000000  0.4697390000000  0.4792230000000 1.0
C      1  0.4563920000000  0.4341810000000  0.5263830000000 1.0
C      1  0.4353320000000  0.5257460000000  0.4544170000000 1.0
C      1  0.5257380000000  0.4539510000000  0.4361740000000 1.0
C      1  0.5432290000000  0.5659390000000  0.5262560000000 1.0
C      1  0.4561500000000  0.5646900000000  0.4735910000000 1.0
C      1  0.5459890000000  0.4361810000000  0.4745050000000 1.0
C      1  0.5639760000000  0.4744340000000  0.4540860000000 1.0
C      1  0.4339790000000  0.4736330000000  0.5436410000000 1.0
C      1  0.5660170000000  0.5266070000000  0.5434340000000 1.0
C      1  0.4738070000000  0.5434740000000  0.4334240000000 1.0
C      1  0.5264050000000  0.5433990000000  0.5660350000000 1.0
C      1  0.4737660000000  0.4564880000000  0.5659520000000 1.0
C      1  0.4362030000000  0.4540110000000  0.5256410000000 1.0
C      1  0.5263610000000  0.4341310000000  0.4563660000000 1.0
C      1  0.4542230000000  0.5253800000000  0.4348920000000 1.0
C      1  0.5635440000000  0.5463000000000  0.5253390000000 1.0
C      1  0.5659170000000  0.4562850000000  0.4737850000000 1.0
C      1  0.4349580000000  0.5442050000000  0.4740340000000 1.0
C      1  0.4740690000000  0.5633160000000  0.4537200000000 1.0
C      1  0.4745850000000  0.4363500000000  0.5461420000000 1.0
C      1  0.5253370000000  0.5636940000000  0.5463300000000 1.0
C      1  0.5438980000000  0.4736640000000  0.4341590000000 1.0
C      1  0.5463320000000  0.5256600000000  0.5637910000000 1.0
C      1  0.4537520000000  0.4743860000000  0.5639250000000 1.0
C      1  0.4527840000000  0.4253670000000  0.4923320000000 1.0
C      1  0.4246490000000  0.4935160000000  0.4540530000000 1.0
C      1  0.4942370000000  0.4535040000000  0.4250090000000 1.0
C      1  0.5458590000000  0.5748220000000  0.4921490000000 1.0
C      1  0.4537510000000  0.5746170000000  0.5071880000000 1.0
C      1  0.5463120000000  0.4252220000000  0.5061620000000 1.0
C      1  0.5748590000000  0.5062140000000  0.4536490000000 1.0
C      1  0.4250660000000  0.5077660000000  0.5470060000000 1.0
C      1  0.5751620000000  0.4925960000000  0.5469110000000 1.0
C      1  0.5077890000000  0.5470690000000  0.4249140000000 1.0
C      1  0.4923600000000  0.5458900000000  0.5751830000000 1.0
C      1  0.5079290000000  0.4537940000000  0.5747500000000 1.0
C      1  0.4250600000000  0.4537050000000  0.4942240000000 1.0
C      1  0.4923280000000  0.4252930000000  0.4528210000000 1.0
C      1  0.4538580000000  0.4932100000000  0.4248330000000 1.0
C      1  0.5744120000000  0.5466510000000  0.4937900000000 1.0
C      1  0.5747440000000  0.4528230000000  0.5077380000000 1.0
C      1  0.4256830000000  0.5476750000000  0.5074040000000 1.0
C      1  0.5056850000000  0.5748360000000  0.4526750000000 1.0
C      1  0.5061010000000  0.4253610000000  0.5464480000000 1.0
C      1  0.4935930000000  0.5743400000000  0.5475400000000 1.0
C      1  0.5473750000000  0.5076340000000  0.4252190000000 1.0
C      1  0.5475670000000  0.4939880000000  0.5747100000000 1.0
C      1  0.4526420000000  0.5059210000000  0.5749640000000 1.0
C      1  0.5262810000000  0.4521120000000  0.5375310000000 1.0
C      1  0.4521900000000  0.5375840000000  0.5263280000000 1.0
C      1  0.5375980000000  0.5262490000000  0.4519880000000 1.0
C      1  0.4738310000000  0.5477150000000  0.5377980000000 1.0
C      1  0.5259950000000  0.5478720000000  0.4623120000000 1.0
C      1  0.4737030000000  0.4521090000000  0.4624360000000 1.0
C      1  0.5480040000000  0.4624620000000  0.5262660000000 1.0
C      1  0.4519340000000  0.4626040000000  0.4738100000000 1.0
C      1  0.5478440000000  0.5375800000000  0.4736920000000 1.0
C      1  0.4625140000000  0.4736670000000  0.4518570000000 1.0
C      1  0.5376950000000  0.4739340000000  0.5478940000000 1.0
C      1  0.4623880000000  0.5260130000000  0.5480710000000 1.0
C      1  0.4520120000000  0.5262830000000  0.5375440000000 1.0
C      1  0.5374340000000  0.4520310000000  0.5262490000000 1.0
C      1  0.5262630000000  0.5374330000000  0.4518700000000 1.0
C      1  0.5481040000000  0.4738150000000  0.5374400000000 1.0
C      1  0.5479880000000  0.5262650000000  0.4625600000000 1.0
C      1  0.4518950000000  0.4737450000000  0.4624950000000 1.0
C      1  0.4627080000000  0.5479300000000  0.5264360000000 1.0
C      1  0.4624250000000  0.4521290000000  0.4737120000000 1.0
C      1  0.5372510000000  0.5481010000000  0.4735340000000 1.0
C      1  0.4738320000000  0.4625420000000  0.4519200000000 1.0
C      1  0.4736320000000  0.5372110000000  0.5483140000000 1.0
C      1  0.5264930000000  0.4626540000000  0.5480870000000 1.0
C      1  0.5603210000000  0.5042680000000  0.4499320000000 1.0
C      1  0.5047920000000  0.4506400000000  0.5606710000000 1.0
C      1  0.4506760000000  0.5603740000000  0.5044570000000 1.0
C      1  0.4393520000000  0.4955420000000  0.4500480000000 1.0
C      1  0.5609930000000  0.4957440000000  0.5494570000000 1.0
C      1  0.4391520000000  0.5044710000000  0.5496450000000 1.0
C      1  0.4954340000000  0.5490670000000  0.5610760000000 1.0
C      1  0.5044490000000  0.5496200000000  0.4390500000000 1.0
C      1  0.4959450000000  0.4498520000000  0.4397060000000 1.0
C      1  0.5500660000000  0.4397760000000  0.5042850000000 1.0
C      1  0.4502400000000  0.4395150000000  0.4955220000000 1.0
C      1  0.5491050000000  0.5607440000000  0.4952500000000 1.0
C      1  0.5038480000000  0.5601130000000  0.4494620000000 1.0
C      1  0.4494610000000  0.5039850000000  0.5602550000000 1.0
C      1  0.5605640000000  0.4502460000000  0.5045730000000 1.0
C      1  0.4955140000000  0.4394410000000  0.4502410000000 1.0
C      1  0.4956850000000  0.5597360000000  0.5507660000000 1.0
C      1  0.5043920000000  0.4400370000000  0.5502550000000 1.0
C      1  0.5506890000000  0.4960120000000  0.5600670000000 1.0
C      1  0.5498690000000  0.5045100000000  0.4394190000000 1.0
C      1  0.4498550000000  0.4953620000000  0.4394320000000 1.0
C      1  0.4400430000000  0.5501160000000  0.5045060000000 1.0
C      1  0.4397220000000  0.4499470000000  0.4959020000000 1.0
C      1  0.5597770000000  0.5503930000000  0.4955590000000 1.0
C      1  0.5291760000000  0.4885880000000  0.4484360000000 1.0
C      1  0.4889430000000  0.4492580000000  0.5299360000000 1.0
C      1  0.4487370000000  0.5291730000000  0.4887080000000 1.0
C      1  0.4700660000000  0.5110210000000  0.4486140000000 1.0
C      1  0.5301640000000  0.5111830000000  0.5509590000000 1.0
C      1  0.4699290000000  0.4887630000000  0.5510450000000 1.0
C      1  0.5110310000000  0.5507670000000  0.5301670000000 1.0
C      1  0.4887120000000  0.5506280000000  0.4698880000000 1.0
C      1  0.5113770000000  0.4485330000000  0.4709400000000 1.0
C      1  0.5515380000000  0.4709460000000  0.4886240000000 1.0
C      1  0.4490960000000  0.4701940000000  0.5111770000000 1.0
C      1  0.5507240000000  0.5300130000000  0.5109980000000 1.0
C      1  0.4885980000000  0.5289540000000  0.4480640000000 1.0
C      1  0.4483890000000  0.4886470000000  0.5290660000000 1.0
C      1  0.5298410000000  0.4491600000000  0.4889060000000 1.0
C      1  0.5112270000000  0.4701210000000  0.4490550000000 1.0
C      1  0.5113890000000  0.5287430000000  0.5516620000000 1.0
C      1  0.4887230000000  0.4711270000000  0.5515630000000 1.0
C      1  0.5516040000000  0.5115320000000  0.5289160000000 1.0
C      1  0.5509440000000  0.4889000000000  0.4701540000000 1.0
C      1  0.4488940000000  0.5111540000000  0.4701910000000 1.0
C      1  0.4711200000000  0.5510200000000  0.4886630000000 1.0
C      1  0.4709610000000  0.4485940000000  0.5114210000000 1.0
C      1  0.5286700000000  0.5514530000000  0.5113190000000 1.0
C      1  0.4954640000000  0.5152910000000  0.4488050000000 1.0
C      1  0.5155930000000  0.4494670000000  0.4952840000000 1.0
C      1  0.4490510000000  0.4955240000000  0.5154010000000 1.0
C      1  0.5048250000000  0.4843460000000  0.4492580000000 1.0
C      1  0.4955760000000  0.4847960000000  0.5509540000000 1.0
C      1  0.5045480000000  0.5150620000000  0.5510300000000 1.0
C      1  0.4848040000000  0.5505460000000  0.4955210000000 1.0
C      1  0.5150000000000  0.5507160000000  0.5044810000000 1.0
C      1  0.4846120000000  0.4492460000000  0.5045540000000 1.0
C      1  0.5509310000000  0.5046510000000  0.5152670000000 1.0
C      1  0.4493250000000  0.5047880000000  0.4844180000000 1.0
C      1  0.5506300000000  0.4953050000000  0.4843800000000 1.0
C      1  0.5155000000000  0.4954160000000  0.4489830000000 1.0
C      1  0.4492550000000  0.5154880000000  0.4955160000000 1.0
C      1  0.4952890000000  0.4495330000000  0.5156730000000 1.0
C      1  0.4843380000000  0.5046480000000  0.4490540000000 1.0
C      1  0.4841830000000  0.4951590000000  0.5508940000000 1.0
C      1  0.5159310000000  0.5047310000000  0.5508560000000 1.0
C      1  0.5508930000000  0.4846180000000  0.4954450000000 1.0
C      1  0.5505390000000  0.5157580000000  0.5046250000000 1.0
C      1  0.4493600000000  0.4844290000000  0.5047750000000 1.0
C      1  0.5046290000000  0.5505570000000  0.5159100000000 1.0
C      1  0.5045170000000  0.4492050000000  0.4845990000000 1.0
C      1  0.4951310000000  0.5505320000000  0.4841250000000 1.0
C      1  0.5312800000000  0.5612790000000  0.4573120000000 1.0
C      1  0.5610770000000  0.4574660000000  0.5324960000000 1.0
C      1  0.4574020000000  0.5313800000000  0.5614740000000 1.0
C      1  0.4675140000000  0.4390480000000  0.4574210000000 1.0
C      1  0.5316870000000  0.4384510000000  0.5418770000000 1.0
C      1  0.4682870000000  0.5611260000000  0.5425780000000 1.0
C      1  0.4391320000000  0.5427640000000  0.5323930000000 1.0
C      1  0.5614840000000  0.5419600000000  0.4682470000000 1.0
C      1  0.4382820000000  0.4581190000000  0.4685400000000 1.0
C      1  0.5427590000000  0.4685410000000  0.5612380000000 1.0
C      1  0.4583450000000  0.4679950000000  0.4382030000000 1.0
C      1  0.5426930000000  0.5324510000000  0.4389440000000 1.0
C      1  0.5616040000000  0.5317630000000  0.4581790000000 1.0
C      1  0.4580800000000  0.5612620000000  0.5325200000000 1.0
C      1  0.5328520000000  0.4582090000000  0.5614030000000 1.0
C      1  0.4381940000000  0.4681790000000  0.4583580000000 1.0
C      1  0.4389560000000  0.5326220000000  0.5425000000000 1.0
C      1  0.5611790000000  0.4676710000000  0.5425250000000 1.0
C      1  0.5417920000000  0.4383930000000  0.5317120000000 1.0
C      1  0.5416080000000  0.5614660000000  0.4672290000000 1.0
C      1  0.4574020000000  0.4390670000000  0.4675370000000 1.0
C      1  0.4673450000000  0.5416870000000  0.5616550000000 1.0
C      1  0.4685670000000  0.4579810000000  0.4382900000000 1.0
C      1  0.5325350000000  0.5425250000000  0.4388550000000 1.0
C      1  0.4907560000000  0.5733620000000  0.5222090000000 1.0
C      1  0.5733700000000  0.5211220000000  0.4909980000000 1.0
C      1  0.5223360000000  0.4909390000000  0.5736360000000 1.0
C      1  0.5089190000000  0.4266580000000  0.5209830000000 1.0
C      1  0.4889020000000  0.4262850000000  0.4776160000000 1.0
C      1  0.5087670000000  0.5734320000000  0.4777840000000 1.0
C      1  0.4264660000000  0.4791210000000  0.4912710000000 1.0
C      1  0.5738670000000  0.4776810000000  0.5109720000000 1.0
C      1  0.4263240000000  0.5227010000000  0.5109070000000 1.0
C      1  0.4778530000000  0.5088620000000  0.5737660000000 1.0
C      1  0.5225680000000  0.5109620000000  0.4260550000000 1.0
C      1  0.4792810000000  0.4907640000000  0.4262810000000 1.0
C      1  0.5738920000000  0.4890610000000  0.5222390000000 1.0
C      1  0.5208620000000  0.5735830000000  0.4889660000000 1.0
C      1  0.4890370000000  0.5209510000000  0.5738760000000 1.0
C      1  0.4262240000000  0.5113360000000  0.5222830000000 1.0
C      1  0.4264740000000  0.4909970000000  0.4792910000000 1.0
C      1  0.5734270000000  0.5091000000000  0.4790540000000 1.0
C      1  0.4775710000000  0.4263030000000  0.4889590000000 1.0
C      1  0.4786870000000  0.5733850000000  0.5109330000000 1.0
C      1  0.5208740000000  0.4266130000000  0.5089970000000 1.0
C      1  0.5111530000000  0.4788080000000  0.5737110000000 1.0
C      1  0.5111890000000  0.5222550000000  0.4259400000000 1.0
C      1  0.4912900000000  0.4788870000000  0.4263870000000 1.0
C      1  0.4849930000000  0.4821040000000  0.5761010000000 1.0
C      1  0.4819470000000  0.5755990000000  0.4848330000000 1.0
C      1  0.5151850000000  0.5176890000000  0.5761300000000 1.0
C      1  0.4854380000000  0.5179810000000  0.4235370000000 1.0
C      1  0.5184660000000  0.4851640000000  0.4238580000000 1.0
C      1  0.5146690000000  0.4239930000000  0.4818120000000 1.0
C      1  0.4817580000000  0.4240410000000  0.5147580000000 1.0
C      1  0.5175040000000  0.5759090000000  0.5151020000000 1.0
C      1  0.5760830000000  0.4818790000000  0.4852520000000 1.0
C      1  0.4240920000000  0.5183510000000  0.4852820000000 1.0
C      1  0.4238320000000  0.4854810000000  0.5183250000000 1.0
C      1  0.5761040000000  0.5148930000000  0.5181030000000 1.0
END
