TITL C-1379266-1300-371 -5.19287545938261e-07 1000000 -2531.90292930609 0 0 360 (Th) n - 1
REM
REM in /nfs/bkarasulu/CARBON/AIRSS/Generating-Clusters/GAP-ML-2020/Higher-Symm/Selected-Sizes/TryA-Only_Ih-Symm/Larger-Clusters/Try2-MINAMP_6A
REM
REM
REM
REM
REM
REM ./C.cell (31579ac4e95a012ec27f3239692ae8a5)
REM
REM compiler GCC version 9.2.1 20190827 (Red Hat 9.2.1-1)
REM options -cpp -mtune=generic -march=x86-64 -g -O0 -fpre-include=/usr/include/finclude/math-vector-fortran.h
REM seed 238259486 2023716207 681103972 -776949643 1573017553 1779633430 -1943679998 1754857993 925953340 -2073695295 1677568329 -784261488 1336021681 -1730669811 1712767015 -1717920109 -226368133 -1996632888 976126017 -1333889437 621158416 -659194100 -1904315920 -175759409 -1408672061 1959061054 -431036957 -1200835219 586864271 -72285111 947674044 -113458343 1233453572
REM
CELL 1.54180  100.00000  100.00000  100.00000   90.00000   90.00000   90.00000
LATT -1
SFAC C  
C      1  0.4706420000000  0.4598720000000  0.4399960000000 1.0
C      1  0.4598720000000  0.4399960000000  0.4706420000000 1.0
C      1  0.4399960000000  0.4706420000000  0.4598720000000 1.0
C      1  0.5293580000000  0.4598720000000  0.5600040000000 1.0
C      1  0.5293580000000  0.5401280000000  0.4399960000000 1.0
C      1  0.4706420000000  0.5401280000000  0.5600040000000 1.0
C      1  0.5401280000000  0.4399960000000  0.5293580000000 1.0
C      1  0.5401280000000  0.5600040000000  0.4706420000000 1.0
C      1  0.4598720000000  0.5600040000000  0.5293580000000 1.0
C      1  0.5600040000000  0.4706420000000  0.5401280000000 1.0
C      1  0.5600040000000  0.5293580000000  0.4598720000000 1.0
C      1  0.4399960000000  0.5293580000000  0.5401280000000 1.0
C      1  0.4706420000000  0.5401280000000  0.4399960000000 1.0
C      1  0.4598720000000  0.5600040000000  0.4706420000000 1.0
C      1  0.4399960000000  0.5293580000000  0.4598720000000 1.0
C      1  0.5293580000000  0.5401280000000  0.5600040000000 1.0
C      1  0.5293580000000  0.4598720000000  0.4399960000000 1.0
C      1  0.4706420000000  0.4598720000000  0.5600040000000 1.0
C      1  0.5401280000000  0.5600040000000  0.5293580000000 1.0
C      1  0.5401280000000  0.4399960000000  0.4706420000000 1.0
C      1  0.4598720000000  0.4399960000000  0.5293580000000 1.0
C      1  0.5600040000000  0.5293580000000  0.5401280000000 1.0
C      1  0.5600040000000  0.4706420000000  0.4598720000000 1.0
C      1  0.4399960000000  0.4706420000000  0.5401280000000 1.0
C      1  0.5675920000000  0.4609120000000  0.5183250000000 1.0
C      1  0.4609120000000  0.5183250000000  0.5675920000000 1.0
C      1  0.5183250000000  0.5675920000000  0.4609120000000 1.0
C      1  0.4324080000000  0.4609120000000  0.4816750000000 1.0
C      1  0.4324080000000  0.5390880000000  0.5183250000000 1.0
C      1  0.5675920000000  0.5390880000000  0.4816750000000 1.0
C      1  0.5390880000000  0.5183250000000  0.4324080000000 1.0
C      1  0.5390880000000  0.4816750000000  0.5675920000000 1.0
C      1  0.4609120000000  0.4816750000000  0.4324080000000 1.0
C      1  0.4816750000000  0.5675920000000  0.5390880000000 1.0
C      1  0.4816750000000  0.4324080000000  0.4609120000000 1.0
C      1  0.5183250000000  0.4324080000000  0.5390880000000 1.0
C      1  0.5675920000000  0.5390880000000  0.5183250000000 1.0
C      1  0.4609120000000  0.4816750000000  0.5675920000000 1.0
C      1  0.5183250000000  0.4324080000000  0.4609120000000 1.0
C      1  0.4324080000000  0.5390880000000  0.4816750000000 1.0
C      1  0.4324080000000  0.4609120000000  0.5183250000000 1.0
C      1  0.5675920000000  0.4609120000000  0.4816750000000 1.0
C      1  0.5390880000000  0.4816750000000  0.4324080000000 1.0
C      1  0.5390880000000  0.5183250000000  0.5675920000000 1.0
C      1  0.4609120000000  0.5183250000000  0.4324080000000 1.0
C      1  0.4816750000000  0.4324080000000  0.5390880000000 1.0
C      1  0.4816750000000  0.5675920000000  0.4609120000000 1.0
C      1  0.5183250000000  0.5675920000000  0.5390880000000 1.0
C      1  0.4847750000000  0.5197930000000  0.5673090000000 1.0
C      1  0.5197930000000  0.5673090000000  0.4847750000000 1.0
C      1  0.5673090000000  0.4847750000000  0.5197930000000 1.0
C      1  0.5152250000000  0.5197930000000  0.4326910000000 1.0
C      1  0.5152250000000  0.4802070000000  0.5673090000000 1.0
C      1  0.4847750000000  0.4802070000000  0.4326910000000 1.0
C      1  0.4802070000000  0.5673090000000  0.5152250000000 1.0
C      1  0.4802070000000  0.4326910000000  0.4847750000000 1.0
C      1  0.5197930000000  0.4326910000000  0.5152250000000 1.0
C      1  0.4326910000000  0.4847750000000  0.4802070000000 1.0
C      1  0.4326910000000  0.5152250000000  0.5197930000000 1.0
C      1  0.5673090000000  0.5152250000000  0.4802070000000 1.0
C      1  0.4847750000000  0.4802070000000  0.5673090000000 1.0
C      1  0.5197930000000  0.4326910000000  0.4847750000000 1.0
C      1  0.5673090000000  0.5152250000000  0.5197930000000 1.0
C      1  0.5152250000000  0.4802070000000  0.4326910000000 1.0
C      1  0.5152250000000  0.5197930000000  0.5673090000000 1.0
C      1  0.4847750000000  0.5197930000000  0.4326910000000 1.0
C      1  0.4802070000000  0.4326910000000  0.5152250000000 1.0
C      1  0.4802070000000  0.5673090000000  0.4847750000000 1.0
C      1  0.5197930000000  0.5673090000000  0.5152250000000 1.0
C      1  0.4326910000000  0.5152250000000  0.4802070000000 1.0
C      1  0.4326910000000  0.4847750000000  0.5197930000000 1.0
C      1  0.5673090000000  0.4847750000000  0.4802070000000 1.0
C      1  0.5200790000000  0.5546820000000  0.5069590000000 1.0
C      1  0.5546820000000  0.5069590000000  0.5200790000000 1.0
C      1  0.5069590000000  0.5200790000000  0.5546820000000 1.0
C      1  0.4799210000000  0.5546820000000  0.4930410000000 1.0
C      1  0.4799210000000  0.4453180000000  0.5069590000000 1.0
C      1  0.5200790000000  0.4453180000000  0.4930410000000 1.0
C      1  0.4453180000000  0.5069590000000  0.4799210000000 1.0
C      1  0.4453180000000  0.4930410000000  0.5200790000000 1.0
C      1  0.5546820000000  0.4930410000000  0.4799210000000 1.0
C      1  0.4930410000000  0.5200790000000  0.4453180000000 1.0
C      1  0.4930410000000  0.4799210000000  0.5546820000000 1.0
C      1  0.5069590000000  0.4799210000000  0.4453180000000 1.0
C      1  0.5200790000000  0.4453180000000  0.5069590000000 1.0
C      1  0.5546820000000  0.4930410000000  0.5200790000000 1.0
C      1  0.5069590000000  0.4799210000000  0.5546820000000 1.0
C      1  0.4799210000000  0.4453180000000  0.4930410000000 1.0
C      1  0.4799210000000  0.5546820000000  0.5069590000000 1.0
C      1  0.5200790000000  0.5546820000000  0.4930410000000 1.0
C      1  0.4453180000000  0.4930410000000  0.4799210000000 1.0
C      1  0.4453180000000  0.5069590000000  0.5200790000000 1.0
C      1  0.5546820000000  0.5069590000000  0.4799210000000 1.0
C      1  0.4930410000000  0.4799210000000  0.4453180000000 1.0
C      1  0.4930410000000  0.5200790000000  0.5546820000000 1.0
C      1  0.5069590000000  0.5200790000000  0.4453180000000 1.0
C      1  0.4764810000000  0.5324630000000  0.4780720000000 1.0
C      1  0.5324630000000  0.4780720000000  0.4764810000000 1.0
C      1  0.4780720000000  0.4764810000000  0.5324630000000 1.0
C      1  0.5235190000000  0.5324630000000  0.5219280000000 1.0
C      1  0.5235190000000  0.4675370000000  0.4780720000000 1.0
C      1  0.4764810000000  0.4675370000000  0.5219280000000 1.0
C      1  0.4675370000000  0.4780720000000  0.5235190000000 1.0
C      1  0.4675370000000  0.5219280000000  0.4764810000000 1.0
C      1  0.5324630000000  0.5219280000000  0.5235190000000 1.0
C      1  0.5219280000000  0.4764810000000  0.4675370000000 1.0
C      1  0.5219280000000  0.5235190000000  0.5324630000000 1.0
C      1  0.4780720000000  0.5235190000000  0.4675370000000 1.0
C      1  0.4764810000000  0.4675370000000  0.4780720000000 1.0
C      1  0.5324630000000  0.5219280000000  0.4764810000000 1.0
C      1  0.4780720000000  0.5235190000000  0.5324630000000 1.0
C      1  0.5235190000000  0.4675370000000  0.5219280000000 1.0
C      1  0.5235190000000  0.5324630000000  0.4780720000000 1.0
C      1  0.4764810000000  0.5324630000000  0.5219280000000 1.0
C      1  0.4675370000000  0.5219280000000  0.5235190000000 1.0
C      1  0.4675370000000  0.4780720000000  0.4764810000000 1.0
C      1  0.5324630000000  0.4780720000000  0.5235190000000 1.0
C      1  0.5219280000000  0.5235190000000  0.4675370000000 1.0
C      1  0.5219280000000  0.4764810000000  0.5324630000000 1.0
C      1  0.4780720000000  0.4764810000000  0.4675370000000 1.0
C      1  0.4338760000000  0.5281850000000  0.4725700000000 1.0
C      1  0.5281850000000  0.4725700000000  0.4338760000000 1.0
C      1  0.4725700000000  0.4338760000000  0.5281850000000 1.0
C      1  0.5661240000000  0.5281850000000  0.5274300000000 1.0
C      1  0.5661240000000  0.4718150000000  0.4725700000000 1.0
C      1  0.4338760000000  0.4718150000000  0.5274300000000 1.0
C      1  0.4718150000000  0.4725700000000  0.5661240000000 1.0
C      1  0.4718150000000  0.5274300000000  0.4338760000000 1.0
C      1  0.5281850000000  0.5274300000000  0.5661240000000 1.0
C      1  0.5274300000000  0.4338760000000  0.4718150000000 1.0
C      1  0.5274300000000  0.5661240000000  0.5281850000000 1.0
C      1  0.4725700000000  0.5661240000000  0.4718150000000 1.0
C      1  0.4338760000000  0.4718150000000  0.4725700000000 1.0
C      1  0.5281850000000  0.5274300000000  0.4338760000000 1.0
C      1  0.4725700000000  0.5661240000000  0.5281850000000 1.0
C      1  0.5661240000000  0.4718150000000  0.5274300000000 1.0
C      1  0.5661240000000  0.5281850000000  0.4725700000000 1.0
C      1  0.4338760000000  0.5281850000000  0.5274300000000 1.0
C      1  0.4718150000000  0.5274300000000  0.5661240000000 1.0
C      1  0.4718150000000  0.4725700000000  0.4338760000000 1.0
C      1  0.5281850000000  0.4725700000000  0.5661240000000 1.0
C      1  0.5274300000000  0.5661240000000  0.4718150000000 1.0
C      1  0.5274300000000  0.4338760000000  0.5281850000000 1.0
C      1  0.4725700000000  0.4338760000000  0.4718150000000 1.0
C      1  0.5180120000000  0.5488900000000  0.5594180000000 1.0
C      1  0.5488900000000  0.5594180000000  0.5180120000000 1.0
C      1  0.5594180000000  0.5180120000000  0.5488900000000 1.0
C      1  0.4819880000000  0.5488900000000  0.4405820000000 1.0
C      1  0.4819880000000  0.4511100000000  0.5594180000000 1.0
C      1  0.5180120000000  0.4511100000000  0.4405820000000 1.0
C      1  0.4511100000000  0.5594180000000  0.4819880000000 1.0
C      1  0.4511100000000  0.4405820000000  0.5180120000000 1.0
C      1  0.5488900000000  0.4405820000000  0.4819880000000 1.0
C      1  0.4405820000000  0.5180120000000  0.4511100000000 1.0
C      1  0.4405820000000  0.4819880000000  0.5488900000000 1.0
C      1  0.5594180000000  0.4819880000000  0.4511100000000 1.0
C      1  0.5180120000000  0.4511100000000  0.5594180000000 1.0
C      1  0.5488900000000  0.4405820000000  0.5180120000000 1.0
C      1  0.5594180000000  0.4819880000000  0.5488900000000 1.0
C      1  0.4819880000000  0.4511100000000  0.4405820000000 1.0
C      1  0.4819880000000  0.5488900000000  0.5594180000000 1.0
C      1  0.5180120000000  0.5488900000000  0.4405820000000 1.0
C      1  0.4511100000000  0.4405820000000  0.4819880000000 1.0
C      1  0.4511100000000  0.5594180000000  0.5180120000000 1.0
C      1  0.5488900000000  0.5594180000000  0.4819880000000 1.0
C      1  0.4405820000000  0.4819880000000  0.4511100000000 1.0
C      1  0.4405820000000  0.5180120000000  0.5488900000000 1.0
C      1  0.5594180000000  0.5180120000000  0.4511100000000 1.0
C      1  0.5663800000000  0.5061880000000  0.4538790000000 1.0
C      1  0.5061880000000  0.4538790000000  0.5663800000000 1.0
C      1  0.4538790000000  0.5663800000000  0.5061880000000 1.0
C      1  0.4336200000000  0.5061880000000  0.5461210000000 1.0
C      1  0.4336200000000  0.4938120000000  0.4538790000000 1.0
C      1  0.5663800000000  0.4938120000000  0.5461210000000 1.0
C      1  0.4938120000000  0.4538790000000  0.4336200000000 1.0
C      1  0.4938120000000  0.5461210000000  0.5663800000000 1.0
C      1  0.5061880000000  0.5461210000000  0.4336200000000 1.0
C      1  0.5461210000000  0.5663800000000  0.4938120000000 1.0
C      1  0.5461210000000  0.4336200000000  0.5061880000000 1.0
C      1  0.4538790000000  0.4336200000000  0.4938120000000 1.0
C      1  0.5663800000000  0.4938120000000  0.4538790000000 1.0
C      1  0.5061880000000  0.5461210000000  0.5663800000000 1.0
C      1  0.4538790000000  0.4336200000000  0.5061880000000 1.0
C      1  0.4336200000000  0.4938120000000  0.5461210000000 1.0
C      1  0.4336200000000  0.5061880000000  0.4538790000000 1.0
C      1  0.5663800000000  0.5061880000000  0.5461210000000 1.0
C      1  0.4938120000000  0.5461210000000  0.4336200000000 1.0
C      1  0.4938120000000  0.4538790000000  0.5663800000000 1.0
C      1  0.5061880000000  0.4538790000000  0.4336200000000 1.0
C      1  0.5461210000000  0.4336200000000  0.4938120000000 1.0
C      1  0.5461210000000  0.5663800000000  0.5061880000000 1.0
C      1  0.4538790000000  0.5663800000000  0.4938120000000 1.0
C      1  0.4253740000000  0.5186000000000  0.5073540000000 1.0
C      1  0.5186000000000  0.5073540000000  0.4253740000000 1.0
C      1  0.5073540000000  0.4253740000000  0.5186000000000 1.0
C      1  0.5746260000000  0.5186000000000  0.4926460000000 1.0
C      1  0.5746260000000  0.4814000000000  0.5073540000000 1.0
C      1  0.4253740000000  0.4814000000000  0.4926460000000 1.0
C      1  0.4814000000000  0.5073540000000  0.5746260000000 1.0
C      1  0.4814000000000  0.4926460000000  0.4253740000000 1.0
C      1  0.5186000000000  0.4926460000000  0.5746260000000 1.0
C      1  0.4926460000000  0.4253740000000  0.4814000000000 1.0
C      1  0.4926460000000  0.5746260000000  0.5186000000000 1.0
C      1  0.5073540000000  0.5746260000000  0.4814000000000 1.0
C      1  0.4253740000000  0.4814000000000  0.5073540000000 1.0
C      1  0.5186000000000  0.4926460000000  0.4253740000000 1.0
C      1  0.5073540000000  0.5746260000000  0.5186000000000 1.0
C      1  0.5746260000000  0.4814000000000  0.4926460000000 1.0
C      1  0.5746260000000  0.5186000000000  0.5073540000000 1.0
C      1  0.4253740000000  0.5186000000000  0.4926460000000 1.0
C      1  0.4814000000000  0.4926460000000  0.5746260000000 1.0
C      1  0.4814000000000  0.5073540000000  0.4253740000000 1.0
C      1  0.5186000000000  0.5073540000000  0.5746260000000 1.0
C      1  0.4926460000000  0.5746260000000  0.4814000000000 1.0
C      1  0.4926460000000  0.4253740000000  0.5186000000000 1.0
C      1  0.5073540000000  0.4253740000000  0.4814000000000 1.0
C      1  0.5472740000000  0.5152980000000  0.5561410000000 1.0
C      1  0.5152980000000  0.5561410000000  0.5472740000000 1.0
C      1  0.5561410000000  0.5472740000000  0.5152980000000 1.0
C      1  0.4527260000000  0.5152980000000  0.4438590000000 1.0
C      1  0.4527260000000  0.4847020000000  0.5561410000000 1.0
C      1  0.5472740000000  0.4847020000000  0.4438590000000 1.0
C      1  0.4847020000000  0.5561410000000  0.4527260000000 1.0
C      1  0.4847020000000  0.4438590000000  0.5472740000000 1.0
C      1  0.5152980000000  0.4438590000000  0.4527260000000 1.0
C      1  0.4438590000000  0.5472740000000  0.4847020000000 1.0
C      1  0.4438590000000  0.4527260000000  0.5152980000000 1.0
C      1  0.5561410000000  0.4527260000000  0.4847020000000 1.0
C      1  0.5472740000000  0.4847020000000  0.5561410000000 1.0
C      1  0.5152980000000  0.4438590000000  0.5472740000000 1.0
C      1  0.5561410000000  0.4527260000000  0.5152980000000 1.0
C      1  0.4527260000000  0.4847020000000  0.4438590000000 1.0
C      1  0.4527260000000  0.5152980000000  0.5561410000000 1.0
C      1  0.5472740000000  0.5152980000000  0.4438590000000 1.0
C      1  0.4847020000000  0.4438590000000  0.4527260000000 1.0
C      1  0.4847020000000  0.5561410000000  0.5472740000000 1.0
C      1  0.5152980000000  0.5561410000000  0.4527260000000 1.0
C      1  0.4438590000000  0.4527260000000  0.4847020000000 1.0
C      1  0.4438590000000  0.5472740000000  0.5152980000000 1.0
C      1  0.5561410000000  0.5472740000000  0.4847020000000 1.0
C      1  0.4928720000000  0.5470490000000  0.4600720000000 1.0
C      1  0.5470490000000  0.4600720000000  0.4928720000000 1.0
C      1  0.4600720000000  0.4928720000000  0.5470490000000 1.0
C      1  0.5071280000000  0.5470490000000  0.5399280000000 1.0
C      1  0.5071280000000  0.4529510000000  0.4600720000000 1.0
C      1  0.4928720000000  0.4529510000000  0.5399280000000 1.0
C      1  0.4529510000000  0.4600720000000  0.5071280000000 1.0
C      1  0.4529510000000  0.5399280000000  0.4928720000000 1.0
C      1  0.5470490000000  0.5399280000000  0.5071280000000 1.0
C      1  0.5399280000000  0.4928720000000  0.4529510000000 1.0
C      1  0.5399280000000  0.5071280000000  0.5470490000000 1.0
C      1  0.4600720000000  0.5071280000000  0.4529510000000 1.0
C      1  0.4928720000000  0.4529510000000  0.4600720000000 1.0
C      1  0.5470490000000  0.5399280000000  0.4928720000000 1.0
C      1  0.4600720000000  0.5071280000000  0.5470490000000 1.0
C      1  0.5071280000000  0.4529510000000  0.5399280000000 1.0
C      1  0.5071280000000  0.5470490000000  0.4600720000000 1.0
C      1  0.4928720000000  0.5470490000000  0.5399280000000 1.0
C      1  0.4529510000000  0.5399280000000  0.5071280000000 1.0
C      1  0.4529510000000  0.4600720000000  0.4928720000000 1.0
C      1  0.5470490000000  0.4600720000000  0.5071280000000 1.0
C      1  0.5399280000000  0.5071280000000  0.4529510000000 1.0
C      1  0.5399280000000  0.4928720000000  0.5470490000000 1.0
C      1  0.4600720000000  0.4928720000000  0.4529510000000 1.0
C      1  0.4839420000000  0.4825750000000  0.5433040000000 1.0
C      1  0.4825750000000  0.5433040000000  0.4839420000000 1.0
C      1  0.5433040000000  0.4839420000000  0.4825750000000 1.0
C      1  0.5160580000000  0.4825750000000  0.4566960000000 1.0
C      1  0.5160580000000  0.5174250000000  0.5433040000000 1.0
C      1  0.4839420000000  0.5174250000000  0.4566960000000 1.0
C      1  0.5174250000000  0.5433040000000  0.5160580000000 1.0
C      1  0.5174250000000  0.4566960000000  0.4839420000000 1.0
C      1  0.4825750000000  0.4566960000000  0.5160580000000 1.0
C      1  0.4566960000000  0.4839420000000  0.5174250000000 1.0
C      1  0.4566960000000  0.5160580000000  0.4825750000000 1.0
C      1  0.5433040000000  0.5160580000000  0.5174250000000 1.0
C      1  0.4839420000000  0.5174250000000  0.5433040000000 1.0
C      1  0.4825750000000  0.4566960000000  0.4839420000000 1.0
C      1  0.5433040000000  0.5160580000000  0.4825750000000 1.0
C      1  0.5160580000000  0.5174250000000  0.4566960000000 1.0
C      1  0.5160580000000  0.4825750000000  0.5433040000000 1.0
C      1  0.4839420000000  0.4825750000000  0.4566960000000 1.0
C      1  0.5174250000000  0.4566960000000  0.5160580000000 1.0
C      1  0.5174250000000  0.5433040000000  0.4839420000000 1.0
C      1  0.4825750000000  0.5433040000000  0.5160580000000 1.0
C      1  0.4566960000000  0.5160580000000  0.5174250000000 1.0
C      1  0.4566960000000  0.4839420000000  0.4825750000000 1.0
C      1  0.5433040000000  0.4839420000000  0.5174250000000 1.0
C      1  0.4250050000000  0.4664630000000  0.4928930000000 1.0
C      1  0.4664630000000  0.4928930000000  0.4250050000000 1.0
C      1  0.4928930000000  0.4250050000000  0.4664630000000 1.0
C      1  0.5749950000000  0.4664630000000  0.5071070000000 1.0
C      1  0.5749950000000  0.5335370000000  0.4928930000000 1.0
C      1  0.4250050000000  0.5335370000000  0.5071070000000 1.0
C      1  0.5335370000000  0.4928930000000  0.5749950000000 1.0
C      1  0.5335370000000  0.5071070000000  0.4250050000000 1.0
C      1  0.4664630000000  0.5071070000000  0.5749950000000 1.0
C      1  0.5071070000000  0.4250050000000  0.5335370000000 1.0
C      1  0.5071070000000  0.5749950000000  0.4664630000000 1.0
C      1  0.4928930000000  0.5749950000000  0.5335370000000 1.0
C      1  0.4250050000000  0.5335370000000  0.4928930000000 1.0
C      1  0.4664630000000  0.5071070000000  0.4250050000000 1.0
C      1  0.4928930000000  0.5749950000000  0.4664630000000 1.0
C      1  0.5749950000000  0.5335370000000  0.5071070000000 1.0
C      1  0.5749950000000  0.4664630000000  0.4928930000000 1.0
C      1  0.4250050000000  0.4664630000000  0.5071070000000 1.0
C      1  0.5335370000000  0.5071070000000  0.5749950000000 1.0
C      1  0.5335370000000  0.4928930000000  0.4250050000000 1.0
C      1  0.4664630000000  0.4928930000000  0.5749950000000 1.0
C      1  0.5071070000000  0.5749950000000  0.5335370000000 1.0
C      1  0.5071070000000  0.4250050000000  0.4664630000000 1.0
C      1  0.4928930000000  0.4250050000000  0.5335370000000 1.0
C      1  0.5434050000000  0.4489320000000  0.4600030000000 1.0
C      1  0.4489320000000  0.4600030000000  0.5434050000000 1.0
C      1  0.4600030000000  0.5434050000000  0.4489320000000 1.0
C      1  0.4565950000000  0.4489320000000  0.5399970000000 1.0
C      1  0.4565950000000  0.5510680000000  0.4600030000000 1.0
C      1  0.5434050000000  0.5510680000000  0.5399970000000 1.0
C      1  0.5510680000000  0.4600030000000  0.4565950000000 1.0
C      1  0.5510680000000  0.5399970000000  0.5434050000000 1.0
C      1  0.4489320000000  0.5399970000000  0.4565950000000 1.0
C      1  0.5399970000000  0.5434050000000  0.5510680000000 1.0
C      1  0.5399970000000  0.4565950000000  0.4489320000000 1.0
C      1  0.4600030000000  0.4565950000000  0.5510680000000 1.0
C      1  0.5434050000000  0.5510680000000  0.4600030000000 1.0
C      1  0.4489320000000  0.5399970000000  0.5434050000000 1.0
C      1  0.4600030000000  0.4565950000000  0.4489320000000 1.0
C      1  0.4565950000000  0.5510680000000  0.5399970000000 1.0
C      1  0.4565950000000  0.4489320000000  0.4600030000000 1.0
C      1  0.5434050000000  0.4489320000000  0.5399970000000 1.0
C      1  0.5510680000000  0.5399970000000  0.4565950000000 1.0
C      1  0.5510680000000  0.4600030000000  0.5434050000000 1.0
C      1  0.4489320000000  0.4600030000000  0.4565950000000 1.0
C      1  0.5399970000000  0.4565950000000  0.5510680000000 1.0
C      1  0.5399970000000  0.5434050000000  0.4489320000000 1.0
C      1  0.4600030000000  0.5434050000000  0.5510680000000 1.0
C      1  0.5251450000000  0.4930580000000  0.5451950000000 1.0
C      1  0.4930580000000  0.5451950000000  0.5251450000000 1.0
C      1  0.5451950000000  0.5251450000000  0.4930580000000 1.0
C      1  0.4748550000000  0.4930580000000  0.4548050000000 1.0
C      1  0.4748550000000  0.5069420000000  0.5451950000000 1.0
C      1  0.5251450000000  0.5069420000000  0.4548050000000 1.0
C      1  0.5069420000000  0.5451950000000  0.4748550000000 1.0
C      1  0.5069420000000  0.4548050000000  0.5251450000000 1.0
C      1  0.4930580000000  0.4548050000000  0.4748550000000 1.0
C      1  0.4548050000000  0.5251450000000  0.5069420000000 1.0
C      1  0.4548050000000  0.4748550000000  0.4930580000000 1.0
C      1  0.5451950000000  0.4748550000000  0.5069420000000 1.0
C      1  0.5251450000000  0.5069420000000  0.5451950000000 1.0
C      1  0.4930580000000  0.4548050000000  0.5251450000000 1.0
C      1  0.5451950000000  0.4748550000000  0.4930580000000 1.0
C      1  0.4748550000000  0.5069420000000  0.4548050000000 1.0
C      1  0.4748550000000  0.4930580000000  0.5451950000000 1.0
C      1  0.5251450000000  0.4930580000000  0.4548050000000 1.0
C      1  0.5069420000000  0.4548050000000  0.4748550000000 1.0
C      1  0.5069420000000  0.5451950000000  0.5251450000000 1.0
C      1  0.4930580000000  0.5451950000000  0.4748550000000 1.0
C      1  0.4548050000000  0.4748550000000  0.5069420000000 1.0
C      1  0.4548050000000  0.5251450000000  0.4930580000000 1.0
C      1  0.5451950000000  0.5251450000000  0.5069420000000 1.0
END
