TITL C-1379267-1329-16 2.42722936617868e-06 1000000 -4267.07000511321 0 0 600 (Td) n - 1
REM
REM in /nfs/bkarasulu/CARBON/AIRSS/Generating-Clusters/GAP-ML-2020/Higher-Symm/Selected-Sizes/TryA-Only_Ih-Symm/Larger-Clusters/Try2-MINAMP_6A
REM
REM
REM
REM
REM
REM ./C.cell (31579ac4e95a012ec27f3239692ae8a5)
REM
REM compiler GCC version 9.2.1 20190827 (Red Hat 9.2.1-1)
REM options -cpp -mtune=generic -march=x86-64 -g -O0 -fpre-include=/usr/include/finclude/math-vector-fortran.h
REM seed -1797552958 608486214 -1408814533 -736164117 -1052780448 1250502104 1453247999 -1033383330 930181704 868758800 1885894738 -53338489 -745354658 2108836980 -1286751723 -223501636 -402644255 -1563000214 2003240628 -594823463 -1428265571 413494374 1079671872 1020837757 845653451 2035755500 174841760 1749639805 1549531719 -928708144 1186283223 345343293 -33877434
REM
CELL 1.54180  100.00000  100.00000  100.00000   90.00000   90.00000   90.00000
LATT -1
SFAC C  
C      1  0.4784190000000  0.4980610000000  0.5316770000000 1.0
C      1  0.5316770000000  0.4784190000000  0.4980610000000 1.0
C      1  0.4980610000000  0.5316770000000  0.4784190000000 1.0
C      1  0.4784190000000  0.5019390000000  0.4683230000000 1.0
C      1  0.5215810000000  0.5019390000000  0.5316770000000 1.0
C      1  0.5215810000000  0.4980610000000  0.4683230000000 1.0
C      1  0.5316770000000  0.5215810000000  0.5019390000000 1.0
C      1  0.4683230000000  0.5215810000000  0.4980610000000 1.0
C      1  0.4683230000000  0.4784190000000  0.5019390000000 1.0
C      1  0.4980610000000  0.4683230000000  0.5215810000000 1.0
C      1  0.5019390000000  0.4683230000000  0.4784190000000 1.0
C      1  0.5019390000000  0.5316770000000  0.5215810000000 1.0
C      1  0.4784190000000  0.5316770000000  0.4980610000000 1.0
C      1  0.5316770000000  0.4980610000000  0.4784190000000 1.0
C      1  0.4980610000000  0.4784190000000  0.5316770000000 1.0
C      1  0.4784190000000  0.4683230000000  0.5019390000000 1.0
C      1  0.5215810000000  0.5316770000000  0.5019390000000 1.0
C      1  0.5215810000000  0.4683230000000  0.4980610000000 1.0
C      1  0.5316770000000  0.5019390000000  0.5215810000000 1.0
C      1  0.4683230000000  0.4980610000000  0.5215810000000 1.0
C      1  0.4683230000000  0.5019390000000  0.4784190000000 1.0
C      1  0.4980610000000  0.5215810000000  0.4683230000000 1.0
C      1  0.5019390000000  0.4784190000000  0.4683230000000 1.0
C      1  0.5019390000000  0.5215810000000  0.5316770000000 1.0
C      1  0.5001630000000  0.5108590000000  0.4323780000000 1.0
C      1  0.4323780000000  0.5001630000000  0.5108590000000 1.0
C      1  0.5108590000000  0.4323780000000  0.5001630000000 1.0
C      1  0.5001630000000  0.4891410000000  0.5676220000000 1.0
C      1  0.4998370000000  0.4891410000000  0.4323780000000 1.0
C      1  0.4998370000000  0.5108590000000  0.5676220000000 1.0
C      1  0.4323780000000  0.4998370000000  0.4891410000000 1.0
C      1  0.5676220000000  0.4998370000000  0.5108590000000 1.0
C      1  0.5676220000000  0.5001630000000  0.4891410000000 1.0
C      1  0.5108590000000  0.5676220000000  0.4998370000000 1.0
C      1  0.4891410000000  0.5676220000000  0.5001630000000 1.0
C      1  0.4891410000000  0.4323780000000  0.4998370000000 1.0
C      1  0.5001630000000  0.4323780000000  0.5108590000000 1.0
C      1  0.4323780000000  0.5108590000000  0.5001630000000 1.0
C      1  0.5108590000000  0.5001630000000  0.4323780000000 1.0
C      1  0.5001630000000  0.5676220000000  0.4891410000000 1.0
C      1  0.4998370000000  0.4323780000000  0.4891410000000 1.0
C      1  0.4998370000000  0.5676220000000  0.5108590000000 1.0
C      1  0.4323780000000  0.4891410000000  0.4998370000000 1.0
C      1  0.5676220000000  0.5108590000000  0.4998370000000 1.0
C      1  0.5676220000000  0.4891410000000  0.5001630000000 1.0
C      1  0.5108590000000  0.4998370000000  0.5676220000000 1.0
C      1  0.4891410000000  0.5001630000000  0.5676220000000 1.0
C      1  0.4891410000000  0.4998370000000  0.4323780000000 1.0
C      1  0.4820920000000  0.4925980000000  0.5452590000000 1.0
C      1  0.5452590000000  0.4820920000000  0.4925980000000 1.0
C      1  0.4925980000000  0.5452590000000  0.4820920000000 1.0
C      1  0.4820920000000  0.5074020000000  0.4547410000000 1.0
C      1  0.5179080000000  0.5074020000000  0.5452590000000 1.0
C      1  0.5179080000000  0.4925980000000  0.4547410000000 1.0
C      1  0.5452590000000  0.5179080000000  0.5074020000000 1.0
C      1  0.4547410000000  0.5179080000000  0.4925980000000 1.0
C      1  0.4547410000000  0.4820920000000  0.5074020000000 1.0
C      1  0.4925980000000  0.4547410000000  0.5179080000000 1.0
C      1  0.5074020000000  0.4547410000000  0.4820920000000 1.0
C      1  0.5074020000000  0.5452590000000  0.5179080000000 1.0
C      1  0.4820920000000  0.5452590000000  0.4925980000000 1.0
C      1  0.5452590000000  0.4925980000000  0.4820920000000 1.0
C      1  0.4925980000000  0.4820920000000  0.5452590000000 1.0
C      1  0.4820920000000  0.4547410000000  0.5074020000000 1.0
C      1  0.5179080000000  0.5452590000000  0.5074020000000 1.0
C      1  0.5179080000000  0.4547410000000  0.4925980000000 1.0
C      1  0.5452590000000  0.5074020000000  0.5179080000000 1.0
C      1  0.4547410000000  0.4925980000000  0.5179080000000 1.0
C      1  0.4547410000000  0.5074020000000  0.4820920000000 1.0
C      1  0.4925980000000  0.5179080000000  0.4547410000000 1.0
C      1  0.5074020000000  0.4820920000000  0.4547410000000 1.0
C      1  0.5074020000000  0.5179080000000  0.5452590000000 1.0
C      1  0.5113320000000  0.4251500000000  0.4665650000000 1.0
C      1  0.4665650000000  0.5113320000000  0.4251500000000 1.0
C      1  0.4251500000000  0.4665650000000  0.5113320000000 1.0
C      1  0.5113320000000  0.5748500000000  0.5334350000000 1.0
C      1  0.4886680000000  0.5748500000000  0.4665650000000 1.0
C      1  0.4886680000000  0.4251500000000  0.5334350000000 1.0
C      1  0.4665650000000  0.4886680000000  0.5748500000000 1.0
C      1  0.5334350000000  0.4886680000000  0.4251500000000 1.0
C      1  0.5334350000000  0.5113320000000  0.5748500000000 1.0
C      1  0.4251500000000  0.5334350000000  0.4886680000000 1.0
C      1  0.5748500000000  0.5334350000000  0.5113320000000 1.0
C      1  0.5748500000000  0.4665650000000  0.4886680000000 1.0
C      1  0.5113320000000  0.4665650000000  0.4251500000000 1.0
C      1  0.4665650000000  0.4251500000000  0.5113320000000 1.0
C      1  0.4251500000000  0.5113320000000  0.4665650000000 1.0
C      1  0.5113320000000  0.5334350000000  0.5748500000000 1.0
C      1  0.4886680000000  0.4665650000000  0.5748500000000 1.0
C      1  0.4886680000000  0.5334350000000  0.4251500000000 1.0
C      1  0.4665650000000  0.5748500000000  0.4886680000000 1.0
C      1  0.5334350000000  0.4251500000000  0.4886680000000 1.0
C      1  0.5334350000000  0.5748500000000  0.5113320000000 1.0
C      1  0.4251500000000  0.4886680000000  0.5334350000000 1.0
C      1  0.5748500000000  0.5113320000000  0.5334350000000 1.0
C      1  0.5748500000000  0.4886680000000  0.4665650000000 1.0
C      1  0.4733450000000  0.4314450000000  0.4526150000000 1.0
C      1  0.4526150000000  0.4733450000000  0.4314450000000 1.0
C      1  0.4314450000000  0.4526150000000  0.4733450000000 1.0
C      1  0.4733450000000  0.5685550000000  0.5473850000000 1.0
C      1  0.5266550000000  0.5685550000000  0.4526150000000 1.0
C      1  0.5266550000000  0.4314450000000  0.5473850000000 1.0
C      1  0.4526150000000  0.5266550000000  0.5685550000000 1.0
C      1  0.5473850000000  0.5266550000000  0.4314450000000 1.0
C      1  0.5473850000000  0.4733450000000  0.5685550000000 1.0
C      1  0.4314450000000  0.5473850000000  0.5266550000000 1.0
C      1  0.5685550000000  0.5473850000000  0.4733450000000 1.0
C      1  0.5685550000000  0.4526150000000  0.5266550000000 1.0
C      1  0.4733450000000  0.4526150000000  0.4314450000000 1.0
C      1  0.4526150000000  0.4314450000000  0.4733450000000 1.0
C      1  0.4314450000000  0.4733450000000  0.4526150000000 1.0
C      1  0.4733450000000  0.5473850000000  0.5685550000000 1.0
C      1  0.5266550000000  0.4526150000000  0.5685550000000 1.0
C      1  0.5266550000000  0.5473850000000  0.4314450000000 1.0
C      1  0.4526150000000  0.5685550000000  0.5266550000000 1.0
C      1  0.5473850000000  0.4314450000000  0.5266550000000 1.0
C      1  0.5473850000000  0.5685550000000  0.4733450000000 1.0
C      1  0.4314450000000  0.5266550000000  0.5473850000000 1.0
C      1  0.5685550000000  0.4733450000000  0.5473850000000 1.0
C      1  0.5685550000000  0.5266550000000  0.4526150000000 1.0
C      1  0.4487530000000  0.4688860000000  0.5129290000000 1.0
C      1  0.5129290000000  0.4487530000000  0.4688860000000 1.0
C      1  0.4688860000000  0.5129290000000  0.4487530000000 1.0
C      1  0.4487530000000  0.5311140000000  0.4870710000000 1.0
C      1  0.5512470000000  0.5311140000000  0.5129290000000 1.0
C      1  0.5512470000000  0.4688860000000  0.4870710000000 1.0
C      1  0.5129290000000  0.5512470000000  0.5311140000000 1.0
C      1  0.4870710000000  0.5512470000000  0.4688860000000 1.0
C      1  0.4870710000000  0.4487530000000  0.5311140000000 1.0
C      1  0.4688860000000  0.4870710000000  0.5512470000000 1.0
C      1  0.5311140000000  0.4870710000000  0.4487530000000 1.0
C      1  0.5311140000000  0.5129290000000  0.5512470000000 1.0
C      1  0.4487530000000  0.5129290000000  0.4688860000000 1.0
C      1  0.5129290000000  0.4688860000000  0.4487530000000 1.0
C      1  0.4688860000000  0.4487530000000  0.5129290000000 1.0
C      1  0.4487530000000  0.4870710000000  0.5311140000000 1.0
C      1  0.5512470000000  0.5129290000000  0.5311140000000 1.0
C      1  0.5512470000000  0.4870710000000  0.4688860000000 1.0
C      1  0.5129290000000  0.5311140000000  0.5512470000000 1.0
C      1  0.4870710000000  0.4688860000000  0.5512470000000 1.0
C      1  0.4870710000000  0.5311140000000  0.4487530000000 1.0
C      1  0.4688860000000  0.5512470000000  0.4870710000000 1.0
C      1  0.5311140000000  0.4487530000000  0.4870710000000 1.0
C      1  0.5311140000000  0.5512470000000  0.5129290000000 1.0
C      1  0.5248210000000  0.4195790000000  0.5147200000000 1.0
C      1  0.5147200000000  0.5248210000000  0.4195790000000 1.0
C      1  0.4195790000000  0.5147200000000  0.5248210000000 1.0
C      1  0.5248210000000  0.5804210000000  0.4852800000000 1.0
C      1  0.4751790000000  0.5804210000000  0.5147200000000 1.0
C      1  0.4751790000000  0.4195790000000  0.4852800000000 1.0
C      1  0.5147200000000  0.4751790000000  0.5804210000000 1.0
C      1  0.4852800000000  0.4751790000000  0.4195790000000 1.0
C      1  0.4852800000000  0.5248210000000  0.5804210000000 1.0
C      1  0.4195790000000  0.4852800000000  0.4751790000000 1.0
C      1  0.5804210000000  0.4852800000000  0.5248210000000 1.0
C      1  0.5804210000000  0.5147200000000  0.4751790000000 1.0
C      1  0.5248210000000  0.5147200000000  0.4195790000000 1.0
C      1  0.5147200000000  0.4195790000000  0.5248210000000 1.0
C      1  0.4195790000000  0.5248210000000  0.5147200000000 1.0
C      1  0.5248210000000  0.4852800000000  0.5804210000000 1.0
C      1  0.4751790000000  0.5147200000000  0.5804210000000 1.0
C      1  0.4751790000000  0.4852800000000  0.4195790000000 1.0
C      1  0.5147200000000  0.5804210000000  0.4751790000000 1.0
C      1  0.4852800000000  0.4195790000000  0.4751790000000 1.0
C      1  0.4852800000000  0.5804210000000  0.5248210000000 1.0
C      1  0.4195790000000  0.4751790000000  0.4852800000000 1.0
C      1  0.5804210000000  0.5248210000000  0.4852800000000 1.0
C      1  0.5804210000000  0.4751790000000  0.5147200000000 1.0
C      1  0.5170190000000  0.4421590000000  0.5679560000000 1.0
C      1  0.5679560000000  0.5170190000000  0.4421590000000 1.0
C      1  0.4421590000000  0.5679560000000  0.5170190000000 1.0
C      1  0.5170190000000  0.5578410000000  0.4320440000000 1.0
C      1  0.4829810000000  0.5578410000000  0.5679560000000 1.0
C      1  0.4829810000000  0.4421590000000  0.4320440000000 1.0
C      1  0.5679560000000  0.4829810000000  0.5578410000000 1.0
C      1  0.4320440000000  0.4829810000000  0.4421590000000 1.0
C      1  0.4320440000000  0.5170190000000  0.5578410000000 1.0
C      1  0.4421590000000  0.4320440000000  0.4829810000000 1.0
C      1  0.5578410000000  0.4320440000000  0.5170190000000 1.0
C      1  0.5578410000000  0.5679560000000  0.4829810000000 1.0
C      1  0.5170190000000  0.5679560000000  0.4421590000000 1.0
C      1  0.5679560000000  0.4421590000000  0.5170190000000 1.0
C      1  0.4421590000000  0.5170190000000  0.5679560000000 1.0
C      1  0.5170190000000  0.4320440000000  0.5578410000000 1.0
C      1  0.4829810000000  0.5679560000000  0.5578410000000 1.0
C      1  0.4829810000000  0.4320440000000  0.4421590000000 1.0
C      1  0.5679560000000  0.5578410000000  0.4829810000000 1.0
C      1  0.4320440000000  0.4421590000000  0.4829810000000 1.0
C      1  0.4320440000000  0.5578410000000  0.5170190000000 1.0
C      1  0.4421590000000  0.4829810000000  0.4320440000000 1.0
C      1  0.5578410000000  0.5170190000000  0.4320440000000 1.0
C      1  0.5578410000000  0.4829810000000  0.5679560000000 1.0
C      1  0.5648520000000  0.4670190000000  0.4781250000000 1.0
C      1  0.4781250000000  0.5648520000000  0.4670190000000 1.0
C      1  0.4670190000000  0.4781250000000  0.5648520000000 1.0
C      1  0.5648520000000  0.5329810000000  0.5218750000000 1.0
C      1  0.4351480000000  0.5329810000000  0.4781250000000 1.0
C      1  0.4351480000000  0.4670190000000  0.5218750000000 1.0
C      1  0.4781250000000  0.4351480000000  0.5329810000000 1.0
C      1  0.5218750000000  0.4351480000000  0.4670190000000 1.0
C      1  0.5218750000000  0.5648520000000  0.5329810000000 1.0
C      1  0.4670190000000  0.5218750000000  0.4351480000000 1.0
C      1  0.5329810000000  0.5218750000000  0.5648520000000 1.0
C      1  0.5329810000000  0.4781250000000  0.4351480000000 1.0
C      1  0.5648520000000  0.4781250000000  0.4670190000000 1.0
C      1  0.4781250000000  0.4670190000000  0.5648520000000 1.0
C      1  0.4670190000000  0.5648520000000  0.4781250000000 1.0
C      1  0.5648520000000  0.5218750000000  0.5329810000000 1.0
C      1  0.4351480000000  0.4781250000000  0.5329810000000 1.0
C      1  0.4351480000000  0.5218750000000  0.4670190000000 1.0
C      1  0.4781250000000  0.5329810000000  0.4351480000000 1.0
C      1  0.5218750000000  0.4670190000000  0.4351480000000 1.0
C      1  0.5218750000000  0.5329810000000  0.5648520000000 1.0
C      1  0.4670190000000  0.4351480000000  0.5218750000000 1.0
C      1  0.5329810000000  0.5648520000000  0.5218750000000 1.0
C      1  0.5329810000000  0.4351480000000  0.4781250000000 1.0
C      1  0.5453560000000  0.4435750000000  0.5343220000000 1.0
C      1  0.5343220000000  0.5453560000000  0.4435750000000 1.0
C      1  0.4435750000000  0.5343220000000  0.5453560000000 1.0
C      1  0.5453560000000  0.5564250000000  0.4656780000000 1.0
C      1  0.4546440000000  0.5564250000000  0.5343220000000 1.0
C      1  0.4546440000000  0.4435750000000  0.4656780000000 1.0
C      1  0.5343220000000  0.4546440000000  0.5564250000000 1.0
C      1  0.4656780000000  0.4546440000000  0.4435750000000 1.0
C      1  0.4656780000000  0.5453560000000  0.5564250000000 1.0
C      1  0.4435750000000  0.4656780000000  0.4546440000000 1.0
C      1  0.5564250000000  0.4656780000000  0.5453560000000 1.0
C      1  0.5564250000000  0.5343220000000  0.4546440000000 1.0
C      1  0.5453560000000  0.5343220000000  0.4435750000000 1.0
C      1  0.5343220000000  0.4435750000000  0.5453560000000 1.0
C      1  0.4435750000000  0.5453560000000  0.5343220000000 1.0
C      1  0.5453560000000  0.4656780000000  0.5564250000000 1.0
C      1  0.4546440000000  0.5343220000000  0.5564250000000 1.0
C      1  0.4546440000000  0.4656780000000  0.4435750000000 1.0
C      1  0.5343220000000  0.5564250000000  0.4546440000000 1.0
C      1  0.4656780000000  0.4435750000000  0.4546440000000 1.0
C      1  0.4656780000000  0.5564250000000  0.5453560000000 1.0
C      1  0.4435750000000  0.4546440000000  0.4656780000000 1.0
C      1  0.5564250000000  0.5453560000000  0.4656780000000 1.0
C      1  0.5564250000000  0.4546440000000  0.5343220000000 1.0
C      1  0.5399650000000  0.5498060000000  0.5599290000000 1.0
C      1  0.5599290000000  0.5399650000000  0.5498060000000 1.0
C      1  0.5498060000000  0.5599290000000  0.5399650000000 1.0
C      1  0.5399650000000  0.4501940000000  0.4400710000000 1.0
C      1  0.4600350000000  0.4501940000000  0.5599290000000 1.0
C      1  0.4600350000000  0.5498060000000  0.4400710000000 1.0
C      1  0.5599290000000  0.4600350000000  0.4501940000000 1.0
C      1  0.4400710000000  0.4600350000000  0.5498060000000 1.0
C      1  0.4400710000000  0.5399650000000  0.4501940000000 1.0
C      1  0.5498060000000  0.4400710000000  0.4600350000000 1.0
C      1  0.4501940000000  0.4400710000000  0.5399650000000 1.0
C      1  0.4501940000000  0.5599290000000  0.4600350000000 1.0
C      1  0.5399650000000  0.5599290000000  0.5498060000000 1.0
C      1  0.5599290000000  0.5498060000000  0.5399650000000 1.0
C      1  0.5498060000000  0.5399650000000  0.5599290000000 1.0
C      1  0.5399650000000  0.4400710000000  0.4501940000000 1.0
C      1  0.4600350000000  0.5599290000000  0.4501940000000 1.0
C      1  0.4600350000000  0.4400710000000  0.5498060000000 1.0
C      1  0.5599290000000  0.4501940000000  0.4600350000000 1.0
C      1  0.4400710000000  0.5498060000000  0.4600350000000 1.0
C      1  0.4400710000000  0.4501940000000  0.5399650000000 1.0
C      1  0.5498060000000  0.4600350000000  0.4400710000000 1.0
C      1  0.4501940000000  0.5399650000000  0.4400710000000 1.0
C      1  0.4501940000000  0.4600350000000  0.5599290000000 1.0
C      1  0.4885640000000  0.4701370000000  0.4512490000000 1.0
C      1  0.4512490000000  0.4885640000000  0.4701370000000 1.0
C      1  0.4701370000000  0.4512490000000  0.4885640000000 1.0
C      1  0.4885640000000  0.5298630000000  0.5487510000000 1.0
C      1  0.5114360000000  0.5298630000000  0.4512490000000 1.0
C      1  0.5114360000000  0.4701370000000  0.5487510000000 1.0
C      1  0.4512490000000  0.5114360000000  0.5298630000000 1.0
C      1  0.5487510000000  0.5114360000000  0.4701370000000 1.0
C      1  0.5487510000000  0.4885640000000  0.5298630000000 1.0
C      1  0.4701370000000  0.5487510000000  0.5114360000000 1.0
C      1  0.5298630000000  0.5487510000000  0.4885640000000 1.0
C      1  0.5298630000000  0.4512490000000  0.5114360000000 1.0
C      1  0.4885640000000  0.4512490000000  0.4701370000000 1.0
C      1  0.4512490000000  0.4701370000000  0.4885640000000 1.0
C      1  0.4701370000000  0.4885640000000  0.4512490000000 1.0
C      1  0.4885640000000  0.5487510000000  0.5298630000000 1.0
C      1  0.5114360000000  0.4512490000000  0.5298630000000 1.0
C      1  0.5114360000000  0.5487510000000  0.4701370000000 1.0
C      1  0.4512490000000  0.5298630000000  0.5114360000000 1.0
C      1  0.5487510000000  0.4701370000000  0.5114360000000 1.0
C      1  0.5487510000000  0.5298630000000  0.4885640000000 1.0
C      1  0.4701370000000  0.5114360000000  0.5487510000000 1.0
C      1  0.5298630000000  0.4885640000000  0.5487510000000 1.0
C      1  0.5298630000000  0.5114360000000  0.4512490000000 1.0
C      1  0.5357970000000  0.4534260000000  0.5251850000000 1.0
C      1  0.5251850000000  0.5357970000000  0.4534260000000 1.0
C      1  0.4534260000000  0.5251850000000  0.5357970000000 1.0
C      1  0.5357970000000  0.5465740000000  0.4748150000000 1.0
C      1  0.4642030000000  0.5465740000000  0.5251850000000 1.0
C      1  0.4642030000000  0.4534260000000  0.4748150000000 1.0
C      1  0.5251850000000  0.4642030000000  0.5465740000000 1.0
C      1  0.4748150000000  0.4642030000000  0.4534260000000 1.0
C      1  0.4748150000000  0.5357970000000  0.5465740000000 1.0
C      1  0.4534260000000  0.4748150000000  0.4642030000000 1.0
C      1  0.5465740000000  0.4748150000000  0.5357970000000 1.0
C      1  0.5465740000000  0.5251850000000  0.4642030000000 1.0
C      1  0.5357970000000  0.5251850000000  0.4534260000000 1.0
C      1  0.5251850000000  0.4534260000000  0.5357970000000 1.0
C      1  0.4534260000000  0.5357970000000  0.5251850000000 1.0
C      1  0.5357970000000  0.4748150000000  0.5465740000000 1.0
C      1  0.4642030000000  0.5251850000000  0.5465740000000 1.0
C      1  0.4642030000000  0.4748150000000  0.4534260000000 1.0
C      1  0.5251850000000  0.5465740000000  0.4642030000000 1.0
C      1  0.4748150000000  0.4534260000000  0.4642030000000 1.0
C      1  0.4748150000000  0.5465740000000  0.5357970000000 1.0
C      1  0.4534260000000  0.4642030000000  0.4748150000000 1.0
C      1  0.5465740000000  0.5357970000000  0.4748150000000 1.0
C      1  0.5465740000000  0.4642030000000  0.5251850000000 1.0
C      1  0.4761340000000  0.4572560000000  0.5334570000000 1.0
C      1  0.5334570000000  0.4761340000000  0.4572560000000 1.0
C      1  0.4572560000000  0.5334570000000  0.4761340000000 1.0
C      1  0.4761340000000  0.5427440000000  0.4665430000000 1.0
C      1  0.5238660000000  0.5427440000000  0.5334570000000 1.0
C      1  0.5238660000000  0.4572560000000  0.4665430000000 1.0
C      1  0.5334570000000  0.5238660000000  0.5427440000000 1.0
C      1  0.4665430000000  0.5238660000000  0.4572560000000 1.0
C      1  0.4665430000000  0.4761340000000  0.5427440000000 1.0
C      1  0.4572560000000  0.4665430000000  0.5238660000000 1.0
C      1  0.5427440000000  0.4665430000000  0.4761340000000 1.0
C      1  0.5427440000000  0.5334570000000  0.5238660000000 1.0
C      1  0.4761340000000  0.5334570000000  0.4572560000000 1.0
C      1  0.5334570000000  0.4572560000000  0.4761340000000 1.0
C      1  0.4572560000000  0.4761340000000  0.5334570000000 1.0
C      1  0.4761340000000  0.4665430000000  0.5427440000000 1.0
C      1  0.5238660000000  0.5334570000000  0.5427440000000 1.0
C      1  0.5238660000000  0.4665430000000  0.4572560000000 1.0
C      1  0.5334570000000  0.5427440000000  0.5238660000000 1.0
C      1  0.4665430000000  0.4572560000000  0.5238660000000 1.0
C      1  0.4665430000000  0.5427440000000  0.4761340000000 1.0
C      1  0.4572560000000  0.5238660000000  0.4665430000000 1.0
C      1  0.5427440000000  0.4761340000000  0.4665430000000 1.0
C      1  0.5427440000000  0.5238660000000  0.5334570000000 1.0
C      1  0.5344770000000  0.5236450000000  0.4873070000000 1.0
C      1  0.4873070000000  0.5344770000000  0.5236450000000 1.0
C      1  0.5236450000000  0.4873070000000  0.5344770000000 1.0
C      1  0.5344770000000  0.4763550000000  0.5126930000000 1.0
C      1  0.4655230000000  0.4763550000000  0.4873070000000 1.0
C      1  0.4655230000000  0.5236450000000  0.5126930000000 1.0
C      1  0.4873070000000  0.4655230000000  0.4763550000000 1.0
C      1  0.5126930000000  0.4655230000000  0.5236450000000 1.0
C      1  0.5126930000000  0.5344770000000  0.4763550000000 1.0
C      1  0.5236450000000  0.5126930000000  0.4655230000000 1.0
C      1  0.4763550000000  0.5126930000000  0.5344770000000 1.0
C      1  0.4763550000000  0.4873070000000  0.4655230000000 1.0
C      1  0.5344770000000  0.4873070000000  0.5236450000000 1.0
C      1  0.4873070000000  0.5236450000000  0.5344770000000 1.0
C      1  0.5236450000000  0.5344770000000  0.4873070000000 1.0
C      1  0.5344770000000  0.5126930000000  0.4763550000000 1.0
C      1  0.4655230000000  0.4873070000000  0.4763550000000 1.0
C      1  0.4655230000000  0.5126930000000  0.5236450000000 1.0
C      1  0.4873070000000  0.4763550000000  0.4655230000000 1.0
C      1  0.5126930000000  0.5236450000000  0.4655230000000 1.0
C      1  0.5126930000000  0.4763550000000  0.5344770000000 1.0
C      1  0.5236450000000  0.4655230000000  0.5126930000000 1.0
C      1  0.4763550000000  0.5344770000000  0.5126930000000 1.0
C      1  0.4763550000000  0.4655230000000  0.4873070000000 1.0
C      1  0.5790390000000  0.5199280000000  0.4991350000000 1.0
C      1  0.4991350000000  0.5790390000000  0.5199280000000 1.0
C      1  0.5199280000000  0.4991350000000  0.5790390000000 1.0
C      1  0.5790390000000  0.4800720000000  0.5008650000000 1.0
C      1  0.4209610000000  0.4800720000000  0.4991350000000 1.0
C      1  0.4209610000000  0.5199280000000  0.5008650000000 1.0
C      1  0.4991350000000  0.4209610000000  0.4800720000000 1.0
C      1  0.5008650000000  0.4209610000000  0.5199280000000 1.0
C      1  0.5008650000000  0.5790390000000  0.4800720000000 1.0
C      1  0.5199280000000  0.5008650000000  0.4209610000000 1.0
C      1  0.4800720000000  0.5008650000000  0.5790390000000 1.0
C      1  0.4800720000000  0.4991350000000  0.4209610000000 1.0
C      1  0.5790390000000  0.4991350000000  0.5199280000000 1.0
C      1  0.4991350000000  0.5199280000000  0.5790390000000 1.0
C      1  0.5199280000000  0.5790390000000  0.4991350000000 1.0
C      1  0.5790390000000  0.5008650000000  0.4800720000000 1.0
C      1  0.4209610000000  0.4991350000000  0.4800720000000 1.0
C      1  0.4209610000000  0.5008650000000  0.5199280000000 1.0
C      1  0.4991350000000  0.4800720000000  0.4209610000000 1.0
C      1  0.5008650000000  0.5199280000000  0.4209610000000 1.0
C      1  0.5008650000000  0.4800720000000  0.5790390000000 1.0
C      1  0.5199280000000  0.4209610000000  0.5008650000000 1.0
C      1  0.4800720000000  0.5790390000000  0.5008650000000 1.0
C      1  0.4800720000000  0.4209610000000  0.4991350000000 1.0
C      1  0.5760390000000  0.5249170000000  0.4648870000000 1.0
C      1  0.4648870000000  0.5760390000000  0.5249170000000 1.0
C      1  0.5249170000000  0.4648870000000  0.5760390000000 1.0
C      1  0.5760390000000  0.4750830000000  0.5351130000000 1.0
C      1  0.4239610000000  0.4750830000000  0.4648870000000 1.0
C      1  0.4239610000000  0.5249170000000  0.5351130000000 1.0
C      1  0.4648870000000  0.4239610000000  0.4750830000000 1.0
C      1  0.5351130000000  0.4239610000000  0.5249170000000 1.0
C      1  0.5351130000000  0.5760390000000  0.4750830000000 1.0
C      1  0.5249170000000  0.5351130000000  0.4239610000000 1.0
C      1  0.4750830000000  0.5351130000000  0.5760390000000 1.0
C      1  0.4750830000000  0.4648870000000  0.4239610000000 1.0
C      1  0.5760390000000  0.4648870000000  0.5249170000000 1.0
C      1  0.4648870000000  0.5249170000000  0.5760390000000 1.0
C      1  0.5249170000000  0.5760390000000  0.4648870000000 1.0
C      1  0.5760390000000  0.5351130000000  0.4750830000000 1.0
C      1  0.4239610000000  0.4648870000000  0.4750830000000 1.0
C      1  0.4239610000000  0.5351130000000  0.5249170000000 1.0
C      1  0.4648870000000  0.4750830000000  0.4239610000000 1.0
C      1  0.5351130000000  0.5249170000000  0.4239610000000 1.0
C      1  0.5351130000000  0.4750830000000  0.5760390000000 1.0
C      1  0.5249170000000  0.4239610000000  0.5351130000000 1.0
C      1  0.4750830000000  0.5760390000000  0.5351130000000 1.0
C      1  0.4750830000000  0.4239610000000  0.4648870000000 1.0
C      1  0.5538260000000  0.5160630000000  0.4947010000000 1.0
C      1  0.4947010000000  0.5538260000000  0.5160630000000 1.0
C      1  0.5160630000000  0.4947010000000  0.5538260000000 1.0
C      1  0.5538260000000  0.4839370000000  0.5052990000000 1.0
C      1  0.4461740000000  0.4839370000000  0.4947010000000 1.0
C      1  0.4461740000000  0.5160630000000  0.5052990000000 1.0
C      1  0.4947010000000  0.4461740000000  0.4839370000000 1.0
C      1  0.5052990000000  0.4461740000000  0.5160630000000 1.0
C      1  0.5052990000000  0.5538260000000  0.4839370000000 1.0
C      1  0.5160630000000  0.5052990000000  0.4461740000000 1.0
C      1  0.4839370000000  0.5052990000000  0.5538260000000 1.0
C      1  0.4839370000000  0.4947010000000  0.4461740000000 1.0
C      1  0.5538260000000  0.4947010000000  0.5160630000000 1.0
C      1  0.4947010000000  0.5160630000000  0.5538260000000 1.0
C      1  0.5160630000000  0.5538260000000  0.4947010000000 1.0
C      1  0.5538260000000  0.5052990000000  0.4839370000000 1.0
C      1  0.4461740000000  0.4947010000000  0.4839370000000 1.0
C      1  0.4461740000000  0.5052990000000  0.5160630000000 1.0
C      1  0.4947010000000  0.4839370000000  0.4461740000000 1.0
C      1  0.5052990000000  0.5160630000000  0.4461740000000 1.0
C      1  0.5052990000000  0.4839370000000  0.5538260000000 1.0
C      1  0.5160630000000  0.4461740000000  0.5052990000000 1.0
C      1  0.4839370000000  0.5538260000000  0.5052990000000 1.0
C      1  0.4839370000000  0.4461740000000  0.4947010000000 1.0
C      1  0.5038520000000  0.4457510000000  0.5728580000000 1.0
C      1  0.5728580000000  0.5038520000000  0.4457510000000 1.0
C      1  0.4457510000000  0.5728580000000  0.5038520000000 1.0
C      1  0.5038520000000  0.5542490000000  0.4271420000000 1.0
C      1  0.4961480000000  0.5542490000000  0.5728580000000 1.0
C      1  0.4961480000000  0.4457510000000  0.4271420000000 1.0
C      1  0.5728580000000  0.4961480000000  0.5542490000000 1.0
C      1  0.4271420000000  0.4961480000000  0.4457510000000 1.0
C      1  0.4271420000000  0.5038520000000  0.5542490000000 1.0
C      1  0.4457510000000  0.4271420000000  0.4961480000000 1.0
C      1  0.5542490000000  0.4271420000000  0.5038520000000 1.0
C      1  0.5542490000000  0.5728580000000  0.4961480000000 1.0
C      1  0.5038520000000  0.5728580000000  0.4457510000000 1.0
C      1  0.5728580000000  0.4457510000000  0.5038520000000 1.0
C      1  0.4457510000000  0.5038520000000  0.5728580000000 1.0
C      1  0.5038520000000  0.4271420000000  0.5542490000000 1.0
C      1  0.4961480000000  0.5728580000000  0.5542490000000 1.0
C      1  0.4961480000000  0.4271420000000  0.4457510000000 1.0
C      1  0.5728580000000  0.5542490000000  0.4961480000000 1.0
C      1  0.4271420000000  0.4457510000000  0.4961480000000 1.0
C      1  0.4271420000000  0.5542490000000  0.5038520000000 1.0
C      1  0.4457510000000  0.4961480000000  0.4271420000000 1.0
C      1  0.5542490000000  0.5038520000000  0.4271420000000 1.0
C      1  0.5542490000000  0.4961480000000  0.5728580000000 1.0
C      1  0.4877510000000  0.4163010000000  0.5225210000000 1.0
C      1  0.5225210000000  0.4877510000000  0.4163010000000 1.0
C      1  0.4163010000000  0.5225210000000  0.4877510000000 1.0
C      1  0.4877510000000  0.5836990000000  0.4774790000000 1.0
C      1  0.5122490000000  0.5836990000000  0.5225210000000 1.0
C      1  0.5122490000000  0.4163010000000  0.4774790000000 1.0
C      1  0.5225210000000  0.5122490000000  0.5836990000000 1.0
C      1  0.4774790000000  0.5122490000000  0.4163010000000 1.0
C      1  0.4774790000000  0.4877510000000  0.5836990000000 1.0
C      1  0.4163010000000  0.4774790000000  0.5122490000000 1.0
C      1  0.5836990000000  0.4774790000000  0.4877510000000 1.0
C      1  0.5836990000000  0.5225210000000  0.5122490000000 1.0
C      1  0.4877510000000  0.5225210000000  0.4163010000000 1.0
C      1  0.5225210000000  0.4163010000000  0.4877510000000 1.0
C      1  0.4163010000000  0.4877510000000  0.5225210000000 1.0
C      1  0.4877510000000  0.4774790000000  0.5836990000000 1.0
C      1  0.5122490000000  0.5225210000000  0.5836990000000 1.0
C      1  0.5122490000000  0.4774790000000  0.4163010000000 1.0
C      1  0.5225210000000  0.5836990000000  0.5122490000000 1.0
C      1  0.4774790000000  0.4163010000000  0.5122490000000 1.0
C      1  0.4774790000000  0.5836990000000  0.4877510000000 1.0
C      1  0.4163010000000  0.5122490000000  0.4774790000000 1.0
C      1  0.5836990000000  0.4877510000000  0.4774790000000 1.0
C      1  0.5836990000000  0.5122490000000  0.5225210000000 1.0
C      1  0.5398800000000  0.5516980000000  0.5003850000000 1.0
C      1  0.5003850000000  0.5398800000000  0.5516980000000 1.0
C      1  0.5516980000000  0.5003850000000  0.5398800000000 1.0
C      1  0.5398800000000  0.4483020000000  0.4996150000000 1.0
C      1  0.4601200000000  0.4483020000000  0.5003850000000 1.0
C      1  0.4601200000000  0.5516980000000  0.4996150000000 1.0
C      1  0.5003850000000  0.4601200000000  0.4483020000000 1.0
C      1  0.4996150000000  0.4601200000000  0.5516980000000 1.0
C      1  0.4996150000000  0.5398800000000  0.4483020000000 1.0
C      1  0.5516980000000  0.4996150000000  0.4601200000000 1.0
C      1  0.4483020000000  0.4996150000000  0.5398800000000 1.0
C      1  0.4483020000000  0.5003850000000  0.4601200000000 1.0
C      1  0.5398800000000  0.5003850000000  0.5516980000000 1.0
C      1  0.5003850000000  0.5516980000000  0.5398800000000 1.0
C      1  0.5516980000000  0.5398800000000  0.5003850000000 1.0
C      1  0.5398800000000  0.4996150000000  0.4483020000000 1.0
C      1  0.4601200000000  0.5003850000000  0.4483020000000 1.0
C      1  0.4601200000000  0.4996150000000  0.5516980000000 1.0
C      1  0.5003850000000  0.4483020000000  0.4601200000000 1.0
C      1  0.4996150000000  0.5516980000000  0.4601200000000 1.0
C      1  0.4996150000000  0.4483020000000  0.5398800000000 1.0
C      1  0.5516980000000  0.4601200000000  0.4996150000000 1.0
C      1  0.4483020000000  0.5398800000000  0.4996150000000 1.0
C      1  0.4483020000000  0.4601200000000  0.5003850000000 1.0
C      1  0.4721920000000  0.5666180000000  0.4531040000000 1.0
C      1  0.4531040000000  0.4721920000000  0.5666180000000 1.0
C      1  0.5666180000000  0.4531040000000  0.4721920000000 1.0
C      1  0.4721920000000  0.4333820000000  0.5468960000000 1.0
C      1  0.5278080000000  0.4333820000000  0.4531040000000 1.0
C      1  0.5278080000000  0.5666180000000  0.5468960000000 1.0
C      1  0.4531040000000  0.5278080000000  0.4333820000000 1.0
C      1  0.5468960000000  0.5278080000000  0.5666180000000 1.0
C      1  0.5468960000000  0.4721920000000  0.4333820000000 1.0
C      1  0.5666180000000  0.5468960000000  0.5278080000000 1.0
C      1  0.4333820000000  0.5468960000000  0.4721920000000 1.0
C      1  0.4333820000000  0.4531040000000  0.5278080000000 1.0
C      1  0.4721920000000  0.4531040000000  0.5666180000000 1.0
C      1  0.4531040000000  0.5666180000000  0.4721920000000 1.0
C      1  0.5666180000000  0.4721920000000  0.4531040000000 1.0
C      1  0.4721920000000  0.5468960000000  0.4333820000000 1.0
C      1  0.5278080000000  0.4531040000000  0.4333820000000 1.0
C      1  0.5278080000000  0.5468960000000  0.5666180000000 1.0
C      1  0.4531040000000  0.4333820000000  0.5278080000000 1.0
C      1  0.5468960000000  0.5666180000000  0.5278080000000 1.0
C      1  0.5468960000000  0.4333820000000  0.4721920000000 1.0
C      1  0.5666180000000  0.5278080000000  0.5468960000000 1.0
C      1  0.4333820000000  0.4721920000000  0.5468960000000 1.0
C      1  0.4333820000000  0.5278080000000  0.4531040000000 1.0
C      1  0.5730970000000  0.5071720000000  0.5627640000000 1.0
C      1  0.5627640000000  0.5730970000000  0.5071720000000 1.0
C      1  0.5071720000000  0.5627640000000  0.5730970000000 1.0
C      1  0.5730970000000  0.4928280000000  0.4372360000000 1.0
C      1  0.4269030000000  0.4928280000000  0.5627640000000 1.0
C      1  0.4269030000000  0.5071720000000  0.4372360000000 1.0
C      1  0.5627640000000  0.4269030000000  0.4928280000000 1.0
C      1  0.4372360000000  0.4269030000000  0.5071720000000 1.0
C      1  0.4372360000000  0.5730970000000  0.4928280000000 1.0
C      1  0.5071720000000  0.4372360000000  0.4269030000000 1.0
C      1  0.4928280000000  0.4372360000000  0.5730970000000 1.0
C      1  0.4928280000000  0.5627640000000  0.4269030000000 1.0
C      1  0.5730970000000  0.5627640000000  0.5071720000000 1.0
C      1  0.5627640000000  0.5071720000000  0.5730970000000 1.0
C      1  0.5071720000000  0.5730970000000  0.5627640000000 1.0
C      1  0.5730970000000  0.4372360000000  0.4928280000000 1.0
C      1  0.4269030000000  0.5627640000000  0.4928280000000 1.0
C      1  0.4269030000000  0.4372360000000  0.5071720000000 1.0
C      1  0.5627640000000  0.4928280000000  0.4269030000000 1.0
C      1  0.4372360000000  0.5071720000000  0.4269030000000 1.0
C      1  0.4372360000000  0.4928280000000  0.5730970000000 1.0
C      1  0.5071720000000  0.4269030000000  0.4372360000000 1.0
C      1  0.4928280000000  0.5730970000000  0.4372360000000 1.0
C      1  0.4928280000000  0.4269030000000  0.5627640000000 1.0
C      1  0.4311920000000  0.5204240000000  0.4414580000000 1.0
C      1  0.4414580000000  0.4311920000000  0.5204240000000 1.0
C      1  0.5204240000000  0.4414580000000  0.4311920000000 1.0
C      1  0.4311920000000  0.4795760000000  0.5585420000000 1.0
C      1  0.5688080000000  0.4795760000000  0.4414580000000 1.0
C      1  0.5688080000000  0.5204240000000  0.5585420000000 1.0
C      1  0.4414580000000  0.5688080000000  0.4795760000000 1.0
C      1  0.5585420000000  0.5688080000000  0.5204240000000 1.0
C      1  0.5585420000000  0.4311920000000  0.4795760000000 1.0
C      1  0.5204240000000  0.5585420000000  0.5688080000000 1.0
C      1  0.4795760000000  0.5585420000000  0.4311920000000 1.0
C      1  0.4795760000000  0.4414580000000  0.5688080000000 1.0
C      1  0.4311920000000  0.4414580000000  0.5204240000000 1.0
C      1  0.4414580000000  0.5204240000000  0.4311920000000 1.0
C      1  0.5204240000000  0.4311920000000  0.4414580000000 1.0
C      1  0.4311920000000  0.5585420000000  0.4795760000000 1.0
C      1  0.5688080000000  0.4414580000000  0.4795760000000 1.0
C      1  0.5688080000000  0.5585420000000  0.5204240000000 1.0
C      1  0.4414580000000  0.4795760000000  0.5688080000000 1.0
C      1  0.5585420000000  0.5204240000000  0.5688080000000 1.0
C      1  0.5585420000000  0.4795760000000  0.4311920000000 1.0
C      1  0.5204240000000  0.5688080000000  0.5585420000000 1.0
C      1  0.4795760000000  0.4311920000000  0.5585420000000 1.0
C      1  0.4795760000000  0.5688080000000  0.4414580000000 1.0
C      1  0.5013110000000  0.4324520000000  0.4578310000000 1.0
C      1  0.4578310000000  0.5013110000000  0.4324520000000 1.0
C      1  0.4324520000000  0.4578310000000  0.5013110000000 1.0
C      1  0.5013110000000  0.5675480000000  0.5421690000000 1.0
C      1  0.4986890000000  0.5675480000000  0.4578310000000 1.0
C      1  0.4986890000000  0.4324520000000  0.5421690000000 1.0
C      1  0.4578310000000  0.4986890000000  0.5675480000000 1.0
C      1  0.5421690000000  0.4986890000000  0.4324520000000 1.0
C      1  0.5421690000000  0.5013110000000  0.5675480000000 1.0
C      1  0.4324520000000  0.5421690000000  0.4986890000000 1.0
C      1  0.5675480000000  0.5421690000000  0.5013110000000 1.0
C      1  0.5675480000000  0.4578310000000  0.4986890000000 1.0
C      1  0.5013110000000  0.4578310000000  0.4324520000000 1.0
C      1  0.4578310000000  0.4324520000000  0.5013110000000 1.0
C      1  0.4324520000000  0.5013110000000  0.4578310000000 1.0
C      1  0.5013110000000  0.5421690000000  0.5675480000000 1.0
C      1  0.4986890000000  0.4578310000000  0.5675480000000 1.0
C      1  0.4986890000000  0.5421690000000  0.4324520000000 1.0
C      1  0.4578310000000  0.5675480000000  0.4986890000000 1.0
C      1  0.5421690000000  0.4324520000000  0.4986890000000 1.0
C      1  0.5421690000000  0.5675480000000  0.5013110000000 1.0
C      1  0.4324520000000  0.4986890000000  0.5421690000000 1.0
C      1  0.5675480000000  0.5013110000000  0.5421690000000 1.0
C      1  0.5675480000000  0.4986890000000  0.4578310000000 1.0
END
