TITL C-1379265-1223-276 1.0939279572199e-07 1000000 -2421.85449698742 0 0 340 (C1) n - 1
REM
REM in /nfs/bkarasulu/CARBON/AIRSS/Generating-Clusters/GAP-ML-2020/Higher-Symm/Selected-Sizes/TryA-Only_Ih-Symm/Larger-Clusters/Try2-MINAMP_6A
REM
REM
REM
REM
REM
REM ./C.cell (31579ac4e95a012ec27f3239692ae8a5)
REM
REM compiler GCC version 9.2.1 20190827 (Red Hat 9.2.1-1)
REM options -cpp -mtune=generic -march=x86-64 -g -O0 -fpre-include=/usr/include/finclude/math-vector-fortran.h
REM seed 1021847458 221024393 1686193240 638207764 -1538140072 -1222273001 887090898 872810464 -1588933524 -712904911 -1914597436 -459377578 -611164834 2062939650 -1290325666 -350360996 508857395 226314936 1415477145 1014879367 890283533 1560172416 -1833662075 -240547685 928820446 1703383368 1290399209 -479554407 1127777411 -1422973846 -1948793082 1237941653 -2038710764
REM
CELL 1.54180  100.00000  100.00000  100.00000   90.00000   90.00000   90.00000
LATT -1
SFAC C  
C      1  0.4455470000000  0.5326780000000  0.5602010000000 1.0
C      1  0.5630160000000  0.4315110000000  0.5334620000000 1.0
C      1  0.5356500000000  0.5615980000000  0.4467870000000 1.0
C      1  0.5626450000000  0.5373920000000  0.4341060000000 1.0
C      1  0.4486720000000  0.4620340000000  0.4397740000000 1.0
C      1  0.5532820000000  0.4645630000000  0.5623420000000 1.0
C      1  0.4372930000000  0.4318950000000  0.4649580000000 1.0
C      1  0.5628410000000  0.5523730000000  0.4692650000000 1.0
C      1  0.4398260000000  0.5514390000000  0.5383220000000 1.0
C      1  0.4651860000000  0.5626990000000  0.5682930000000 1.0
C      1  0.5307610000000  0.4379530000000  0.5534050000000 1.0
C      1  0.4671820000000  0.4398680000000  0.4451350000000 1.0
C      1  0.5602680000000  0.5327880000000  0.4454440000000 1.0
C      1  0.5340340000000  0.4311650000000  0.5633680000000 1.0
C      1  0.4468220000000  0.5616760000000  0.5358100000000 1.0
C      1  0.4341890000000  0.5372210000000  0.5625910000000 1.0
C      1  0.4384920000000  0.4645530000000  0.4468480000000 1.0
C      1  0.5621840000000  0.4644920000000  0.5532480000000 1.0
C      1  0.4625100000000  0.4375630000000  0.4338120000000 1.0
C      1  0.4693410000000  0.5522920000000  0.5629170000000 1.0
C      1  0.5381790000000  0.5513840000000  0.4397700000000 1.0
C      1  0.5681450000000  0.5628220000000  0.4651160000000 1.0
C      1  0.5529090000000  0.4381650000000  0.5304040000000 1.0
C      1  0.4477740000000  0.4371770000000  0.4690590000000 1.0
C      1  0.4791230000000  0.5308740000000  0.4371550000000 1.0
C      1  0.4362580000000  0.4788720000000  0.5304760000000 1.0
C      1  0.5297450000000  0.4386890000000  0.4793380000000 1.0
C      1  0.5216720000000  0.5320560000000  0.5655010000000 1.0
C      1  0.4798010000000  0.4703500000000  0.5612460000000 1.0
C      1  0.5212580000000  0.4690340000000  0.4351710000000 1.0
C      1  0.5601300000000  0.4803870000000  0.4700820000000 1.0
C      1  0.4358930000000  0.5216240000000  0.4693200000000 1.0
C      1  0.5656060000000  0.5221490000000  0.5317150000000 1.0
C      1  0.4689000000000  0.4350130000000  0.5213870000000 1.0
C      1  0.5304270000000  0.5628020000000  0.5204980000000 1.0
C      1  0.4686950000000  0.5651770000000  0.4786350000000 1.0
C      1  0.4363320000000  0.5314360000000  0.4792840000000 1.0
C      1  0.5311880000000  0.4790050000000  0.4353070000000 1.0
C      1  0.4788290000000  0.4351560000000  0.5313460000000 1.0
C      1  0.5655580000000  0.5320490000000  0.5216920000000 1.0
C      1  0.5610060000000  0.4705070000000  0.4798610000000 1.0
C      1  0.4368350000000  0.4690820000000  0.5204740000000 1.0
C      1  0.4700400000000  0.4802360000000  0.5600730000000 1.0
C      1  0.4692280000000  0.5210150000000  0.4372110000000 1.0
C      1  0.5317050000000  0.5221780000000  0.5656800000000 1.0
C      1  0.5199000000000  0.4395180000000  0.4695160000000 1.0
C      1  0.5205740000000  0.5628160000000  0.5303510000000 1.0
C      1  0.4785730000000  0.5650890000000  0.4686960000000 1.0
C      1  0.5464470000000  0.4436420000000  0.4628300000000 1.0
C      1  0.4626060000000  0.5475860000000  0.4429310000000 1.0
C      1  0.4425730000000  0.4624290000000  0.5467210000000 1.0
C      1  0.4523790000000  0.4420210000000  0.5376500000000 1.0
C      1  0.5471160000000  0.5575400000000  0.5371290000000 1.0
C      1  0.4521880000000  0.5583650000000  0.4623240000000 1.0
C      1  0.5379040000000  0.5482740000000  0.5577810000000 1.0
C      1  0.4631570000000  0.4535010000000  0.5564720000000 1.0
C      1  0.5376890000000  0.4526780000000  0.4418790000000 1.0
C      1  0.5565800000000  0.4636610000000  0.4530510000000 1.0
C      1  0.4424100000000  0.5380760000000  0.4529380000000 1.0
C      1  0.5580890000000  0.5385330000000  0.5480600000000 1.0
C      1  0.4624090000000  0.4424960000000  0.5475150000000 1.0
C      1  0.4423930000000  0.5481070000000  0.4627820000000 1.0
C      1  0.5475990000000  0.4626800000000  0.4420580000000 1.0
C      1  0.5367250000000  0.4434650000000  0.4526610000000 1.0
C      1  0.5371610000000  0.5575510000000  0.5470670000000 1.0
C      1  0.4621280000000  0.5581560000000  0.4524030000000 1.0
C      1  0.5578250000000  0.5482620000000  0.5379210000000 1.0
C      1  0.5563280000000  0.4538450000000  0.4631290000000 1.0
C      1  0.4425920000000  0.4522950000000  0.5369660000000 1.0
C      1  0.4532320000000  0.4634430000000  0.5560500000000 1.0
C      1  0.4526780000000  0.5376250000000  0.4431350000000 1.0
C      1  0.5480390000000  0.5385440000000  0.5580920000000 1.0
C      1  0.5255800000000  0.5455760000000  0.5646050000000 1.0
C      1  0.5646800000000  0.5260370000000  0.5453310000000 1.0
C      1  0.5439980000000  0.5629200000000  0.5241330000000 1.0
C      1  0.4754390000000  0.5444570000000  0.4372030000000 1.0
C      1  0.5252630000000  0.4554470000000  0.4351750000000 1.0
C      1  0.4760860000000  0.4568250000000  0.5618630000000 1.0
C      1  0.4359140000000  0.5256230000000  0.4558200000000 1.0
C      1  0.5612360000000  0.4768780000000  0.4564900000000 1.0
C      1  0.4358690000000  0.4747570000000  0.5439500000000 1.0
C      1  0.4551130000000  0.5648930000000  0.4747910000000 1.0
C      1  0.5432090000000  0.4377440000000  0.4755340000000 1.0
C      1  0.4553150000000  0.4353790000000  0.5252530000000 1.0
C      1  0.5646970000000  0.5455650000000  0.5256270000000 1.0
C      1  0.5453120000000  0.5260750000000  0.5647300000000 1.0
C      1  0.5241940000000  0.5629630000000  0.5439230000000 1.0
C      1  0.4366530000000  0.5450710000000  0.4756690000000 1.0
C      1  0.4371160000000  0.4554000000000  0.5239300000000 1.0
C      1  0.5618370000000  0.4570450000000  0.4760520000000 1.0
C      1  0.4556680000000  0.5247630000000  0.4373880000000 1.0
C      1  0.4564710000000  0.4766780000000  0.5607740000000 1.0
C      1  0.5448200000000  0.4751350000000  0.4354310000000 1.0
C      1  0.4746250000000  0.5646970000000  0.4551480000000 1.0
C      1  0.4748830000000  0.4358310000000  0.5448960000000 1.0
C      1  0.5234960000000  0.4386720000000  0.4559300000000 1.0
C      1  0.4975710000000  0.5234100000000  0.5699360000000 1.0
C      1  0.5709660000000  0.4982340000000  0.5232570000000 1.0
C      1  0.5224910000000  0.5696210000000  0.4970780000000 1.0
C      1  0.5026360000000  0.5228970000000  0.4303430000000 1.0
C      1  0.4974170000000  0.4772320000000  0.4304150000000 1.0
C      1  0.5031580000000  0.4779190000000  0.5688810000000 1.0
C      1  0.4298360000000  0.4979810000000  0.4772360000000 1.0
C      1  0.5684380000000  0.5028620000000  0.4775270000000 1.0
C      1  0.4308970000000  0.5027170000000  0.5228320000000 1.0
C      1  0.4769780000000  0.5707230000000  0.5022490000000 1.0
C      1  0.5227610000000  0.4314170000000  0.5026930000000 1.0
C      1  0.4771780000000  0.4304320000000  0.4973780000000 1.0
C      1  0.5699360000000  0.5233790000000  0.4975670000000 1.0
C      1  0.5232430000000  0.4983110000000  0.5712170000000 1.0
C      1  0.4971730000000  0.5696520000000  0.5224620000000 1.0
C      1  0.4301920000000  0.5231010000000  0.5027860000000 1.0
C      1  0.4304400000000  0.4774880000000  0.4971890000000 1.0
C      1  0.5683140000000  0.4778980000000  0.5031700000000 1.0
C      1  0.4772190000000  0.4975330000000  0.4303720000000 1.0
C      1  0.4775320000000  0.5027980000000  0.5684650000000 1.0
C      1  0.5228910000000  0.5027080000000  0.4305430000000 1.0
C      1  0.5021920000000  0.5706050000000  0.4769340000000 1.0
C      1  0.5026990000000  0.4302470000000  0.5229840000000 1.0
C      1  0.4974010000000  0.4313420000000  0.4771830000000 1.0
C      1  0.5345940000000  0.5452040000000  0.4929180000000 1.0
C      1  0.4931690000000  0.5356540000000  0.5450230000000 1.0
C      1  0.5470060000000  0.4939200000000  0.5371530000000 1.0
C      1  0.4644390000000  0.5458950000000  0.5069470000000 1.0
C      1  0.5334770000000  0.4565890000000  0.5084220000000 1.0
C      1  0.4646030000000  0.4549970000000  0.4928020000000 1.0
C      1  0.5074610000000  0.5350310000000  0.4550090000000 1.0
C      1  0.4938080000000  0.4648860000000  0.4549890000000 1.0
C      1  0.5076280000000  0.4660640000000  0.5444950000000 1.0
C      1  0.4547740000000  0.4930660000000  0.4648810000000 1.0
C      1  0.5424010000000  0.5109780000000  0.4678440000000 1.0
C      1  0.4557190000000  0.5064680000000  0.5346210000000 1.0
C      1  0.4929780000000  0.5451990000000  0.5346030000000 1.0
C      1  0.5450690000000  0.5357200000000  0.4931360000000 1.0
C      1  0.5370600000000  0.4939160000000  0.5471950000000 1.0
C      1  0.5068850000000  0.5456000000000  0.4645000000000 1.0
C      1  0.5074280000000  0.4553370000000  0.5352560000000 1.0
C      1  0.4893100000000  0.4573840000000  0.4673390000000 1.0
C      1  0.4548280000000  0.5354610000000  0.5074030000000 1.0
C      1  0.4548110000000  0.4651350000000  0.4929010000000 1.0
C      1  0.5433990000000  0.4666880000000  0.5079980000000 1.0
C      1  0.4651780000000  0.4926050000000  0.4551810000000 1.0
C      1  0.4679930000000  0.5109390000000  0.5422860000000 1.0
C      1  0.5350770000000  0.5063550000000  0.4553910000000 1.0
C      1  0.5422040000000  0.4916900000000  0.5021000000000 1.0
C      1  0.4988030000000  0.5434600000000  0.4887210000000 1.0
C      1  0.4922150000000  0.5017970000000  0.5421240000000 1.0
C      1  0.4573040000000  0.4901200000000  0.4997290000000 1.0
C      1  0.5429760000000  0.5123850000000  0.5027140000000 1.0
C      1  0.4571880000000  0.5107890000000  0.4997170000000 1.0
C      1  0.4992450000000  0.5429990000000  0.5093850000000 1.0
C      1  0.4984820000000  0.4574840000000  0.5117790000000 1.0
C      1  0.4985350000000  0.4581360000000  0.4912630000000 1.0
C      1  0.5107390000000  0.4994980000000  0.4574740000000 1.0
C      1  0.4900980000000  0.4998320000000  0.4571880000000 1.0
C      1  0.5127080000000  0.5018920000000  0.5434970000000 1.0
C      1  0.5021480000000  0.4914140000000  0.5425190000000 1.0
C      1  0.4886850000000  0.5434930000000  0.4988630000000 1.0
C      1  0.5420170000000  0.5020580000000  0.4921810000000 1.0
C      1  0.5005850000000  0.4893160000000  0.4574280000000 1.0
C      1  0.5026720000000  0.5121840000000  0.5430630000000 1.0
C      1  0.5002550000000  0.5100120000000  0.4572070000000 1.0
C      1  0.5093640000000  0.5429730000000  0.4992430000000 1.0
C      1  0.5088940000000  0.4579600000000  0.5011510000000 1.0
C      1  0.4881570000000  0.4575860000000  0.5017960000000 1.0
C      1  0.4576600000000  0.5000880000000  0.5100460000000 1.0
C      1  0.4569560000000  0.5008190000000  0.4893880000000 1.0
C      1  0.5432220000000  0.5020690000000  0.5127490000000 1.0
C      1  0.4782150000000  0.5005300000000  0.5450020000000 1.0
C      1  0.5451880000000  0.4779270000000  0.4989980000000 1.0
C      1  0.4968730000000  0.5477640000000  0.4749510000000 1.0
C      1  0.5246160000000  0.4967850000000  0.4532910000000 1.0
C      1  0.4763000000000  0.5019190000000  0.4533970000000 1.0
C      1  0.5262140000000  0.5037530000000  0.5485510000000 1.0
C      1  0.4534730000000  0.4763520000000  0.5020150000000 1.0
C      1  0.5476950000000  0.5259900000000  0.5039340000000 1.0
C      1  0.4531080000000  0.5245380000000  0.4979010000000 1.0
C      1  0.5017880000000  0.5465580000000  0.5231860000000 1.0
C      1  0.4969550000000  0.4527510000000  0.5253470000000 1.0
C      1  0.4997960000000  0.4548110000000  0.4774380000000 1.0
C      1  0.5449700000000  0.5006820000000  0.4781970000000 1.0
C      1  0.4990070000000  0.4776980000000  0.5457130000000 1.0
C      1  0.4749330000000  0.5478860000000  0.4969570000000 1.0
C      1  0.4537450000000  0.4971060000000  0.5239640000000 1.0
C      1  0.4527790000000  0.5029090000000  0.4755970000000 1.0
C      1  0.5483270000000  0.5037940000000  0.5262800000000 1.0
C      1  0.5033670000000  0.4754320000000  0.4531100000000 1.0
C      1  0.5038960000000  0.5258470000000  0.5476550000000 1.0
C      1  0.4982040000000  0.5238200000000  0.4533620000000 1.0
C      1  0.5231740000000  0.5465390000000  0.5017390000000 1.0
C      1  0.5226190000000  0.4544610000000  0.4988280000000 1.0
C      1  0.4745990000000  0.4528050000000  0.5033640000000 1.0
C      1  0.4479290000000  0.4700010000000  0.4592430000000 1.0
C      1  0.4577820000000  0.4479630000000  0.4694470000000 1.0
C      1  0.4708880000000  0.4620940000000  0.4536630000000 1.0
C      1  0.5528510000000  0.4710010000000  0.5422520000000 1.0
C      1  0.4540230000000  0.5292880000000  0.5378790000000 1.0
C      1  0.5526220000000  0.5310030000000  0.4576540000000 1.0
C      1  0.5422840000000  0.4477670000000  0.5304580000000 1.0
C      1  0.4592290000000  0.5523760000000  0.5301900000000 1.0
C      1  0.5392340000000  0.5496380000000  0.4702800000000 1.0
C      1  0.5305660000000  0.4620770000000  0.5476700000000 1.0
C      1  0.4696950000000  0.5423800000000  0.5520460000000 1.0
C      1  0.5302750000000  0.5408510000000  0.4491180000000 1.0
C      1  0.4592670000000  0.4698340000000  0.4491200000000 1.0
C      1  0.4691190000000  0.4473760000000  0.4574040000000 1.0
C      1  0.4504330000000  0.4607550000000  0.4702350000000 1.0
C      1  0.5421340000000  0.4709930000000  0.5530930000000 1.0
C      1  0.5379250000000  0.5292430000000  0.4538470000000 1.0
C      1  0.4577690000000  0.5309740000000  0.5525690000000 1.0
C      1  0.5302630000000  0.4475120000000  0.5427710000000 1.0
C      1  0.5300990000000  0.5522220000000  0.4591890000000 1.0
C      1  0.4703540000000  0.5497260000000  0.5392750000000 1.0
C      1  0.5471560000000  0.4622930000000  0.5308060000000 1.0
C      1  0.5520430000000  0.5423720000000  0.4696180000000 1.0
C      1  0.4491960000000  0.5409500000000  0.5303430000000 1.0
C      1  0.5748460000000  0.4900800000000  0.5002810000000 1.0
C      1  0.4999360000000  0.5763930000000  0.4895520000000 1.0
C      1  0.4897940000000  0.5004010000000  0.5748230000000 1.0
C      1  0.4244520000000  0.4899860000000  0.4999200000000 1.0
C      1  0.5755890000000  0.5106340000000  0.4997980000000 1.0
C      1  0.4243640000000  0.5105200000000  0.5003580000000 1.0
C      1  0.4997670000000  0.5758750000000  0.5100790000000 1.0
C      1  0.5002810000000  0.4247240000000  0.5101670000000 1.0
C      1  0.5000570000000  0.4252750000000  0.4895860000000 1.0
C      1  0.5103280000000  0.5001820000000  0.4245630000000 1.0
C      1  0.4897820000000  0.4999850000000  0.4244760000000 1.0
C      1  0.5102630000000  0.5004990000000  0.5762210000000 1.0
C      1  0.5002890000000  0.4901870000000  0.5752090000000 1.0
C      1  0.4896090000000  0.5764360000000  0.4999230000000 1.0
C      1  0.5746830000000  0.5003280000000  0.4898080000000 1.0
C      1  0.4999540000000  0.4898290000000  0.4245360000000 1.0
C      1  0.4997680000000  0.5107170000000  0.5756850000000 1.0
C      1  0.5001630000000  0.5103430000000  0.4244720000000 1.0
C      1  0.5101180000000  0.5758480000000  0.4996870000000 1.0
C      1  0.5104130000000  0.4251890000000  0.4999860000000 1.0
C      1  0.4899140000000  0.4248200000000  0.4997500000000 1.0
C      1  0.4246930000000  0.5002500000000  0.5103940000000 1.0
C      1  0.4241040000000  0.5002840000000  0.4898840000000 1.0
C      1  0.5759530000000  0.5003790000000  0.5102640000000 1.0
C      1  0.4449390000000  0.5650490000000  0.4844130000000 1.0
C      1  0.4858680000000  0.4464840000000  0.5622660000000 1.0
C      1  0.5611470000000  0.4869040000000  0.4463170000000 1.0
C      1  0.5543690000000  0.5629450000000  0.5143730000000 1.0
C      1  0.4451150000000  0.4351780000000  0.5156860000000 1.0
C      1  0.5532800000000  0.4375450000000  0.4853910000000 1.0
C      1  0.5159170000000  0.4450390000000  0.4348040000000 1.0
C      1  0.4853100000000  0.5546690000000  0.4371820000000 1.0
C      1  0.5161080000000  0.5558530000000  0.5645980000000 1.0
C      1  0.4352700000000  0.4840100000000  0.5544480000000 1.0
C      1  0.5647010000000  0.5166110000000  0.5557570000000 1.0
C      1  0.4356050000000  0.5160940000000  0.4455420000000 1.0
C      1  0.4841340000000  0.5647110000000  0.4448790000000 1.0
C      1  0.5619080000000  0.4468440000000  0.4859010000000 1.0
C      1  0.4461830000000  0.4865930000000  0.5605070000000 1.0
C      1  0.5144020000000  0.5630380000000  0.5542630000000 1.0
C      1  0.5135210000000  0.4389140000000  0.4457250000000 1.0
C      1  0.4843240000000  0.4360200000000  0.5552120000000 1.0
C      1  0.4374320000000  0.4451700000000  0.5140290000000 1.0
C      1  0.4369280000000  0.5552440000000  0.4855400000000 1.0
C      1  0.5647670000000  0.5558730000000  0.5161890000000 1.0
C      1  0.5551620000000  0.4845640000000  0.4353080000000 1.0
C      1  0.5557400000000  0.5166530000000  0.5647850000000 1.0
C      1  0.4454180000000  0.5149450000000  0.4375570000000 1.0
C      1  0.5255210000000  0.5657920000000  0.4836890000000 1.0
C      1  0.4843570000000  0.5261810000000  0.5652370000000 1.0
C      1  0.5665300000000  0.4849970000000  0.5266070000000 1.0
C      1  0.4738870000000  0.5664400000000  0.5155800000000 1.0
C      1  0.5257690000000  0.4351180000000  0.5161030000000 1.0
C      1  0.4741490000000  0.4347910000000  0.4840950000000 1.0
C      1  0.5159520000000  0.5260640000000  0.4343900000000 1.0
C      1  0.4840500000000  0.4742140000000  0.4346750000000 1.0
C      1  0.5166700000000  0.4750970000000  0.5651980000000 1.0
C      1  0.4339570000000  0.4846300000000  0.4740070000000 1.0
C      1  0.5658470000000  0.5164100000000  0.4741360000000 1.0
C      1  0.4350290000000  0.5160770000000  0.5259210000000 1.0
C      1  0.4837930000000  0.5658590000000  0.5255590000000 1.0
C      1  0.5652740000000  0.5262070000000  0.4843380000000 1.0
C      1  0.5265850000000  0.4850510000000  0.5668360000000 1.0
C      1  0.5154970000000  0.5662740000000  0.4738240000000 1.0
C      1  0.5159310000000  0.4347010000000  0.5260740000000 1.0
C      1  0.4838490000000  0.4340320000000  0.4738250000000 1.0
C      1  0.4344120000000  0.5261910000000  0.5160570000000 1.0
C      1  0.4343100000000  0.4745080000000  0.4837800000000 1.0
C      1  0.5646220000000  0.4751210000000  0.5166710000000 1.0
C      1  0.4740470000000  0.4842210000000  0.4344120000000 1.0
C      1  0.4742010000000  0.5163430000000  0.5657640000000 1.0
C      1  0.5259220000000  0.5160420000000  0.4348560000000 1.0
C      1  0.4818490000000  0.4442650000000  0.4643620000000 1.0
C      1  0.4642850000000  0.4829890000000  0.4448180000000 1.0
C      1  0.4452760000000  0.4649950000000  0.4824340000000 1.0
C      1  0.5173390000000  0.4453980000000  0.5356680000000 1.0
C      1  0.4825210000000  0.5548250000000  0.5349590000000 1.0
C      1  0.5166560000000  0.5558360000000  0.4640890000000 1.0
C      1  0.5370870000000  0.4840500000000  0.5572120000000 1.0
C      1  0.4648180000000  0.5182730000000  0.5554830000000 1.0
C      1  0.5348270000000  0.5168920000000  0.4460800000000 1.0
C      1  0.5531770000000  0.4664290000000  0.5182300000000 1.0
C      1  0.4446900000000  0.5360710000000  0.5172190000000 1.0
C      1  0.5544490000000  0.5354440000000  0.4828490000000 1.0
C      1  0.4648640000000  0.4455630000000  0.4825820000000 1.0
C      1  0.4444150000000  0.4834330000000  0.4642970000000 1.0
C      1  0.4832020000000  0.4652130000000  0.4457870000000 1.0
C      1  0.5348040000000  0.4461250000000  0.5177940000000 1.0
C      1  0.5349300000000  0.5547790000000  0.4824350000000 1.0
C      1  0.4640990000000  0.5560720000000  0.5167560000000 1.0
C      1  0.5569850000000  0.4840540000000  0.5371900000000 1.0
C      1  0.5555950000000  0.5183350000000  0.4647200000000 1.0
C      1  0.4463090000000  0.5169230000000  0.5346940000000 1.0
C      1  0.5181290000000  0.4661350000000  0.5539890000000 1.0
C      1  0.5171440000000  0.5358770000000  0.4447240000000 1.0
C      1  0.4828900000000  0.5354190000000  0.5544140000000 1.0
C      1  0.5587400000000  0.4740370000000  0.4935630000000 1.0
C      1  0.4921860000000  0.5620300000000  0.4719760000000 1.0
C      1  0.4737100000000  0.4939990000000  0.5578720000000 1.0
C      1  0.4395430000000  0.4730930000000  0.5070020000000 1.0
C      1  0.5621240000000  0.5288670000000  0.5080300000000 1.0
C      1  0.4391160000000  0.5276830000000  0.4928600000000 1.0
C      1  0.5069600000000  0.5603550000000  0.5265490000000 1.0
C      1  0.4924820000000  0.4384710000000  0.5281820000000 1.0
C      1  0.5061740000000  0.4418190000000  0.4731360000000 1.0
C      1  0.5277810000000  0.4924670000000  0.4388360000000 1.0
C      1  0.4728960000000  0.5073210000000  0.4396140000000 1.0
C      1  0.5283930000000  0.5085090000000  0.5629110000000 1.0
C      1  0.4935300000000  0.4740700000000  0.5592990000000 1.0
C      1  0.4720160000000  0.5621490000000  0.4922470000000 1.0
C      1  0.5578230000000  0.4941080000000  0.4737490000000 1.0
C      1  0.5077210000000  0.4723270000000  0.4386480000000 1.0
C      1  0.5080290000000  0.5288170000000  0.5620580000000 1.0
C      1  0.4928130000000  0.5271800000000  0.4395680000000 1.0
C      1  0.5265880000000  0.5603390000000  0.5068840000000 1.0
C      1  0.5265440000000  0.4411090000000  0.4931270000000 1.0
C      1  0.4719430000000  0.4384790000000  0.5077290000000 1.0
C      1  0.4394680000000  0.4924990000000  0.5273070000000 1.0
C      1  0.4386630000000  0.5079070000000  0.4725080000000 1.0
C      1  0.5627190000000  0.5084920000000  0.5284130000000 1.0
C      1  0.5350120000000  0.5240210000000  0.4677100000000 1.0
C      1  0.4678880000000  0.5240040000000  0.5349230000000 1.0
C      1  0.5341070000000  0.4676080000000  0.5346810000000 1.0
C      1  0.4763460000000  0.4649560000000  0.4674140000000 1.0
END
