TITL C-1379267-1329-388 1.02713447519423e-06 1000000 -2436.02947238515 0 0 340 (D2d) n - 1
REM
REM in /nfs/bkarasulu/CARBON/AIRSS/Generating-Clusters/GAP-ML-2020/Higher-Symm/Selected-Sizes/TryA-Only_Ih-Symm/Larger-Clusters/Try2-MINAMP_6A
REM
REM
REM
REM
REM
REM ./C.cell (31579ac4e95a012ec27f3239692ae8a5)
REM
REM compiler GCC version 9.2.1 20190827 (Red Hat 9.2.1-1)
REM options -cpp -mtune=generic -march=x86-64 -g -O0 -fpre-include=/usr/include/finclude/math-vector-fortran.h
REM seed -106111720 593944171 -1671203496 53690107 444586256 1845162790 110763905 548851229 -1384932032 -2030400910 1711478242 1712467176 -478776995 1757074779 -325742634 1726884649 1039601218 -619601172 1664017439 -308350991 -1847898 -84363739 -1632148276 81780251 -1328578637 881626093 719474387 1489696551 -320365708 917369602 270875883 -726002891 456062849
REM
CELL 1.54180  100.00000  100.00000  100.00000   90.00000   90.00000   90.00000
LATT -1
SFAC C  
C      1  0.4987350000000  0.4641950000000  0.5255190000000 1.0
C      1  0.5262240000000  0.4985950000000  0.4639900000000 1.0
C      1  0.4633190000000  0.5259240000000  0.4987880000000 1.0
C      1  0.5011960000000  0.4641950000000  0.4744730000000 1.0
C      1  0.4987370000000  0.5357300000000  0.4744730000000 1.0
C      1  0.5011970000000  0.5357300000000  0.5255190000000 1.0
C      1  0.4737090000000  0.4985970000000  0.5360020000000 1.0
C      1  0.5262240000000  0.5013280000000  0.5360020000000 1.0
C      1  0.4737090000000  0.5013300000000  0.4639900000000 1.0
C      1  0.5366150000000  0.5259210000000  0.5012040000000 1.0
C      1  0.4633180000000  0.4740030000000  0.5012040000000 1.0
C      1  0.5366140000000  0.4740010000000  0.4987880000000 1.0
C      1  0.5262230000000  0.4639550000000  0.4986290000000 1.0
C      1  0.4633180000000  0.4987560000000  0.5259560000000 1.0
C      1  0.4987370000000  0.5254850000000  0.4642290000000 1.0
C      1  0.4737080000000  0.4639570000000  0.5013630000000 1.0
C      1  0.4737090000000  0.5359700000000  0.4986290000000 1.0
C      1  0.5262250000000  0.5359680000000  0.5013630000000 1.0
C      1  0.5366150000000  0.4987530000000  0.4740360000000 1.0
C      1  0.5366140000000  0.5011690000000  0.5259560000000 1.0
C      1  0.4633180000000  0.5011710000000  0.4740360000000 1.0
C      1  0.5011970000000  0.5254860000000  0.5357640000000 1.0
C      1  0.5011960000000  0.4744390000000  0.4642290000000 1.0
C      1  0.4987350000000  0.4744390000000  0.5357630000000 1.0
C      1  0.5725690000000  0.4926620000000  0.4828270000000 1.0
C      1  0.4829100000000  0.5724390000000  0.4927490000000 1.0
C      1  0.4927790000000  0.4828910000000  0.5724640000000 1.0
C      1  0.4273630000000  0.4926670000000  0.5171640000000 1.0
C      1  0.5725700000000  0.5072580000000  0.5171650000000 1.0
C      1  0.4273640000000  0.5072630000000  0.4828270000000 1.0
C      1  0.5170270000000  0.5724380000000  0.5072440000000 1.0
C      1  0.4829060000000  0.4274870000000  0.5072440000000 1.0
C      1  0.5170230000000  0.4274860000000  0.4927480000000 1.0
C      1  0.5071530000000  0.4828900000000  0.4275280000000 1.0
C      1  0.4927800000000  0.5170350000000  0.4275280000000 1.0
C      1  0.5071530000000  0.5170340000000  0.5724640000000 1.0
C      1  0.4829080000000  0.4927150000000  0.5724720000000 1.0
C      1  0.4927820000000  0.5724310000000  0.4829240000000 1.0
C      1  0.5725690000000  0.4827910000000  0.4926980000000 1.0
C      1  0.5170250000000  0.4927140000000  0.4275200000000 1.0
C      1  0.5170250000000  0.5072090000000  0.5724720000000 1.0
C      1  0.4829080000000  0.5072110000000  0.4275200000000 1.0
C      1  0.5071550000000  0.5724300000000  0.5170680000000 1.0
C      1  0.5071510000000  0.4274940000000  0.4829240000000 1.0
C      1  0.4927780000000  0.4274940000000  0.5170680000000 1.0
C      1  0.4273630000000  0.4827960000000  0.5072940000000 1.0
C      1  0.4273640000000  0.5171330000000  0.4926980000000 1.0
C      1  0.5725700000000  0.5171280000000  0.5072940000000 1.0
C      1  0.5328020000000  0.5211690000000  0.4568020000000 1.0
C      1  0.4565540000000  0.5328690000000  0.5212400000000 1.0
C      1  0.5212230000000  0.4568070000000  0.5326450000000 1.0
C      1  0.4671310000000  0.5211710000000  0.5431900000000 1.0
C      1  0.5328010000000  0.4787530000000  0.5431900000000 1.0
C      1  0.4671300000000  0.4787560000000  0.4568020000000 1.0
C      1  0.5433810000000  0.5328650000000  0.4787520000000 1.0
C      1  0.4565520000000  0.4670590000000  0.4787520000000 1.0
C      1  0.5433790000000  0.4670560000000  0.5212400000000 1.0
C      1  0.4787070000000  0.4568090000000  0.4673470000000 1.0
C      1  0.5212260000000  0.5431150000000  0.4673470000000 1.0
C      1  0.4787090000000  0.5431170000000  0.5326450000000 1.0
C      1  0.4565530000000  0.5212080000000  0.5329010000000 1.0
C      1  0.5212260000000  0.5326100000000  0.4568420000000 1.0
C      1  0.5328010000000  0.4567670000000  0.5212040000000 1.0
C      1  0.5433800000000  0.5212050000000  0.4670910000000 1.0
C      1  0.5433790000000  0.4787170000000  0.5329010000000 1.0
C      1  0.4565520000000  0.4787200000000  0.4670910000000 1.0
C      1  0.4787090000000  0.5326120000000  0.5431500000000 1.0
C      1  0.4787070000000  0.4673140000000  0.4568420000000 1.0
C      1  0.5212240000000  0.4673130000000  0.5431500000000 1.0
C      1  0.4671300000000  0.4567700000000  0.4787880000000 1.0
C      1  0.4671320000000  0.5431580000000  0.5212040000000 1.0
C      1  0.5328030000000  0.5431550000000  0.4787880000000 1.0
C      1  0.5526270000000  0.4942410000000  0.4373170000000 1.0
C      1  0.4373510000000  0.5524430000000  0.4943240000000 1.0
C      1  0.4944450000000  0.4372480000000  0.5526520000000 1.0
C      1  0.4473050000000  0.4942440000000  0.5626750000000 1.0
C      1  0.5526270000000  0.5056810000000  0.5626750000000 1.0
C      1  0.4473060000000  0.5056840000000  0.4373170000000 1.0
C      1  0.5625850000000  0.5524390000000  0.5056680000000 1.0
C      1  0.4373480000000  0.4474860000000  0.5056680000000 1.0
C      1  0.5625820000000  0.4474820000000  0.4943240000000 1.0
C      1  0.5054840000000  0.4372480000000  0.4473400000000 1.0
C      1  0.4944490000000  0.5626770000000  0.4473400000000 1.0
C      1  0.5054870000000  0.5626770000000  0.5526530000000 1.0
C      1  0.4373490000000  0.4942920000000  0.5524740000000 1.0
C      1  0.4944490000000  0.5526190000000  0.4372820000000 1.0
C      1  0.5526260000000  0.4372820000000  0.4942760000000 1.0
C      1  0.5625830000000  0.4942880000000  0.4475170000000 1.0
C      1  0.5625840000000  0.5056320000000  0.5524750000000 1.0
C      1  0.4373490000000  0.5056360000000  0.4475170000000 1.0
C      1  0.5054870000000  0.5526190000000  0.5627110000000 1.0
C      1  0.5054840000000  0.4473060000000  0.4372820000000 1.0
C      1  0.4944460000000  0.4473060000000  0.5627100000000 1.0
C      1  0.4473040000000  0.4372850000000  0.5057160000000 1.0
C      1  0.4473070000000  0.5626430000000  0.4942760000000 1.0
C      1  0.5526290000000  0.5626390000000  0.5057160000000 1.0
C      1  0.4925160000000  0.4250150000000  0.4826300000000 1.0
C      1  0.4825820000000  0.4925730000000  0.4250450000000 1.0
C      1  0.4254010000000  0.4826170000000  0.4926420000000 1.0
C      1  0.5074120000000  0.4250150000000  0.5173620000000 1.0
C      1  0.4925210000000  0.5749100000000  0.5173630000000 1.0
C      1  0.5074160000000  0.5749090000000  0.4826300000000 1.0
C      1  0.5173500000000  0.4925720000000  0.5749470000000 1.0
C      1  0.4825830000000  0.5073520000000  0.5749470000000 1.0
C      1  0.5173500000000  0.5073510000000  0.4250450000000 1.0
C      1  0.5745310000000  0.4826120000000  0.5073490000000 1.0
C      1  0.4254020000000  0.5173120000000  0.5073490000000 1.0
C      1  0.5745320000000  0.5173070000000  0.4926430000000 1.0
C      1  0.4825800000000  0.4250120000000  0.4926070000000 1.0
C      1  0.4254010000000  0.4926110000000  0.4826480000000 1.0
C      1  0.4925180000000  0.4825970000000  0.4250490000000 1.0
C      1  0.5173480000000  0.4250100000000  0.5073860000000 1.0
C      1  0.5173520000000  0.5749130000000  0.4926070000000 1.0
C      1  0.4825850000000  0.5749140000000  0.5073860000000 1.0
C      1  0.5745320000000  0.4926060000000  0.5173440000000 1.0
C      1  0.5745320000000  0.5073130000000  0.4826480000000 1.0
C      1  0.4254010000000  0.5073180000000  0.5173430000000 1.0
C      1  0.5074130000000  0.4825960000000  0.5749430000000 1.0
C      1  0.5074150000000  0.5173280000000  0.4250490000000 1.0
C      1  0.4925190000000  0.5173290000000  0.5749430000000 1.0
C      1  0.5526440000000  0.5087080000000  0.4370350000000 1.0
C      1  0.4370440000000  0.5526740000000  0.5088160000000 1.0
C      1  0.5089560000000  0.4369950000000  0.5526760000000 1.0
C      1  0.4472890000000  0.5087120000000  0.5629570000000 1.0
C      1  0.5526430000000  0.4912130000000  0.5629570000000 1.0
C      1  0.4472890000000  0.4912160000000  0.4370350000000 1.0
C      1  0.5628910000000  0.5526700000000  0.4911760000000 1.0
C      1  0.4370410000000  0.4472550000000  0.4911760000000 1.0
C      1  0.5628890000000  0.4472510000000  0.5088160000000 1.0
C      1  0.4909720000000  0.4369960000000  0.4473160000000 1.0
C      1  0.5089600000000  0.5629290000000  0.4473160000000 1.0
C      1  0.4909760000000  0.5629300000000  0.5526770000000 1.0
C      1  0.4370430000000  0.5087850000000  0.5527050000000 1.0
C      1  0.5089600000000  0.5526420000000  0.4370290000000 1.0
C      1  0.5526420000000  0.4370000000000  0.5087440000000 1.0
C      1  0.5628900000000  0.5087810000000  0.4472870000000 1.0
C      1  0.5628900000000  0.4911400000000  0.5527050000000 1.0
C      1  0.4370420000000  0.4911440000000  0.4472860000000 1.0
C      1  0.4909760000000  0.5526430000000  0.5629630000000 1.0
C      1  0.4909730000000  0.4472820000000  0.4370290000000 1.0
C      1  0.5089570000000  0.4472820000000  0.5629630000000 1.0
C      1  0.4472870000000  0.4370030000000  0.4912480000000 1.0
C      1  0.4472910000000  0.5629250000000  0.5087440000000 1.0
C      1  0.5526450000000  0.5629210000000  0.4912490000000 1.0
C      1  0.4587990000000  0.5668360000000  0.5161150000000 1.0
C      1  0.5162640000000  0.4588070000000  0.5669180000000 1.0
C      1  0.5667460000000  0.5161090000000  0.4587740000000 1.0
C      1  0.5411380000000  0.5668330000000  0.4838780000000 1.0
C      1  0.4587950000000  0.4330910000000  0.4838770000000 1.0
C      1  0.5411340000000  0.4330880000000  0.5161150000000 1.0
C      1  0.4836660000000  0.4588080000000  0.4330740000000 1.0
C      1  0.5162670000000  0.5411170000000  0.4330740000000 1.0
C      1  0.4836680000000  0.5411180000000  0.5669180000000 1.0
C      1  0.4331870000000  0.5161140000000  0.5412180000000 1.0
C      1  0.5667450000000  0.4838110000000  0.5412180000000 1.0
C      1  0.4331870000000  0.4838150000000  0.4587740000000 1.0
C      1  0.5162670000000  0.5668840000000  0.4588420000000 1.0
C      1  0.5667450000000  0.4587380000000  0.5161450000000 1.0
C      1  0.4587970000000  0.5160830000000  0.5668690000000 1.0
C      1  0.4836690000000  0.5668850000000  0.5411510000000 1.0
C      1  0.4836650000000  0.4330410000000  0.4588410000000 1.0
C      1  0.5162630000000  0.4330400000000  0.5411510000000 1.0
C      1  0.4331860000000  0.4587420000000  0.4838470000000 1.0
C      1  0.4331880000000  0.5411870000000  0.5161450000000 1.0
C      1  0.5667470000000  0.5411830000000  0.4838470000000 1.0
C      1  0.5411360000000  0.5160800000000  0.4331240000000 1.0
C      1  0.5411350000000  0.4838420000000  0.5668680000000 1.0
C      1  0.4587960000000  0.4838450000000  0.4331230000000 1.0
C      1  0.4687250000000  0.4303550000000  0.5070400000000 1.0
C      1  0.5069150000000  0.4687090000000  0.4304600000000 1.0
C      1  0.4302320000000  0.5070340000000  0.4685230000000 1.0
C      1  0.5312040000000  0.4303530000000  0.4929530000000 1.0
C      1  0.4687290000000  0.5695720000000  0.4929530000000 1.0
C      1  0.5312080000000  0.5695700000000  0.5070400000000 1.0
C      1  0.4930150000000  0.4687090000000  0.5695320000000 1.0
C      1  0.5069170000000  0.5312160000000  0.5695320000000 1.0
C      1  0.4930170000000  0.5312160000000  0.4304600000000 1.0
C      1  0.5697010000000  0.5070290000000  0.5314690000000 1.0
C      1  0.4302320000000  0.4928960000000  0.5314690000000 1.0
C      1  0.5697000000000  0.4928910000000  0.4685230000000 1.0
C      1  0.5069140000000  0.4304270000000  0.4687430000000 1.0
C      1  0.4302310000000  0.4684920000000  0.5070650000000 1.0
C      1  0.4687270000000  0.5070070000000  0.4303870000000 1.0
C      1  0.4930140000000  0.4304270000000  0.5312490000000 1.0
C      1  0.4930180000000  0.5694980000000  0.4687430000000 1.0
C      1  0.5069180000000  0.5694980000000  0.5312500000000 1.0
C      1  0.5697000000000  0.4684870000000  0.4929270000000 1.0
C      1  0.5697010000000  0.5314330000000  0.5070650000000 1.0
C      1  0.4302330000000  0.5314380000000  0.4929270000000 1.0
C      1  0.5312060000000  0.5070050000000  0.5696040000000 1.0
C      1  0.5312060000000  0.4929180000000  0.4303880000000 1.0
C      1  0.4687270000000  0.4929200000000  0.5696040000000 1.0
C      1  0.4682620000000  0.4273670000000  0.4927940000000 1.0
C      1  0.4926490000000  0.4682810000000  0.4273940000000 1.0
C      1  0.4276390000000  0.4926760000000  0.4683090000000 1.0
C      1  0.5316660000000  0.4273650000000  0.5071980000000 1.0
C      1  0.4682670000000  0.5725600000000  0.5071980000000 1.0
C      1  0.5316700000000  0.5725570000000  0.4927950000000 1.0
C      1  0.5072810000000  0.4682800000000  0.5725970000000 1.0
C      1  0.4926510000000  0.5316440000000  0.5725980000000 1.0
C      1  0.5072830000000  0.5316440000000  0.4273950000000 1.0
C      1  0.5722940000000  0.4926710000000  0.5316830000000 1.0
C      1  0.4276390000000  0.5072530000000  0.5316830000000 1.0
C      1  0.5722940000000  0.5072480000000  0.4683090000000 1.0
C      1  0.4926480000000  0.4273610000000  0.4683140000000 1.0
C      1  0.4276380000000  0.4682780000000  0.4927070000000 1.0
C      1  0.4682640000000  0.4927610000000  0.4274000000000 1.0
C      1  0.5072800000000  0.4273610000000  0.5316780000000 1.0
C      1  0.5072840000000  0.5725630000000  0.4683150000000 1.0
C      1  0.4926520000000  0.5725640000000  0.5316780000000 1.0
C      1  0.5722930000000  0.4682730000000  0.5072840000000 1.0
C      1  0.5722940000000  0.5316470000000  0.4927080000000 1.0
C      1  0.4276400000000  0.5316520000000  0.5072840000000 1.0
C      1  0.5316680000000  0.4927590000000  0.5725920000000 1.0
C      1  0.5316680000000  0.5071630000000  0.4274000000000 1.0
C      1  0.4682650000000  0.5071650000000  0.5725920000000 1.0
C      1  0.4590940000000  0.5213680000000  0.5114650000000 1.0
C      1  0.5113340000000  0.4595820000000  0.5211160000000 1.0
C      1  0.5214880000000  0.5111290000000  0.4596210000000 1.0
C      1  0.5408400000000  0.5213650000000  0.4885270000000 1.0
C      1  0.4590930000000  0.4785600000000  0.4885270000000 1.0
C      1  0.5408390000000  0.4785570000000  0.5114650000000 1.0
C      1  0.4885970000000  0.4595830000000  0.4788760000000 1.0
C      1  0.5113360000000  0.5403410000000  0.4788760000000 1.0
C      1  0.4885990000000  0.5403430000000  0.5211160000000 1.0
C      1  0.4784450000000  0.5111300000000  0.5403710000000 1.0
C      1  0.5214880000000  0.4887940000000  0.5403710000000 1.0
C      1  0.4784450000000  0.4887960000000  0.4596210000000 1.0
C      1  0.5113350000000  0.5210820000000  0.4596170000000 1.0
C      1  0.5214870000000  0.4595860000000  0.5111630000000 1.0
C      1  0.4590940000000  0.5114330000000  0.5214000000000 1.0
C      1  0.4885980000000  0.5210830000000  0.5403760000000 1.0
C      1  0.4885970000000  0.4788430000000  0.4596160000000 1.0
C      1  0.5113340000000  0.4788420000000  0.5403760000000 1.0
C      1  0.4784440000000  0.4595880000000  0.4888290000000 1.0
C      1  0.4784460000000  0.5403390000000  0.5111630000000 1.0
C      1  0.5214890000000  0.5403370000000  0.4888290000000 1.0
C      1  0.5408390000000  0.5114300000000  0.4785920000000 1.0
C      1  0.5408390000000  0.4884920000000  0.5214000000000 1.0
C      1  0.4590930000000  0.4884950000000  0.4785920000000 1.0
C      1  0.5253280000000  0.4423030000000  0.5351760000000 1.0
C      1  0.5352370000000  0.5252420000000  0.4423220000000 1.0
C      1  0.4421870000000  0.5354600000000  0.5256250000000 1.0
C      1  0.4746010000000  0.4423050000000  0.4648160000000 1.0
C      1  0.5253310000000  0.5576190000000  0.4648170000000 1.0
C      1  0.4746040000000  0.5576220000000  0.5351760000000 1.0
C      1  0.4646970000000  0.5252440000000  0.5576710000000 1.0
C      1  0.5352350000000  0.4746810000000  0.5576710000000 1.0
C      1  0.4646960000000  0.4746830000000  0.4423210000000 1.0
C      1  0.5577480000000  0.5354560000000  0.4743680000000 1.0
C      1  0.4421850000000  0.4644690000000  0.4743670000000 1.0
C      1  0.5577460000000  0.4644650000000  0.5256250000000 1.0
C      1  0.5352340000000  0.4422860000000  0.5252770000000 1.0
C      1  0.4421860000000  0.5255930000000  0.5354920000000 1.0
C      1  0.5253310000000  0.5351410000000  0.4423380000000 1.0
C      1  0.4646950000000  0.4422890000000  0.4747160000000 1.0
C      1  0.4646980000000  0.5576380000000  0.5252770000000 1.0
C      1  0.5352380000000  0.5576360000000  0.4747160000000 1.0
C      1  0.5577480000000  0.5255890000000  0.4645000000000 1.0
C      1  0.5577460000000  0.4743320000000  0.5354920000000 1.0
C      1  0.4421850000000  0.4743360000000  0.4645000000000 1.0
C      1  0.4746040000000  0.5351430000000  0.5576540000000 1.0
C      1  0.4746020000000  0.4647830000000  0.4423380000000 1.0
C      1  0.5253290000000  0.4647820000000  0.5576540000000 1.0
C      1  0.5428160000000  0.4765570000000  0.4863280000000 1.0
C      1  0.4856170000000  0.5423330000000  0.4760000000000 1.0
C      1  0.4756340000000  0.4853980000000  0.5424310000000 1.0
C      1  0.4571150000000  0.4765600000000  0.5136630000000 1.0
C      1  0.5428170000000  0.5233640000000  0.5136640000000 1.0
C      1  0.4571170000000  0.5233680000000  0.4863280000000 1.0
C      1  0.5143180000000  0.5423330000000  0.5239920000000 1.0
C      1  0.4856140000000  0.4575920000000  0.5239920000000 1.0
C      1  0.5143160000000  0.4575910000000  0.4760000000000 1.0
C      1  0.5242980000000  0.4853960000000  0.4575610000000 1.0
C      1  0.4756350000000  0.5145290000000  0.4575610000000 1.0
C      1  0.5242980000000  0.5145270000000  0.5424310000000 1.0
C      1  0.4856150000000  0.4759670000000  0.5423670000000 1.0
C      1  0.4756360000000  0.5423980000000  0.4854310000000 1.0
C      1  0.5428160000000  0.4862930000000  0.4765920000000 1.0
C      1  0.5143170000000  0.4759660000000  0.4576250000000 1.0
C      1  0.5143180000000  0.5239580000000  0.5423670000000 1.0
C      1  0.4856160000000  0.5239580000000  0.4576250000000 1.0
C      1  0.5242990000000  0.5423960000000  0.5145620000000 1.0
C      1  0.5242970000000  0.4575260000000  0.4854310000000 1.0
C      1  0.4756340000000  0.4575280000000  0.5145610000000 1.0
C      1  0.4571160000000  0.4862960000000  0.5233990000000 1.0
C      1  0.4571170000000  0.5136320000000  0.4765920000000 1.0
C      1  0.5428170000000  0.5136280000000  0.5233990000000 1.0
C      1  0.4824660000000  0.4520990000000  0.5377640000000 1.0
C      1  0.5375590000000  0.4820230000000  0.4517150000000 1.0
C      1  0.4517090000000  0.5376970000000  0.4802380000000 1.0
C      1  0.5174640000000  0.4520980000000  0.4622280000000 1.0
C      1  0.4824690000000  0.5478270000000  0.4622280000000 1.0
C      1  0.5174670000000  0.5478260000000  0.5377650000000 1.0
C      1  0.4623730000000  0.4820250000000  0.5482770000000 1.0
C      1  0.5375600000000  0.5178990000000  0.5482770000000 1.0
C      1  0.4623740000000  0.5179020000000  0.4517150000000 1.0
C      1  0.5482260000000  0.5376940000000  0.5197540000000 1.0
C      1  0.4517070000000  0.4622310000000  0.5197540000000 1.0
C      1  0.5482240000000  0.4622270000000  0.4802370000000 1.0
C      1  0.5375580000000  0.4516800000000  0.4820570000000 1.0
C      1  0.4517070000000  0.4802060000000  0.5377290000000 1.0
C      1  0.4824680000000  0.5377310000000  0.4521320000000 1.0
C      1  0.4623720000000  0.4516830000000  0.5179340000000 1.0
C      1  0.4623750000000  0.5482450000000  0.4820580000000 1.0
C      1  0.5375600000000  0.5482420000000  0.5179350000000 1.0
C      1  0.5482240000000  0.4802020000000  0.4622630000000 1.0
C      1  0.5482250000000  0.5197190000000  0.5377290000000 1.0
C      1  0.4517080000000  0.5197230000000  0.4622630000000 1.0
C      1  0.5174660000000  0.5377300000000  0.5478600000000 1.0
C      1  0.5174640000000  0.4621930000000  0.4521320000000 1.0
C      1  0.4824660000000  0.4621940000000  0.5478600000000 1.0
C      1  0.5129510000000  0.5407230000000  0.5611790000000 1.0
C      1  0.5620540000000  0.5135280000000  0.5410400000000 1.0
C      1  0.5406780000000  0.5611860000000  0.5131090000000 1.0
C      1  0.4869840000000  0.5407240000000  0.4388130000000 1.0
C      1  0.5129480000000  0.4592010000000  0.4388130000000 1.0
C      1  0.4869820000000  0.4592020000000  0.5611790000000 1.0
C      1  0.4378800000000  0.5135330000000  0.4589520000000 1.0
C      1  0.5620530000000  0.4863920000000  0.4589520000000 1.0
C      1  0.4378790000000  0.4863960000000  0.5410400000000 1.0
C      1  0.4592590000000  0.5611890000000  0.4868840000000 1.0
C      1  0.5406740000000  0.4387360000000  0.4868840000000 1.0
C      1  0.4592550000000  0.4387390000000  0.5131080000000 1.0
C      1  0.5620540000000  0.5410040000000  0.5135640000000 1.0
C      1  0.5406760000000  0.5130730000000  0.5612210000000 1.0
C      1  0.5129510000000  0.5611450000000  0.5407570000000 1.0
C      1  0.4378810000000  0.5410080000000  0.4864280000000 1.0
C      1  0.4378780000000  0.4589210000000  0.5135640000000 1.0
C      1  0.5620520000000  0.4589160000000  0.4864280000000 1.0
C      1  0.4592570000000  0.5130760000000  0.4387710000000 1.0
C      1  0.4592560000000  0.4868510000000  0.5612210000000 1.0
C      1  0.5406760000000  0.4868490000000  0.4387710000000 1.0
C      1  0.4869850000000  0.5611450000000  0.4592350000000 1.0
C      1  0.4869810000000  0.4387800000000  0.5407570000000 1.0
C      1  0.5129480000000  0.4387790000000  0.4592350000000 1.0
C      1  0.5474560000000  0.4675220000000  0.4675570000000 1.0
C      1  0.4524750000000  0.4675260000000  0.5324340000000 1.0
C      1  0.5474570000000  0.5323990000000  0.5324340000000 1.0
C      1  0.4524770000000  0.5324030000000  0.4675580000000 1.0
END
