TITL C-1379265-1223-280 -3.34750275552368e-07 1000000 -2854.54712886157 0 0 400 (C1) n - 1
REM
REM in /nfs/bkarasulu/CARBON/AIRSS/Generating-Clusters/GAP-ML-2020/Higher-Symm/Selected-Sizes/TryA-Only_Ih-Symm/Larger-Clusters/Try2-MINAMP_6A
REM
REM
REM
REM
REM
REM ./C.cell (31579ac4e95a012ec27f3239692ae8a5)
REM
REM compiler GCC version 9.2.1 20190827 (Red Hat 9.2.1-1)
REM options -cpp -mtune=generic -march=x86-64 -g -O0 -fpre-include=/usr/include/finclude/math-vector-fortran.h
REM seed 2095617189 2071583931 2117773314 682362017 -928993507 855165914 -1777602171 867945127 -772058882 -261713700 -1876560368 2083062158 1929536030 -146753569 -1882162600 -121490719 -1134731891 -1280062414 -409639555 330562227 36593473 626315476 183538599 1758651345 -2070009078 1030249969 -1080191255 -896383711 -1506453867 382754542 1168517023 -1661041440 -1497200033
REM
CELL 1.54180  100.00000  100.00000  100.00000   90.00000   90.00000   90.00000
LATT -1
SFAC C  
C      1  0.4427470000000  0.4530060000000  0.5082540000000 1.0
C      1  0.4528170000000  0.5083690000000  0.4394350000000 1.0
C      1  0.5080030000000  0.4396520000000  0.4488860000000 1.0
C      1  0.4421520000000  0.5450170000000  0.4910110000000 1.0
C      1  0.5560490000000  0.4507710000000  0.4903830000000 1.0
C      1  0.5581670000000  0.5493390000000  0.5093060000000 1.0
C      1  0.4515520000000  0.4913490000000  0.5588610000000 1.0
C      1  0.5510670000000  0.5107820000000  0.5611400000000 1.0
C      1  0.5474170000000  0.4901790000000  0.4392450000000 1.0
C      1  0.5098360000000  0.5620460000000  0.5514630000000 1.0
C      1  0.4907620000000  0.4401500000000  0.5504220000000 1.0
C      1  0.4914810000000  0.5586160000000  0.4513180000000 1.0
C      1  0.4415650000000  0.5084280000000  0.4483750000000 1.0
C      1  0.4525940000000  0.4422320000000  0.5085850000000 1.0
C      1  0.5084300000000  0.4495340000000  0.4386060000000 1.0
C      1  0.4403930000000  0.4909440000000  0.5499880000000 1.0
C      1  0.5579210000000  0.4900760000000  0.4491980000000 1.0
C      1  0.5608870000000  0.5102800000000  0.5505480000000 1.0
C      1  0.4513970000000  0.5560940000000  0.4909680000000 1.0
C      1  0.5491170000000  0.5605090000000  0.5097480000000 1.0
C      1  0.5451500000000  0.4413170000000  0.4906760000000 1.0
C      1  0.5103310000000  0.5517770000000  0.5616810000000 1.0
C      1  0.4909490000000  0.5499300000000  0.4400350000000 1.0
C      1  0.4912630000000  0.4515430000000  0.5589920000000 1.0
C      1  0.4934810000000  0.4387950000000  0.4483030000000 1.0
C      1  0.4403760000000  0.4507250000000  0.4939070000000 1.0
C      1  0.4514920000000  0.4937200000000  0.4383490000000 1.0
C      1  0.4950940000000  0.5619520000000  0.5517030000000 1.0
C      1  0.5052920000000  0.4384780000000  0.5510430000000 1.0
C      1  0.5060150000000  0.5597850000000  0.4501890000000 1.0
C      1  0.4393220000000  0.5474710000000  0.5053250000000 1.0
C      1  0.5583590000000  0.4487440000000  0.5048080000000 1.0
C      1  0.5590430000000  0.5502670000000  0.4945520000000 1.0
C      1  0.4501070000000  0.5059060000000  0.5600460000000 1.0
C      1  0.5513100000000  0.4959550000000  0.5616400000000 1.0
C      1  0.5482970000000  0.5048560000000  0.4383290000000 1.0
C      1  0.4937990000000  0.4489940000000  0.4375350000000 1.0
C      1  0.4400360000000  0.4939660000000  0.4476720000000 1.0
C      1  0.4501630000000  0.4397620000000  0.4941850000000 1.0
C      1  0.4955240000000  0.5519420000000  0.5622750000000 1.0
C      1  0.5055120000000  0.5507880000000  0.4384350000000 1.0
C      1  0.5058260000000  0.4501900000000  0.5600440000000 1.0
C      1  0.4386140000000  0.5054110000000  0.5507820000000 1.0
C      1  0.5589680000000  0.5045990000000  0.4483840000000 1.0
C      1  0.5609430000000  0.4955470000000  0.5507480000000 1.0
C      1  0.4490750000000  0.5585100000000  0.5052890000000 1.0
C      1  0.5502550000000  0.5621240000000  0.4948670000000 1.0
C      1  0.5474470000000  0.4388720000000  0.5050810000000 1.0
C      1  0.5051550000000  0.4841530000000  0.4466200000000 1.0
C      1  0.4854070000000  0.4411190000000  0.5102730000000 1.0
C      1  0.4493080000000  0.5021780000000  0.4831100000000 1.0
C      1  0.5101550000000  0.5204300000000  0.5583580000000 1.0
C      1  0.4985240000000  0.4901550000000  0.5519180000000 1.0
C      1  0.4964730000000  0.5159630000000  0.4469230000000 1.0
C      1  0.4902700000000  0.5499130000000  0.4998750000000 1.0
C      1  0.5126710000000  0.4414210000000  0.4901460000000 1.0
C      1  0.5188770000000  0.5598700000000  0.5100640000000 1.0
C      1  0.4490590000000  0.4960200000000  0.5153430000000 1.0
C      1  0.5561040000000  0.5084380000000  0.5190220000000 1.0
C      1  0.5486180000000  0.4966540000000  0.4893110000000 1.0
C      1  0.5024670000000  0.4480370000000  0.4842510000000 1.0
C      1  0.4862710000000  0.5100650000000  0.4403560000000 1.0
C      1  0.4430180000000  0.4857440000000  0.5089230000000 1.0
C      1  0.5090220000000  0.5591430000000  0.5198120000000 1.0
C      1  0.4990090000000  0.5504480000000  0.4910910000000 1.0
C      1  0.4956990000000  0.4476670000000  0.5161170000000 1.0
C      1  0.4898380000000  0.4989470000000  0.5519420000000 1.0
C      1  0.5155040000000  0.4902500000000  0.4408350000000 1.0
C      1  0.5199090000000  0.5105280000000  0.5582950000000 1.0
C      1  0.4425930000000  0.5122060000000  0.4894100000000 1.0
C      1  0.5559510000000  0.5177250000000  0.5086770000000 1.0
C      1  0.5482420000000  0.4884100000000  0.4986200000000 1.0
C      1  0.4929870000000  0.4663820000000  0.4206090000000 1.0
C      1  0.4725120000000  0.4294960000000  0.4930490000000 1.0
C      1  0.4229450000000  0.4923050000000  0.4650210000000 1.0
C      1  0.4938940000000  0.5303640000000  0.5723020000000 1.0
C      1  0.5085770000000  0.4739230000000  0.5680270000000 1.0
C      1  0.5069900000000  0.5339810000000  0.4210650000000 1.0
C      1  0.4723620000000  0.5669670000000  0.5088210000000 1.0
C      1  0.5253460000000  0.4294950000000  0.5070470000000 1.0
C      1  0.5294220000000  0.5746370000000  0.4940430000000 1.0
C      1  0.4222690000000  0.5067000000000  0.5330430000000 1.0
C      1  0.5701680000000  0.4926750000000  0.5289530000000 1.0
C      1  0.5662930000000  0.5070230000000  0.4721270000000 1.0
C      1  0.4919060000000  0.4221420000000  0.4660720000000 1.0
C      1  0.4739620000000  0.4930070000000  0.4282680000000 1.0
C      1  0.4309560000000  0.4731750000000  0.4919610000000 1.0
C      1  0.4923870000000  0.5718000000000  0.5301380000000 1.0
C      1  0.5081410000000  0.5676440000000  0.4741660000000 1.0
C      1  0.5064190000000  0.4215600000000  0.5338310000000 1.0
C      1  0.4737420000000  0.5087740000000  0.5682040000000 1.0
C      1  0.5265290000000  0.5073720000000  0.4284280000000 1.0
C      1  0.5300010000000  0.4942080000000  0.5720440000000 1.0
C      1  0.4306490000000  0.5252380000000  0.5064980000000 1.0
C      1  0.5693380000000  0.5281570000000  0.4927540000000 1.0
C      1  0.5661580000000  0.4723780000000  0.5077300000000 1.0
C      1  0.5760910000000  0.5273930000000  0.5066620000000 1.0
C      1  0.5291620000000  0.5085750000000  0.5784910000000 1.0
C      1  0.5064620000000  0.5788530000000  0.5292110000000 1.0
C      1  0.5715680000000  0.4740300000000  0.4934910000000 1.0
C      1  0.4242910000000  0.5249160000000  0.4922870000000 1.0
C      1  0.4243510000000  0.4737230000000  0.5059250000000 1.0
C      1  0.5264170000000  0.4931170000000  0.4218980000000 1.0
C      1  0.4738530000000  0.5070630000000  0.4218870000000 1.0
C      1  0.4750970000000  0.4947020000000  0.5735110000000 1.0
C      1  0.5056080000000  0.4210330000000  0.4709340000000 1.0
C      1  0.4938430000000  0.5725020000000  0.4754220000000 1.0
C      1  0.4924930000000  0.4207540000000  0.5289430000000 1.0
C      1  0.5764580000000  0.5069480000000  0.5278050000000 1.0
C      1  0.5275900000000  0.5805690000000  0.5084380000000 1.0
C      1  0.5082710000000  0.5295240000000  0.5786710000000 1.0
C      1  0.5722270000000  0.4930990000000  0.4731430000000 1.0
C      1  0.4218080000000  0.4929630000000  0.5278820000000 1.0
C      1  0.4220690000000  0.5059880000000  0.4700840000000 1.0
C      1  0.5249400000000  0.4231270000000  0.4928520000000 1.0
C      1  0.4728750000000  0.4227760000000  0.5070970000000 1.0
C      1  0.4737900000000  0.5724420000000  0.4946930000000 1.0
C      1  0.5067840000000  0.4713240000000  0.4196680000000 1.0
C      1  0.4945720000000  0.4751620000000  0.5735130000000 1.0
C      1  0.4931830000000  0.5290020000000  0.4200280000000 1.0
C      1  0.5426300000000  0.4639590000000  0.5173420000000 1.0
C      1  0.4682030000000  0.5165140000000  0.5440630000000 1.0
C      1  0.5166520000000  0.5437940000000  0.4676530000000 1.0
C      1  0.5428270000000  0.5311030000000  0.4844220000000 1.0
C      1  0.4556510000000  0.4648660000000  0.4820220000000 1.0
C      1  0.4548730000000  0.5330280000000  0.5175690000000 1.0
C      1  0.4692710000000  0.4834500000000  0.4533770000000 1.0
C      1  0.5329590000000  0.5162400000000  0.4539930000000 1.0
C      1  0.5347430000000  0.4852770000000  0.5454040000000 1.0
C      1  0.5146950000000  0.4620050000000  0.5323660000000 1.0
C      1  0.4838780000000  0.5451810000000  0.5357630000000 1.0
C      1  0.4828700000000  0.4619390000000  0.4691770000000 1.0
C      1  0.5426640000000  0.5151180000000  0.4639660000000 1.0
C      1  0.4645520000000  0.5431980000000  0.5178480000000 1.0
C      1  0.5160240000000  0.4682650000000  0.5437180000000 1.0
C      1  0.5443260000000  0.4837060000000  0.5350800000000 1.0
C      1  0.4630590000000  0.4827640000000  0.4651350000000 1.0
C      1  0.4622910000000  0.5148060000000  0.5325690000000 1.0
C      1  0.4651290000000  0.4546210000000  0.4833730000000 1.0
C      1  0.5326080000000  0.4541670000000  0.5171700000000 1.0
C      1  0.5317110000000  0.5385460000000  0.4864650000000 1.0
C      1  0.5152860000000  0.5323860000000  0.4612680000000 1.0
C      1  0.4850890000000  0.5354810000000  0.5460480000000 1.0
C      1  0.4873960000000  0.4683440000000  0.4596430000000 1.0
C      1  0.4808870000000  0.4608980000000  0.5594990000000 1.0
C      1  0.4604900000000  0.5579770000000  0.4806040000000 1.0
C      1  0.5584550000000  0.4795270000000  0.4585420000000 1.0
C      1  0.4806940000000  0.5405310000000  0.4381790000000 1.0
C      1  0.5187040000000  0.4589240000000  0.4373160000000 1.0
C      1  0.5212320000000  0.5425960000000  0.5621660000000 1.0
C      1  0.4618030000000  0.4402210000000  0.5189630000000 1.0
C      1  0.5404370000000  0.5630570000000  0.5205350000000 1.0
C      1  0.5359100000000  0.4403980000000  0.4802760000000 1.0
C      1  0.5610730000000  0.5207670000000  0.5411280000000 1.0
C      1  0.4394300000000  0.4808080000000  0.5403380000000 1.0
C      1  0.4402510000000  0.5182240000000  0.4582430000000 1.0
C      1  0.4810010000000  0.5585780000000  0.4605010000000 1.0
C      1  0.4608990000000  0.4809740000000  0.5594140000000 1.0
C      1  0.5579130000000  0.4596040000000  0.4797180000000 1.0
C      1  0.4803680000000  0.4387270000000  0.5411050000000 1.0
C      1  0.5179910000000  0.4385140000000  0.4584750000000 1.0
C      1  0.5204170000000  0.5630340000000  0.5421910000000 1.0
C      1  0.4621100000000  0.5188040000000  0.4389630000000 1.0
C      1  0.5419310000000  0.5217410000000  0.5619460000000 1.0
C      1  0.5381920000000  0.4795750000000  0.4383690000000 1.0
C      1  0.5602840000000  0.5402840000000  0.5196810000000 1.0
C      1  0.4416850000000  0.5358180000000  0.4805590000000 1.0
C      1  0.4410910000000  0.4623840000000  0.5184190000000 1.0
C      1  0.5658230000000  0.4809290000000  0.4704960000000 1.0
C      1  0.4823840000000  0.4724610000000  0.5671430000000 1.0
C      1  0.4716340000000  0.5660300000000  0.4823120000000 1.0
C      1  0.5662730000000  0.5172600000000  0.5282450000000 1.0
C      1  0.4308400000000  0.4822810000000  0.5294440000000 1.0
C      1  0.4311520000000  0.5166030000000  0.4687540000000 1.0
C      1  0.4821270000000  0.5304250000000  0.4287570000000 1.0
C      1  0.5176710000000  0.4696400000000  0.4284500000000 1.0
C      1  0.5185890000000  0.5299740000000  0.5683500000000 1.0
C      1  0.4741540000000  0.4326560000000  0.5179040000000 1.0
C      1  0.5282150000000  0.5700300000000  0.5184780000000 1.0
C      1  0.5235690000000  0.4331160000000  0.4820320000000 1.0
C      1  0.5657630000000  0.4710320000000  0.4809530000000 1.0
C      1  0.4819570000000  0.5658400000000  0.4724660000000 1.0
C      1  0.4723940000000  0.4824960000000  0.5671340000000 1.0
C      1  0.5662150000000  0.5278130000000  0.5170860000000 1.0
C      1  0.4343930000000  0.5233960000000  0.4816360000000 1.0
C      1  0.4341800000000  0.4749610000000  0.5167750000000 1.0
C      1  0.4815700000000  0.4295670000000  0.5306000000000 1.0
C      1  0.5164250000000  0.4298460000000  0.4693500000000 1.0
C      1  0.5173150000000  0.5692490000000  0.5295810000000 1.0
C      1  0.4749020000000  0.5177180000000  0.4319200000000 1.0
C      1  0.5295000000000  0.5190150000000  0.5683000000000 1.0
C      1  0.5255920000000  0.4819840000000  0.4316210000000 1.0
C      1  0.5603490000000  0.5161060000000  0.4956260000000 1.0
C      1  0.5181510000000  0.4977090000000  0.5631090000000 1.0
C      1  0.4956700000000  0.5622880000000  0.5187250000000 1.0
C      1  0.5537920000000  0.4840890000000  0.5114560000000 1.0
C      1  0.4407670000000  0.5143070000000  0.5031030000000 1.0
C      1  0.4413030000000  0.4840110000000  0.4951140000000 1.0
C      1  0.5155520000000  0.5038720000000  0.4383600000000 1.0
C      1  0.4859080000000  0.4966310000000  0.4372440000000 1.0
C      1  0.4862500000000  0.5121020000000  0.5568700000000 1.0
C      1  0.4890690000000  0.4475110000000  0.4864580000000 1.0
C      1  0.5117610000000  0.5563180000000  0.4865670000000 1.0
C      1  0.5091310000000  0.4476380000000  0.5143140000000 1.0
C      1  0.5603560000000  0.4953950000000  0.5176740000000 1.0
C      1  0.5181690000000  0.5639220000000  0.4970770000000 1.0
C      1  0.4974270000000  0.5185280000000  0.5633400000000 1.0
C      1  0.5541410000000  0.5092220000000  0.4842550000000 1.0
C      1  0.4488490000000  0.5094680000000  0.5138610000000 1.0
C      1  0.4496680000000  0.4886190000000  0.4843150000000 1.0
C      1  0.5142130000000  0.4394080000000  0.5037450000000 1.0
C      1  0.4839590000000  0.4390070000000  0.4966920000000 1.0
C      1  0.4846710000000  0.5551920000000  0.5123730000000 1.0
C      1  0.4919460000000  0.4863310000000  0.4450890000000 1.0
C      1  0.5116890000000  0.4864450000000  0.5566860000000 1.0
C      1  0.5099390000000  0.5141120000000  0.4468770000000 1.0
C      1  0.5370670000000  0.5144290000000  0.4372480000000 1.0
C      1  0.5134180000000  0.4308890000000  0.5422250000000 1.0
C      1  0.4384240000000  0.5362980000000  0.5146250000000 1.0
C      1  0.5398630000000  0.4872420000000  0.5630080000000 1.0
C      1  0.4621080000000  0.5143270000000  0.5602510000000 1.0
C      1  0.4636320000000  0.4855250000000  0.4372700000000 1.0
C      1  0.5142420000000  0.5600790000000  0.4624000000000 1.0
C      1  0.4854480000000  0.4316630000000  0.4576830000000 1.0
C      1  0.4860150000000  0.5624740000000  0.5402110000000 1.0
C      1  0.4391700000000  0.4621370000000  0.4844640000000 1.0
C      1  0.5596330000000  0.5379570000000  0.4864210000000 1.0
C      1  0.5590660000000  0.4602690000000  0.5137790000000 1.0
C      1  0.5363100000000  0.4377320000000  0.5145840000000 1.0
C      1  0.5137190000000  0.5422330000000  0.4306570000000 1.0
C      1  0.4311900000000  0.5135730000000  0.5418950000000 1.0
C      1  0.5410700000000  0.5689070000000  0.4863880000000 1.0
C      1  0.4603890000000  0.5594600000000  0.5145310000000 1.0
C      1  0.4617260000000  0.4380210000000  0.4852990000000 1.0
C      1  0.5141260000000  0.4622640000000  0.5600610000000 1.0
C      1  0.4860900000000  0.4578770000000  0.4297640000000 1.0
C      1  0.4869330000000  0.5403120000000  0.5633270000000 1.0
C      1  0.4323460000000  0.4857720000000  0.4565360000000 1.0
C      1  0.5612610000000  0.4863200000000  0.5392970000000 1.0
C      1  0.5590090000000  0.5130910000000  0.4602230000000 1.0
C      1  0.5238180000000  0.5150020000000  0.4155020000000 1.0
C      1  0.5139070000000  0.4133140000000  0.5253680000000 1.0
C      1  0.4172100000000  0.5229460000000  0.5137800000000 1.0
C      1  0.5261340000000  0.4859130000000  0.5834620000000 1.0
C      1  0.4760430000000  0.5159500000000  0.5814970000000 1.0
C      1  0.4762660000000  0.4854120000000  0.4151280000000 1.0
C      1  0.5142180000000  0.5816860000000  0.4763280000000 1.0
C      1  0.4841440000000  0.4138930000000  0.4743720000000 1.0
C      1  0.4836530000000  0.5829260000000  0.5262410000000 1.0
C      1  0.4178370000000  0.4756690000000  0.4842030000000 1.0
C      1  0.5810130000000  0.5247710000000  0.4843610000000 1.0
C      1  0.5794960000000  0.4748770000000  0.5146760000000 1.0
C      1  0.5228150000000  0.4162850000000  0.5145040000000 1.0
C      1  0.5146880000000  0.5257650000000  0.4127340000000 1.0
C      1  0.4139840000000  0.5142010000000  0.5246360000000 1.0
C      1  0.5241780000000  0.5853400000000  0.4858430000000 1.0
C      1  0.4742010000000  0.5804340000000  0.5158410000000 1.0
C      1  0.4751390000000  0.4165720000000  0.4852390000000 1.0
C      1  0.5158420000000  0.4762320000000  0.5812970000000 1.0
C      1  0.4853400000000  0.4746290000000  0.4122120000000 1.0
C      1  0.4856360000000  0.5263220000000  0.5836980000000 1.0
C      1  0.4147940000000  0.4845450000000  0.4733400000000 1.0
C      1  0.5816270000000  0.4844380000000  0.5250340000000 1.0
C      1  0.5793820000000  0.5145030000000  0.4746240000000 1.0
C      1  0.5315460000000  0.5538750000000  0.5429310000000 1.0
C      1  0.5513060000000  0.5406250000000  0.5309650000000 1.0
C      1  0.5427660000000  0.5331260000000  0.5529320000000 1.0
C      1  0.5282320000000  0.4484620000000  0.4576440000000 1.0
C      1  0.4703200000000  0.5495540000000  0.4585450000000 1.0
C      1  0.4703080000000  0.4489430000000  0.5410900000000 1.0
C      1  0.5482380000000  0.4599260000000  0.4687960000000 1.0
C      1  0.4516240000000  0.5363690000000  0.4701560000000 1.0
C      1  0.4507160000000  0.4624290000000  0.5289980000000 1.0
C      1  0.5393630000000  0.4683950000000  0.4473400000000 1.0
C      1  0.4603030000000  0.5294710000000  0.4481980000000 1.0
C      1  0.4596350000000  0.4698500000000  0.5504290000000 1.0
C      1  0.5324130000000  0.5436730000000  0.5529860000000 1.0
C      1  0.5525020000000  0.5322200000000  0.5425970000000 1.0
C      1  0.5396330000000  0.5529530000000  0.5309700000000 1.0
C      1  0.5290770000000  0.4581860000000  0.4473450000000 1.0
C      1  0.4698050000000  0.4595290000000  0.5505120000000 1.0
C      1  0.4701320000000  0.5401300000000  0.4481540000000 1.0
C      1  0.5494640000000  0.4686270000000  0.4572640000000 1.0
C      1  0.4493540000000  0.4705210000000  0.5407400000000 1.0
C      1  0.4502490000000  0.5284550000000  0.4582210000000 1.0
C      1  0.5363190000000  0.4500650000000  0.4694950000000 1.0
C      1  0.4623580000000  0.4502430000000  0.5292130000000 1.0
C      1  0.4612810000000  0.5482340000000  0.4698040000000 1.0
C      1  0.5157410000000  0.4127770000000  0.4923400000000 1.0
C      1  0.4126830000000  0.4923550000000  0.5167030000000 1.0
C      1  0.4927960000000  0.5179370000000  0.4107840000000 1.0
C      1  0.5162640000000  0.5891700000000  0.5081430000000 1.0
C      1  0.4821740000000  0.4124930000000  0.5074540000000 1.0
C      1  0.4827300000000  0.5832150000000  0.4944960000000 1.0
C      1  0.4128140000000  0.5064460000000  0.4811680000000 1.0
C      1  0.5824880000000  0.4930440000000  0.4828620000000 1.0
C      1  0.5859160000000  0.5067990000000  0.5172680000000 1.0
C      1  0.4943540000000  0.4844210000000  0.5841460000000 1.0
C      1  0.5081280000000  0.5188720000000  0.5880750000000 1.0
C      1  0.5072350000000  0.4825560000000  0.4107000000000 1.0
C      1  0.5170480000000  0.4927310000000  0.4116370000000 1.0
C      1  0.4137640000000  0.5159370000000  0.4916060000000 1.0
C      1  0.4919130000000  0.4116230000000  0.5177340000000 1.0
C      1  0.5186090000000  0.5083440000000  0.5879920000000 1.0
C      1  0.4830870000000  0.5076950000000  0.4115080000000 1.0
C      1  0.4843410000000  0.4944690000000  0.5841540000000 1.0
C      1  0.4139050000000  0.4828060000000  0.5063360000000 1.0
C      1  0.5820190000000  0.4833850000000  0.4932910000000 1.0
C      1  0.5857680000000  0.5171210000000  0.5066080000000 1.0
C      1  0.4927220000000  0.5833470000000  0.4844130000000 1.0
C      1  0.5058260000000  0.5884220000000  0.5187130000000 1.0
C      1  0.5060860000000  0.4118770000000  0.4820640000000 1.0
C      1  0.4616430000000  0.5286650000000  0.5645570000000 1.0
C      1  0.5283660000000  0.5651150000000  0.4621920000000 1.0
C      1  0.5633540000000  0.4604200000000  0.5284760000000 1.0
C      1  0.4624930000000  0.4711240000000  0.4334670000000 1.0
C      1  0.5378730000000  0.5295430000000  0.4342070000000 1.0
C      1  0.5392770000000  0.4720720000000  0.5648730000000 1.0
C      1  0.5275150000000  0.4339560000000  0.5403150000000 1.0
C      1  0.4707050000000  0.5646610000000  0.5397360000000 1.0
C      1  0.4716100000000  0.4345930000000  0.4597880000000 1.0
C      1  0.5627660000000  0.5380350000000  0.4716940000000 1.0
C      1  0.4352870000000  0.4616080000000  0.4695760000000 1.0
C      1  0.4345240000000  0.5376350000000  0.5293010000000 1.0
C      1  0.4601770000000  0.5638740000000  0.5291380000000 1.0
C      1  0.5284620000000  0.4619300000000  0.5642830000000 1.0
C      1  0.5625300000000  0.5279250000000  0.4608560000000 1.0
C      1  0.4612780000000  0.4349970000000  0.4703940000000 1.0
C      1  0.5375440000000  0.4342410000000  0.5293990000000 1.0
C      1  0.5391680000000  0.5660650000000  0.4723260000000 1.0
C      1  0.5277430000000  0.5404050000000  0.4338620000000 1.0
C      1  0.4716960000000  0.5395570000000  0.5653050000000 1.0
C      1  0.4724010000000  0.4602430000000  0.4331410000000 1.0
C      1  0.5640470000000  0.4710430000000  0.5389860000000 1.0
C      1  0.4349930000000  0.4716950000000  0.4586450000000 1.0
C      1  0.4341110000000  0.5276590000000  0.5401980000000 1.0
C      1  0.5146140000000  0.4080760000000  0.5054600000000 1.0
C      1  0.4070580000000  0.5052820000000  0.5149330000000 1.0
C      1  0.5059180000000  0.5161290000000  0.4055520000000 1.0
C      1  0.5148670000000  0.5929160000000  0.4942860000000 1.0
C      1  0.4833010000000  0.4081520000000  0.4941790000000 1.0
C      1  0.4821560000000  0.5891480000000  0.5074120000000 1.0
C      1  0.4075770000000  0.4933590000000  0.4829010000000 1.0
C      1  0.5879520000000  0.5061370000000  0.4828370000000 1.0
C      1  0.5898060000000  0.4930180000000  0.5163600000000 1.0
C      1  0.5073920000000  0.4844630000000  0.5897590000000 1.0
C      1  0.4942660000000  0.5176470000000  0.5917720000000 1.0
C      1  0.4941870000000  0.4844110000000  0.4053730000000 1.0
C      1  0.5157270000000  0.5059580000000  0.4071870000000 1.0
C      1  0.4089010000000  0.5149140000000  0.5046670000000 1.0
C      1  0.5049550000000  0.4063210000000  0.5157440000000 1.0
C      1  0.5174780000000  0.4944610000000  0.5916460000000 1.0
C      1  0.4843430000000  0.4945390000000  0.4068910000000 1.0
C      1  0.4843510000000  0.5074840000000  0.5898570000000 1.0
C      1  0.4093290000000  0.4837240000000  0.4931480000000 1.0
C      1  0.5878830000000  0.4831660000000  0.5062140000000 1.0
C      1  0.5895020000000  0.5162320000000  0.4928130000000 1.0
C      1  0.5051750000000  0.5899570000000  0.4841580000000 1.0
C      1  0.4918540000000  0.5915380000000  0.5176480000000 1.0
C      1  0.4929930000000  0.4066910000000  0.4839150000000 1.0
C      1  0.4522070000000  0.4422060000000  0.4611360000000 1.0
C      1  0.4427300000000  0.4624920000000  0.4500910000000 1.0
C      1  0.4631760000000  0.4518410000000  0.4408020000000 1.0
C      1  0.4508050000000  0.5576840000000  0.5385710000000 1.0
C      1  0.5472180000000  0.4412100000000  0.5382670000000 1.0
C      1  0.5476790000000  0.5583740000000  0.4628280000000 1.0
C      1  0.4414500000000  0.5370850000000  0.5489660000000 1.0
C      1  0.5579590000000  0.4616760000000  0.5485280000000 1.0
C      1  0.5567670000000  0.5378530000000  0.4517700000000 1.0
C      1  0.4617720000000  0.5484480000000  0.5590100000000 1.0
C      1  0.5373980000000  0.4520190000000  0.5584640000000 1.0
C      1  0.5367850000000  0.5489860000000  0.4420160000000 1.0
C      1  0.4528780000000  0.4624070000000  0.4404230000000 1.0
C      1  0.4424510000000  0.4521760000000  0.4607410000000 1.0
C      1  0.4628130000000  0.4421320000000  0.4508920000000 1.0
C      1  0.4517360000000  0.5375730000000  0.5586870000000 1.0
C      1  0.5470510000000  0.5383270000000  0.4417160000000 1.0
C      1  0.5481910000000  0.4621590000000  0.5585790000000 1.0
C      1  0.4410770000000  0.5474480000000  0.5383930000000 1.0
C      1  0.5570660000000  0.5479440000000  0.4625790000000 1.0
C      1  0.5573270000000  0.4510780000000  0.5381010000000 1.0
C      1  0.4613120000000  0.5583530000000  0.5491050000000 1.0
C      1  0.5371490000000  0.5584930000000  0.4524980000000 1.0
C      1  0.5368980000000  0.4416150000000  0.5488740000000 1.0
C      1  0.4559840000000  0.5192630000000  0.5215210000000 1.0
C      1  0.5213190000000  0.4811180000000  0.5463210000000 1.0
C      1  0.4781430000000  0.5447740000000  0.5224280000000 1.0
C      1  0.5437100000000  0.5184950000000  0.4778090000000 1.0
C      1  0.5193960000000  0.5211050000000  0.4550420000000 1.0
C      1  0.5189190000000  0.4552650000000  0.5214530000000 1.0
C      1  0.5438650000000  0.4775690000000  0.5218090000000 1.0
C      1  0.5209780000000  0.5451130000000  0.4811090000000 1.0
C      1  0.4809660000000  0.5219770000000  0.5466320000000 1.0
C      1  0.4790040000000  0.4552310000000  0.4799700000000 1.0
C      1  0.4573970000000  0.4786570000000  0.4767230000000 1.0
C      1  0.4828060000000  0.4791270000000  0.4525920000000 1.0
C      1  0.4638530000000  0.4632550000000  0.5231770000000 1.0
C      1  0.4659060000000  0.5357040000000  0.4760400000000 1.0
C      1  0.5354120000000  0.4641220000000  0.4749990000000 1.0
C      1  0.5384370000000  0.5401210000000  0.5243260000000 1.0
END
