TITL C-1379267-1329-374 4.44404365284758e-07 1000000 -2243.92354193371 0 0 320 (Th) n - 1
REM
REM in /nfs/bkarasulu/CARBON/AIRSS/Generating-Clusters/GAP-ML-2020/Higher-Symm/Selected-Sizes/TryA-Only_Ih-Symm/Larger-Clusters/Try2-MINAMP_6A
REM
REM
REM
REM
REM
REM ./C.cell (31579ac4e95a012ec27f3239692ae8a5)
REM
REM compiler GCC version 9.2.1 20190827 (Red Hat 9.2.1-1)
REM options -cpp -mtune=generic -march=x86-64 -g -O0 -fpre-include=/usr/include/finclude/math-vector-fortran.h
REM seed -772901409 1484783284 1623953586 1439928807 -1480741233 1717664957 945218405 1203017284 1082119847 -1266663096 374882349 -1685984024 171390893 1992474045 1268704598 -1106812071 118662787 2042797662 60110902 -1072527642 1396252609 -1485299666 728502148 2023215144 -1845040533 2081979346 120487518 -2002816603 -264140435 -392972995 -623670648 914739206 2070486223
REM
CELL 1.54180  100.00000  100.00000  100.00000   90.00000   90.00000   90.00000
LATT -1
SFAC C  
C      1  0.4673680000000  0.4469990000000  0.5072740000000 1.0
C      1  0.4472900000000  0.5069430000000  0.4674080000000 1.0
C      1  0.5072330000000  0.4670770000000  0.4473320000000 1.0
C      1  0.4673680000000  0.5529170000000  0.4933070000000 1.0
C      1  0.5331330000000  0.4469990000000  0.4933070000000 1.0
C      1  0.5331320000000  0.5529200000000  0.5072740000000 1.0
C      1  0.4472900000000  0.4929760000000  0.5331730000000 1.0
C      1  0.5532080000000  0.5069430000000  0.5331730000000 1.0
C      1  0.5532100000000  0.4929760000000  0.4674080000000 1.0
C      1  0.5072340000000  0.5328420000000  0.5532500000000 1.0
C      1  0.4932670000000  0.4670770000000  0.5532510000000 1.0
C      1  0.4932670000000  0.5328410000000  0.4473300000000 1.0
C      1  0.5331330000000  0.4469980000000  0.5072740000000 1.0
C      1  0.5532090000000  0.5069430000000  0.4674080000000 1.0
C      1  0.4932670000000  0.4670770000000  0.4473310000000 1.0
C      1  0.5331320000000  0.5529180000000  0.4933070000000 1.0
C      1  0.4673680000000  0.4470000000000  0.4933070000000 1.0
C      1  0.4673680000000  0.5529180000000  0.5072740000000 1.0
C      1  0.5532090000000  0.4929760000000  0.5331720000000 1.0
C      1  0.4472910000000  0.5069430000000  0.5331730000000 1.0
C      1  0.4472900000000  0.4929760000000  0.4674080000000 1.0
C      1  0.4932670000000  0.5328420000000  0.5532520000000 1.0
C      1  0.5072330000000  0.4670770000000  0.5532490000000 1.0
C      1  0.5072340000000  0.5328420000000  0.4473320000000 1.0
C      1  0.5066830000000  0.4688150000000  0.5817020000000 1.0
C      1  0.4691060000000  0.5813710000000  0.5067250000000 1.0
C      1  0.5816610000000  0.5063920000000  0.4691470000000 1.0
C      1  0.5066830000000  0.5311030000000  0.4188790000000 1.0
C      1  0.4938160000000  0.4688150000000  0.4188780000000 1.0
C      1  0.4938160000000  0.5311030000000  0.5817040000000 1.0
C      1  0.4691060000000  0.4185470000000  0.4938570000000 1.0
C      1  0.5313930000000  0.5813710000000  0.4938570000000 1.0
C      1  0.5313940000000  0.4185450000000  0.5067250000000 1.0
C      1  0.5816620000000  0.4935250000000  0.5314350000000 1.0
C      1  0.4188380000000  0.5063920000000  0.5314340000000 1.0
C      1  0.4188370000000  0.4935250000000  0.4691470000000 1.0
C      1  0.4938160000000  0.4688150000000  0.5817040000000 1.0
C      1  0.5313940000000  0.5813720000000  0.5067250000000 1.0
C      1  0.4188380000000  0.5063920000000  0.4691470000000 1.0
C      1  0.4938160000000  0.5311030000000  0.4188770000000 1.0
C      1  0.5066830000000  0.4688150000000  0.4188790000000 1.0
C      1  0.5066830000000  0.5311020000000  0.5817030000000 1.0
C      1  0.5313930000000  0.4185470000000  0.4938570000000 1.0
C      1  0.4691060000000  0.5813700000000  0.4938570000000 1.0
C      1  0.4691060000000  0.4185460000000  0.5067250000000 1.0
C      1  0.4188370000000  0.4935250000000  0.5314350000000 1.0
C      1  0.5816610000000  0.5063920000000  0.5314340000000 1.0
C      1  0.5816620000000  0.4935250000000  0.4691470000000 1.0
C      1  0.5583990000000  0.4601130000000  0.5437750000000 1.0
C      1  0.4604030000000  0.5434430000000  0.5584400000000 1.0
C      1  0.5437340000000  0.5581080000000  0.4604440000000 1.0
C      1  0.5583990000000  0.5398050000000  0.4568060000000 1.0
C      1  0.4421000000000  0.4601120000000  0.4568060000000 1.0
C      1  0.4421010000000  0.5398050000000  0.5437750000000 1.0
C      1  0.4604030000000  0.4564750000000  0.4421420000000 1.0
C      1  0.5400960000000  0.5434430000000  0.4421420000000 1.0
C      1  0.5400960000000  0.4564750000000  0.5584400000000 1.0
C      1  0.5437340000000  0.4418100000000  0.5401370000000 1.0
C      1  0.4567660000000  0.5581080000000  0.5401370000000 1.0
C      1  0.4567660000000  0.4418100000000  0.4604440000000 1.0
C      1  0.4421010000000  0.4601120000000  0.5437750000000 1.0
C      1  0.5400960000000  0.5434430000000  0.5584400000000 1.0
C      1  0.4567660000000  0.5581080000000  0.4604450000000 1.0
C      1  0.4421010000000  0.5398050000000  0.4568060000000 1.0
C      1  0.5583990000000  0.4601130000000  0.4568060000000 1.0
C      1  0.5583990000000  0.5398050000000  0.5437750000000 1.0
C      1  0.5400960000000  0.4564750000000  0.4421420000000 1.0
C      1  0.4604030000000  0.5434430000000  0.4421410000000 1.0
C      1  0.4604030000000  0.4564750000000  0.5584400000000 1.0
C      1  0.4567660000000  0.4418100000000  0.5401370000000 1.0
C      1  0.5437340000000  0.5581080000000  0.5401370000000 1.0
C      1  0.5437340000000  0.4418100000000  0.4604440000000 1.0
C      1  0.5448950000000  0.4698670000000  0.4401320000000 1.0
C      1  0.4701580000000  0.4398000000000  0.5449370000000 1.0
C      1  0.4400910000000  0.5446050000000  0.4701990000000 1.0
C      1  0.5448950000000  0.5300510000000  0.5604500000000 1.0
C      1  0.4556030000000  0.4698670000000  0.5604500000000 1.0
C      1  0.4556030000000  0.5300510000000  0.4401310000000 1.0
C      1  0.4701580000000  0.5601180000000  0.4556450000000 1.0
C      1  0.5303420000000  0.4398000000000  0.4556450000000 1.0
C      1  0.5303420000000  0.5601190000000  0.5449370000000 1.0
C      1  0.4400910000000  0.4553130000000  0.5303830000000 1.0
C      1  0.5604090000000  0.5446050000000  0.5303830000000 1.0
C      1  0.5604090000000  0.4553130000000  0.4701990000000 1.0
C      1  0.4556030000000  0.4698670000000  0.4401310000000 1.0
C      1  0.5303420000000  0.4398000000000  0.5449370000000 1.0
C      1  0.5604090000000  0.5446050000000  0.4701990000000 1.0
C      1  0.4556030000000  0.5300510000000  0.5604500000000 1.0
C      1  0.5448950000000  0.4698670000000  0.5604490000000 1.0
C      1  0.5448950000000  0.5300510000000  0.4401320000000 1.0
C      1  0.5303420000000  0.5601180000000  0.4556450000000 1.0
C      1  0.4701580000000  0.4398000000000  0.4556450000000 1.0
C      1  0.4701580000000  0.5601180000000  0.5449370000000 1.0
C      1  0.5604090000000  0.4553130000000  0.5303830000000 1.0
C      1  0.4400910000000  0.5446050000000  0.5303830000000 1.0
C      1  0.4400910000000  0.4553130000000  0.4701990000000 1.0
C      1  0.5575350000000  0.5447810000000  0.4932200000000 1.0
C      1  0.5450700000000  0.4928890000000  0.5575750000000 1.0
C      1  0.4931790000000  0.5572440000000  0.5451130000000 1.0
C      1  0.5575350000000  0.4551360000000  0.5073610000000 1.0
C      1  0.4429660000000  0.5447800000000  0.5073610000000 1.0
C      1  0.4429650000000  0.4551370000000  0.4932200000000 1.0
C      1  0.5450710000000  0.5070290000000  0.4430060000000 1.0
C      1  0.4554270000000  0.4928890000000  0.4430050000000 1.0
C      1  0.4554280000000  0.5070290000000  0.5575760000000 1.0
C      1  0.4931790000000  0.4426750000000  0.4554700000000 1.0
C      1  0.5073200000000  0.5572440000000  0.4554690000000 1.0
C      1  0.5073200000000  0.4426740000000  0.5451130000000 1.0
C      1  0.4429660000000  0.5447800000000  0.4932200000000 1.0
C      1  0.4554280000000  0.4928890000000  0.5575760000000 1.0
C      1  0.5073200000000  0.5572450000000  0.5451130000000 1.0
C      1  0.4429650000000  0.4551370000000  0.5073610000000 1.0
C      1  0.5575350000000  0.5447810000000  0.5073610000000 1.0
C      1  0.5575350000000  0.4551370000000  0.4932200000000 1.0
C      1  0.4554270000000  0.5070290000000  0.4430050000000 1.0
C      1  0.5450710000000  0.4928890000000  0.4430060000000 1.0
C      1  0.5450700000000  0.5070290000000  0.5575750000000 1.0
C      1  0.5073200000000  0.4426740000000  0.4554700000000 1.0
C      1  0.4931790000000  0.5572440000000  0.4554690000000 1.0
C      1  0.4931790000000  0.4426740000000  0.5451130000000 1.0
C      1  0.4402620000000  0.4870680000000  0.5220790000000 1.0
C      1  0.4873590000000  0.5217470000000  0.4403010000000 1.0
C      1  0.5220380000000  0.4399720000000  0.4873980000000 1.0
C      1  0.4402630000000  0.5128510000000  0.4785020000000 1.0
C      1  0.5602380000000  0.4870670000000  0.4785030000000 1.0
C      1  0.5602360000000  0.5128510000000  0.5220780000000 1.0
C      1  0.4873590000000  0.4781710000000  0.5602800000000 1.0
C      1  0.5131430000000  0.5217470000000  0.5602770000000 1.0
C      1  0.5131420000000  0.4781710000000  0.4403050000000 1.0
C      1  0.5220380000000  0.5599480000000  0.5131820000000 1.0
C      1  0.4784620000000  0.4399710000000  0.5131820000000 1.0
C      1  0.4784620000000  0.5599450000000  0.4873980000000 1.0
C      1  0.5602370000000  0.4870670000000  0.5220780000000 1.0
C      1  0.5131430000000  0.5217470000000  0.4403050000000 1.0
C      1  0.4784620000000  0.4399730000000  0.4873980000000 1.0
C      1  0.5602360000000  0.5128510000000  0.4785030000000 1.0
C      1  0.4402620000000  0.4870680000000  0.4785020000000 1.0
C      1  0.4402640000000  0.5128510000000  0.5220790000000 1.0
C      1  0.5131420000000  0.4781710000000  0.5602760000000 1.0
C      1  0.4873590000000  0.5217470000000  0.5602800000000 1.0
C      1  0.4873590000000  0.4781710000000  0.4403020000000 1.0
C      1  0.4784620000000  0.5599470000000  0.5131820000000 1.0
C      1  0.5220380000000  0.4399700000000  0.5131820000000 1.0
C      1  0.5220380000000  0.5599460000000  0.4873980000000 1.0
C      1  0.4264920000000  0.4826280000000  0.4729920000000 1.0
C      1  0.4829180000000  0.4726610000000  0.4265330000000 1.0
C      1  0.4729510000000  0.4262030000000  0.4829600000000 1.0
C      1  0.4264940000000  0.5172900000000  0.5275890000000 1.0
C      1  0.5740060000000  0.4826270000000  0.5275890000000 1.0
C      1  0.5740060000000  0.5172900000000  0.4729920000000 1.0
C      1  0.4829180000000  0.5272580000000  0.5740490000000 1.0
C      1  0.5175810000000  0.4726600000000  0.5740470000000 1.0
C      1  0.5175810000000  0.5272580000000  0.4265340000000 1.0
C      1  0.4729510000000  0.5737160000000  0.5176220000000 1.0
C      1  0.5275480000000  0.4262010000000  0.5176220000000 1.0
C      1  0.5275490000000  0.5737160000000  0.4829600000000 1.0
C      1  0.5740070000000  0.4826270000000  0.4729920000000 1.0
C      1  0.5175810000000  0.4726600000000  0.4265350000000 1.0
C      1  0.5275490000000  0.4262020000000  0.4829600000000 1.0
C      1  0.5740060000000  0.5172900000000  0.5275890000000 1.0
C      1  0.4264930000000  0.4826280000000  0.5275890000000 1.0
C      1  0.4264930000000  0.5172900000000  0.4729920000000 1.0
C      1  0.5175810000000  0.5272580000000  0.5740470000000 1.0
C      1  0.4829180000000  0.4726600000000  0.5740480000000 1.0
C      1  0.4829180000000  0.5272580000000  0.4265330000000 1.0
C      1  0.5275490000000  0.5737170000000  0.5176220000000 1.0
C      1  0.4729510000000  0.4262020000000  0.5176220000000 1.0
C      1  0.4729510000000  0.5737150000000  0.4829600000000 1.0
C      1  0.4818440000000  0.4336630000000  0.4604620000000 1.0
C      1  0.4339530000000  0.4601290000000  0.4818850000000 1.0
C      1  0.4604200000000  0.4815530000000  0.4339940000000 1.0
C      1  0.4818440000000  0.5662550000000  0.5401210000000 1.0
C      1  0.5186560000000  0.4336620000000  0.5401210000000 1.0
C      1  0.5186560000000  0.5662550000000  0.4604620000000 1.0
C      1  0.4339540000000  0.5397880000000  0.5186970000000 1.0
C      1  0.5665460000000  0.4601290000000  0.5186970000000 1.0
C      1  0.5665460000000  0.5397880000000  0.4818850000000 1.0
C      1  0.4604200000000  0.5183650000000  0.5665880000000 1.0
C      1  0.5400780000000  0.4815530000000  0.5665860000000 1.0
C      1  0.5400790000000  0.5183650000000  0.4339950000000 1.0
C      1  0.5186560000000  0.4336630000000  0.4604620000000 1.0
C      1  0.5665460000000  0.4601290000000  0.4818840000000 1.0
C      1  0.5400790000000  0.4815530000000  0.4339950000000 1.0
C      1  0.5186560000000  0.5662560000000  0.5401210000000 1.0
C      1  0.4818440000000  0.4336630000000  0.5401210000000 1.0
C      1  0.4818440000000  0.5662550000000  0.4604620000000 1.0
C      1  0.5665460000000  0.5397880000000  0.5186970000000 1.0
C      1  0.4339540000000  0.4601290000000  0.5186970000000 1.0
C      1  0.4339540000000  0.5397880000000  0.4818850000000 1.0
C      1  0.5400790000000  0.5183650000000  0.5665870000000 1.0
C      1  0.4604200000000  0.4815530000000  0.5665870000000 1.0
C      1  0.4604200000000  0.5183650000000  0.4339940000000 1.0
C      1  0.4730940000000  0.5490380000000  0.5540780000000 1.0
C      1  0.5493290000000  0.5537460000000  0.4731350000000 1.0
C      1  0.5540360000000  0.4728040000000  0.5493690000000 1.0
C      1  0.4730950000000  0.4508810000000  0.4465040000000 1.0
C      1  0.5274050000000  0.5490380000000  0.4465040000000 1.0
C      1  0.5274050000000  0.4508800000000  0.5540780000000 1.0
C      1  0.5493290000000  0.4461710000000  0.5274460000000 1.0
C      1  0.4511720000000  0.5537460000000  0.5274460000000 1.0
C      1  0.4511710000000  0.4461720000000  0.4731350000000 1.0
C      1  0.5540360000000  0.5271140000000  0.4512120000000 1.0
C      1  0.4464620000000  0.4728040000000  0.4512120000000 1.0
C      1  0.4464630000000  0.5271140000000  0.5493700000000 1.0
C      1  0.5274050000000  0.5490380000000  0.5540780000000 1.0
C      1  0.4511710000000  0.5537450000000  0.4731360000000 1.0
C      1  0.4464630000000  0.4728040000000  0.5493690000000 1.0
C      1  0.5274050000000  0.4508800000000  0.4465040000000 1.0
C      1  0.4730950000000  0.5490380000000  0.4465040000000 1.0
C      1  0.4730940000000  0.4508800000000  0.5540780000000 1.0
C      1  0.4511710000000  0.4461720000000  0.5274460000000 1.0
C      1  0.5493290000000  0.5537460000000  0.5274460000000 1.0
C      1  0.5493290000000  0.4461720000000  0.4731350000000 1.0
C      1  0.4464620000000  0.5271140000000  0.4512110000000 1.0
C      1  0.5540370000000  0.4728040000000  0.4512120000000 1.0
C      1  0.5540360000000  0.5271140000000  0.5493690000000 1.0
C      1  0.4792210000000  0.5067750000000  0.5753190000000 1.0
C      1  0.5070660000000  0.5749860000000  0.4792640000000 1.0
C      1  0.5752770000000  0.4789310000000  0.5071070000000 1.0
C      1  0.4792210000000  0.4931430000000  0.4252620000000 1.0
C      1  0.5212760000000  0.5067750000000  0.4252640000000 1.0
C      1  0.5212760000000  0.4931430000000  0.5753170000000 1.0
C      1  0.5070660000000  0.4249310000000  0.5213190000000 1.0
C      1  0.4934340000000  0.5749870000000  0.5213190000000 1.0
C      1  0.4934340000000  0.4249320000000  0.4792640000000 1.0
C      1  0.5752760000000  0.5209860000000  0.4934750000000 1.0
C      1  0.4252220000000  0.4789310000000  0.4934750000000 1.0
C      1  0.4252230000000  0.5209860000000  0.5071070000000 1.0
C      1  0.5212760000000  0.5067750000000  0.5753170000000 1.0
C      1  0.4934340000000  0.5749860000000  0.4792640000000 1.0
C      1  0.4252220000000  0.4789310000000  0.5071070000000 1.0
C      1  0.5212760000000  0.4931430000000  0.4252640000000 1.0
C      1  0.4792210000000  0.5067750000000  0.4252620000000 1.0
C      1  0.4792210000000  0.4931430000000  0.5753190000000 1.0
C      1  0.4934340000000  0.4249310000000  0.5213190000000 1.0
C      1  0.5070660000000  0.5749870000000  0.5213190000000 1.0
C      1  0.5070660000000  0.4249320000000  0.4792640000000 1.0
C      1  0.4252230000000  0.5209860000000  0.4934750000000 1.0
C      1  0.5752770000000  0.4789310000000  0.4934750000000 1.0
C      1  0.5752760000000  0.5209860000000  0.5071070000000 1.0
C      1  0.4488030000000  0.5134590000000  0.4547290000000 1.0
C      1  0.5137500000000  0.4543980000000  0.4488450000000 1.0
C      1  0.4546890000000  0.4485120000000  0.5137910000000 1.0
C      1  0.4488030000000  0.4864590000000  0.5458520000000 1.0
C      1  0.5516950000000  0.5134590000000  0.5458510000000 1.0
C      1  0.5516960000000  0.4864590000000  0.4547300000000 1.0
C      1  0.5137500000000  0.5455210000000  0.5517380000000 1.0
C      1  0.4867500000000  0.4543980000000  0.5517380000000 1.0
C      1  0.4867500000000  0.5455200000000  0.4488440000000 1.0
C      1  0.4546890000000  0.5514050000000  0.4867910000000 1.0
C      1  0.5458120000000  0.4485120000000  0.4867910000000 1.0
C      1  0.5458110000000  0.5514060000000  0.5137910000000 1.0
C      1  0.5516960000000  0.5134590000000  0.4547290000000 1.0
C      1  0.4867500000000  0.4543990000000  0.4488440000000 1.0
C      1  0.5458110000000  0.4485110000000  0.5137910000000 1.0
C      1  0.5516960000000  0.4864590000000  0.5458510000000 1.0
C      1  0.4488030000000  0.5134590000000  0.5458520000000 1.0
C      1  0.4488020000000  0.4864590000000  0.4547290000000 1.0
C      1  0.4867500000000  0.5455200000000  0.5517380000000 1.0
C      1  0.5137500000000  0.4543980000000  0.5517370000000 1.0
C      1  0.5137500000000  0.5455200000000  0.4488440000000 1.0
C      1  0.5458110000000  0.5514060000000  0.4867910000000 1.0
C      1  0.4546890000000  0.4485130000000  0.4867900000000 1.0
C      1  0.4546900000000  0.5514050000000  0.5137910000000 1.0
C      1  0.4245480000000  0.5288670000000  0.5187670000000 1.0
C      1  0.5291580000000  0.5184350000000  0.4245890000000 1.0
C      1  0.5187260000000  0.4242560000000  0.5292000000000 1.0
C      1  0.4245470000000  0.4710500000000  0.4818150000000 1.0
C      1  0.5759520000000  0.5288670000000  0.4818150000000 1.0
C      1  0.5759520000000  0.4710500000000  0.5187670000000 1.0
C      1  0.5291580000000  0.4814830000000  0.5759930000000 1.0
C      1  0.4713400000000  0.5184350000000  0.5759940000000 1.0
C      1  0.4713400000000  0.4814830000000  0.4245870000000 1.0
C      1  0.5187260000000  0.5756620000000  0.4713820000000 1.0
C      1  0.4817740000000  0.4242570000000  0.4713820000000 1.0
C      1  0.4817740000000  0.5756620000000  0.5292000000000 1.0
C      1  0.5759520000000  0.5288670000000  0.5187670000000 1.0
C      1  0.4713400000000  0.5184350000000  0.4245870000000 1.0
C      1  0.4817740000000  0.4242560000000  0.5292000000000 1.0
C      1  0.5759530000000  0.4710500000000  0.4818140000000 1.0
C      1  0.4245480000000  0.5288670000000  0.4818150000000 1.0
C      1  0.4245470000000  0.4710500000000  0.5187670000000 1.0
C      1  0.4713400000000  0.4814830000000  0.5759940000000 1.0
C      1  0.5291580000000  0.5184350000000  0.5759930000000 1.0
C      1  0.5291580000000  0.4814830000000  0.4245890000000 1.0
C      1  0.4817740000000  0.5756610000000  0.4713820000000 1.0
C      1  0.5187260000000  0.4242570000000  0.4713820000000 1.0
C      1  0.5187260000000  0.5756630000000  0.5292000000000 1.0
C      1  0.5141940000000  0.5075230000000  0.5618280000000 1.0
C      1  0.5078140000000  0.5614980000000  0.5142360000000 1.0
C      1  0.5617870000000  0.5139040000000  0.5078550000000 1.0
C      1  0.5141940000000  0.4923950000000  0.4387540000000 1.0
C      1  0.4863050000000  0.5075230000000  0.4387510000000 1.0
C      1  0.4863050000000  0.4923950000000  0.5618300000000 1.0
C      1  0.5078140000000  0.4384220000000  0.4863460000000 1.0
C      1  0.4926860000000  0.5614960000000  0.4863460000000 1.0
C      1  0.4926860000000  0.4384200000000  0.5142360000000 1.0
C      1  0.5617890000000  0.4860140000000  0.4927260000000 1.0
C      1  0.4387130000000  0.5139040000000  0.4927260000000 1.0
C      1  0.4387110000000  0.4860140000000  0.5078550000000 1.0
C      1  0.4863050000000  0.5075230000000  0.5618310000000 1.0
C      1  0.4926860000000  0.5614980000000  0.5142360000000 1.0
C      1  0.4387130000000  0.5139040000000  0.5078550000000 1.0
C      1  0.4863050000000  0.4923950000000  0.4387510000000 1.0
C      1  0.5141940000000  0.5075230000000  0.4387540000000 1.0
C      1  0.5141940000000  0.4923950000000  0.5618280000000 1.0
C      1  0.4926860000000  0.4384220000000  0.4863460000000 1.0
C      1  0.5078140000000  0.5614960000000  0.4863460000000 1.0
C      1  0.5078140000000  0.4384200000000  0.5142360000000 1.0
C      1  0.4387110000000  0.4860140000000  0.4927260000000 1.0
C      1  0.5617870000000  0.5139040000000  0.4927260000000 1.0
C      1  0.5617880000000  0.4860140000000  0.5078550000000 1.0
C      1  0.4506630000000  0.5495460000000  0.5498770000000 1.0
C      1  0.5498360000000  0.5495460000000  0.4507040000000 1.0
C      1  0.5498360000000  0.4503720000000  0.5498770000000 1.0
C      1  0.4506630000000  0.4503720000000  0.4507040000000 1.0
C      1  0.4506630000000  0.5495460000000  0.4507040000000 1.0
C      1  0.4506630000000  0.4503720000000  0.5498770000000 1.0
C      1  0.5498360000000  0.4503720000000  0.4507040000000 1.0
C      1  0.5498360000000  0.5495450000000  0.5498770000000 1.0
END
