TITL C-1379268-1316-288 -1.97708612368588e-07 1000000 -3403.10209872263 0 0 480 (Th) n - 1
REM
REM in /nfs/bkarasulu/CARBON/AIRSS/Generating-Clusters/GAP-ML-2020/Higher-Symm/Selected-Sizes/TryA-Only_Ih-Symm/Larger-Clusters/Try2-MINAMP_6A
REM
REM
REM
REM
REM
REM ./C.cell (31579ac4e95a012ec27f3239692ae8a5)
REM
REM compiler GCC version 9.2.1 20190827 (Red Hat 9.2.1-1)
REM options -cpp -mtune=generic -march=x86-64 -g -O0 -fpre-include=/usr/include/finclude/math-vector-fortran.h
REM seed 1048167259 -1473584911 1822880713 -1833580472 -2114444134 1417164332 1808819927 1330586266 -352923391 928974092 238613287 -1875600368 -1050517074 221240134 1419538975 867983527 1379801484 -1165715098 -675435756 192881020 -967124452 1502282558 -509138890 -844893346 1685880360 -1360198556 -1226282720 -702584446 -1247031741 -915902586 1331595513 2059010545 -1687755804
REM
CELL 1.54180  100.00000  100.00000  100.00000   90.00000   90.00000   90.00000
LATT -1
SFAC C  
C      1  0.5716830000000  0.4669280000000  0.4626880000000 1.0
C      1  0.4669280000000  0.4626880000000  0.5716830000000 1.0
C      1  0.4626880000000  0.5716830000000  0.4669280000000 1.0
C      1  0.5716830000000  0.5330720000000  0.5373120000000 1.0
C      1  0.4283170000000  0.4669280000000  0.5373120000000 1.0
C      1  0.4283170000000  0.5330720000000  0.4626880000000 1.0
C      1  0.4669280000000  0.5373120000000  0.4283170000000 1.0
C      1  0.5330720000000  0.4626880000000  0.4283170000000 1.0
C      1  0.5330720000000  0.5373120000000  0.5716830000000 1.0
C      1  0.4626880000000  0.4283170000000  0.5330720000000 1.0
C      1  0.5373120000000  0.5716830000000  0.5330720000000 1.0
C      1  0.5373120000000  0.4283170000000  0.4669280000000 1.0
C      1  0.4283170000000  0.4669280000000  0.4626880000000 1.0
C      1  0.5330720000000  0.4626880000000  0.5716830000000 1.0
C      1  0.5373120000000  0.5716830000000  0.4669280000000 1.0
C      1  0.4283170000000  0.5330720000000  0.5373120000000 1.0
C      1  0.5716830000000  0.4669280000000  0.5373120000000 1.0
C      1  0.5716830000000  0.5330720000000  0.4626880000000 1.0
C      1  0.5330720000000  0.5373120000000  0.4283170000000 1.0
C      1  0.4669280000000  0.4626880000000  0.4283170000000 1.0
C      1  0.4669280000000  0.5373120000000  0.5716830000000 1.0
C      1  0.5373120000000  0.4283170000000  0.5330720000000 1.0
C      1  0.4626880000000  0.5716830000000  0.5330720000000 1.0
C      1  0.4626880000000  0.4283170000000  0.4669280000000 1.0
C      1  0.4494820000000  0.4609450000000  0.5122730000000 1.0
C      1  0.4609450000000  0.5122730000000  0.4494820000000 1.0
C      1  0.5122730000000  0.4494820000000  0.4609450000000 1.0
C      1  0.4494820000000  0.5390550000000  0.4877270000000 1.0
C      1  0.5505180000000  0.4609450000000  0.4877270000000 1.0
C      1  0.5505180000000  0.5390550000000  0.5122730000000 1.0
C      1  0.4609450000000  0.4877270000000  0.5505180000000 1.0
C      1  0.5390550000000  0.5122730000000  0.5505180000000 1.0
C      1  0.5390550000000  0.4877270000000  0.4494820000000 1.0
C      1  0.5122730000000  0.5505180000000  0.5390550000000 1.0
C      1  0.4877270000000  0.4494820000000  0.5390550000000 1.0
C      1  0.4877270000000  0.5505180000000  0.4609450000000 1.0
C      1  0.5505180000000  0.4609450000000  0.5122730000000 1.0
C      1  0.5390550000000  0.5122730000000  0.4494820000000 1.0
C      1  0.4877270000000  0.4494820000000  0.4609450000000 1.0
C      1  0.5505180000000  0.5390550000000  0.4877270000000 1.0
C      1  0.4494820000000  0.4609450000000  0.4877270000000 1.0
C      1  0.4494820000000  0.5390550000000  0.5122730000000 1.0
C      1  0.5390550000000  0.4877270000000  0.5505180000000 1.0
C      1  0.4609450000000  0.5122730000000  0.5505180000000 1.0
C      1  0.4609450000000  0.4877270000000  0.4494820000000 1.0
C      1  0.4877270000000  0.5505180000000  0.5390550000000 1.0
C      1  0.5122730000000  0.4494820000000  0.5390550000000 1.0
C      1  0.5122730000000  0.5505180000000  0.4609450000000 1.0
C      1  0.5782660000000  0.5266070000000  0.4744220000000 1.0
C      1  0.5266070000000  0.4744220000000  0.5782660000000 1.0
C      1  0.4744220000000  0.5782660000000  0.5266070000000 1.0
C      1  0.5782660000000  0.4733930000000  0.5255780000000 1.0
C      1  0.4217340000000  0.5266070000000  0.5255780000000 1.0
C      1  0.4217340000000  0.4733930000000  0.4744220000000 1.0
C      1  0.5266070000000  0.5255780000000  0.4217340000000 1.0
C      1  0.4733930000000  0.4744220000000  0.4217340000000 1.0
C      1  0.4733930000000  0.5255780000000  0.5782660000000 1.0
C      1  0.4744220000000  0.4217340000000  0.4733930000000 1.0
C      1  0.5255780000000  0.5782660000000  0.4733930000000 1.0
C      1  0.5255780000000  0.4217340000000  0.5266070000000 1.0
C      1  0.4217340000000  0.5266070000000  0.4744220000000 1.0
C      1  0.4733930000000  0.4744220000000  0.5782660000000 1.0
C      1  0.5255780000000  0.5782660000000  0.5266070000000 1.0
C      1  0.4217340000000  0.4733930000000  0.5255780000000 1.0
C      1  0.5782660000000  0.5266070000000  0.5255780000000 1.0
C      1  0.5782660000000  0.4733930000000  0.4744220000000 1.0
C      1  0.4733930000000  0.5255780000000  0.4217340000000 1.0
C      1  0.5266070000000  0.4744220000000  0.4217340000000 1.0
C      1  0.5266070000000  0.5255780000000  0.5782660000000 1.0
C      1  0.5255780000000  0.4217340000000  0.4733930000000 1.0
C      1  0.4744220000000  0.5782660000000  0.4733930000000 1.0
C      1  0.4744220000000  0.4217340000000  0.5266070000000 1.0
C      1  0.4845380000000  0.4809260000000  0.4171180000000 1.0
C      1  0.4809260000000  0.4171180000000  0.4845380000000 1.0
C      1  0.4171180000000  0.4845380000000  0.4809260000000 1.0
C      1  0.4845380000000  0.5190740000000  0.5828820000000 1.0
C      1  0.5154620000000  0.4809260000000  0.5828820000000 1.0
C      1  0.5154620000000  0.5190740000000  0.4171180000000 1.0
C      1  0.4809260000000  0.5828820000000  0.5154620000000 1.0
C      1  0.5190740000000  0.4171180000000  0.5154620000000 1.0
C      1  0.5190740000000  0.5828820000000  0.4845380000000 1.0
C      1  0.4171180000000  0.5154620000000  0.5190740000000 1.0
C      1  0.5828820000000  0.4845380000000  0.5190740000000 1.0
C      1  0.5828820000000  0.5154620000000  0.4809260000000 1.0
C      1  0.5154620000000  0.4809260000000  0.4171180000000 1.0
C      1  0.5190740000000  0.4171180000000  0.4845380000000 1.0
C      1  0.5828820000000  0.4845380000000  0.4809260000000 1.0
C      1  0.5154620000000  0.5190740000000  0.5828820000000 1.0
C      1  0.4845380000000  0.4809260000000  0.5828820000000 1.0
C      1  0.4845380000000  0.5190740000000  0.4171180000000 1.0
C      1  0.5190740000000  0.5828820000000  0.5154620000000 1.0
C      1  0.4809260000000  0.4171180000000  0.5154620000000 1.0
C      1  0.4809260000000  0.5828820000000  0.4845380000000 1.0
C      1  0.5828820000000  0.5154620000000  0.5190740000000 1.0
C      1  0.4171180000000  0.4845380000000  0.5190740000000 1.0
C      1  0.4171180000000  0.5154620000000  0.4809260000000 1.0
C      1  0.4500370000000  0.5656990000000  0.5273680000000 1.0
C      1  0.5656990000000  0.5273680000000  0.4500370000000 1.0
C      1  0.5273680000000  0.4500370000000  0.5656990000000 1.0
C      1  0.4500370000000  0.4343010000000  0.4726320000000 1.0
C      1  0.5499630000000  0.5656990000000  0.4726320000000 1.0
C      1  0.5499630000000  0.4343010000000  0.5273680000000 1.0
C      1  0.5656990000000  0.4726320000000  0.5499630000000 1.0
C      1  0.4343010000000  0.5273680000000  0.5499630000000 1.0
C      1  0.4343010000000  0.4726320000000  0.4500370000000 1.0
C      1  0.5273680000000  0.5499630000000  0.4343010000000 1.0
C      1  0.4726320000000  0.4500370000000  0.4343010000000 1.0
C      1  0.4726320000000  0.5499630000000  0.5656990000000 1.0
C      1  0.5499630000000  0.5656990000000  0.5273680000000 1.0
C      1  0.4343010000000  0.5273680000000  0.4500370000000 1.0
C      1  0.4726320000000  0.4500370000000  0.5656990000000 1.0
C      1  0.5499630000000  0.4343010000000  0.4726320000000 1.0
C      1  0.4500370000000  0.5656990000000  0.4726320000000 1.0
C      1  0.4500370000000  0.4343010000000  0.5273680000000 1.0
C      1  0.4343010000000  0.4726320000000  0.5499630000000 1.0
C      1  0.5656990000000  0.5273680000000  0.5499630000000 1.0
C      1  0.5656990000000  0.4726320000000  0.4500370000000 1.0
C      1  0.4726320000000  0.5499630000000  0.4343010000000 1.0
C      1  0.5273680000000  0.4500370000000  0.4343010000000 1.0
C      1  0.5273680000000  0.5499630000000  0.5656990000000 1.0
C      1  0.4432030000000  0.4663520000000  0.4392720000000 1.0
C      1  0.4663520000000  0.4392720000000  0.4432030000000 1.0
C      1  0.4392720000000  0.4432030000000  0.4663520000000 1.0
C      1  0.4432030000000  0.5336480000000  0.5607280000000 1.0
C      1  0.5567970000000  0.4663520000000  0.5607280000000 1.0
C      1  0.5567970000000  0.5336480000000  0.4392720000000 1.0
C      1  0.4663520000000  0.5607280000000  0.5567970000000 1.0
C      1  0.5336480000000  0.4392720000000  0.5567970000000 1.0
C      1  0.5336480000000  0.5607280000000  0.4432030000000 1.0
C      1  0.4392720000000  0.5567970000000  0.5336480000000 1.0
C      1  0.5607280000000  0.4432030000000  0.5336480000000 1.0
C      1  0.5607280000000  0.5567970000000  0.4663520000000 1.0
C      1  0.5567970000000  0.4663520000000  0.4392720000000 1.0
C      1  0.5336480000000  0.4392720000000  0.4432030000000 1.0
C      1  0.5607280000000  0.4432030000000  0.4663520000000 1.0
C      1  0.5567970000000  0.5336480000000  0.5607280000000 1.0
C      1  0.4432030000000  0.4663520000000  0.5607280000000 1.0
C      1  0.4432030000000  0.5336480000000  0.4392720000000 1.0
C      1  0.5336480000000  0.5607280000000  0.5567970000000 1.0
C      1  0.4663520000000  0.4392720000000  0.5567970000000 1.0
C      1  0.4663520000000  0.5607280000000  0.4432030000000 1.0
C      1  0.5607280000000  0.5567970000000  0.5336480000000 1.0
C      1  0.4392720000000  0.4432030000000  0.5336480000000 1.0
C      1  0.4392720000000  0.5567970000000  0.4663520000000 1.0
C      1  0.5352950000000  0.4778860000000  0.4586410000000 1.0
C      1  0.4778860000000  0.4586410000000  0.5352950000000 1.0
C      1  0.4586410000000  0.5352950000000  0.4778860000000 1.0
C      1  0.5352950000000  0.5221140000000  0.5413590000000 1.0
C      1  0.4647050000000  0.4778860000000  0.5413590000000 1.0
C      1  0.4647050000000  0.5221140000000  0.4586410000000 1.0
C      1  0.4778860000000  0.5413590000000  0.4647050000000 1.0
C      1  0.5221140000000  0.4586410000000  0.4647050000000 1.0
C      1  0.5221140000000  0.5413590000000  0.5352950000000 1.0
C      1  0.4586410000000  0.4647050000000  0.5221140000000 1.0
C      1  0.5413590000000  0.5352950000000  0.5221140000000 1.0
C      1  0.5413590000000  0.4647050000000  0.4778860000000 1.0
C      1  0.4647050000000  0.4778860000000  0.4586410000000 1.0
C      1  0.5221140000000  0.4586410000000  0.5352950000000 1.0
C      1  0.5413590000000  0.5352950000000  0.4778860000000 1.0
C      1  0.4647050000000  0.5221140000000  0.5413590000000 1.0
C      1  0.5352950000000  0.4778860000000  0.5413590000000 1.0
C      1  0.5352950000000  0.5221140000000  0.4586410000000 1.0
C      1  0.5221140000000  0.5413590000000  0.4647050000000 1.0
C      1  0.4778860000000  0.4586410000000  0.4647050000000 1.0
C      1  0.4778860000000  0.5413590000000  0.5352950000000 1.0
C      1  0.5413590000000  0.4647050000000  0.5221140000000 1.0
C      1  0.4586410000000  0.5352950000000  0.5221140000000 1.0
C      1  0.4586410000000  0.4647050000000  0.4778860000000 1.0
C      1  0.5168170000000  0.4254210000000  0.4610580000000 1.0
C      1  0.4254210000000  0.4610580000000  0.5168170000000 1.0
C      1  0.4610580000000  0.5168170000000  0.4254210000000 1.0
C      1  0.5168170000000  0.5745790000000  0.5389420000000 1.0
C      1  0.4831830000000  0.4254210000000  0.5389420000000 1.0
C      1  0.4831830000000  0.5745790000000  0.4610580000000 1.0
C      1  0.4254210000000  0.5389420000000  0.4831830000000 1.0
C      1  0.5745790000000  0.4610580000000  0.4831830000000 1.0
C      1  0.5745790000000  0.5389420000000  0.5168170000000 1.0
C      1  0.4610580000000  0.4831830000000  0.5745790000000 1.0
C      1  0.5389420000000  0.5168170000000  0.5745790000000 1.0
C      1  0.5389420000000  0.4831830000000  0.4254210000000 1.0
C      1  0.4831830000000  0.4254210000000  0.4610580000000 1.0
C      1  0.5745790000000  0.4610580000000  0.5168170000000 1.0
C      1  0.5389420000000  0.5168170000000  0.4254210000000 1.0
C      1  0.4831830000000  0.5745790000000  0.5389420000000 1.0
C      1  0.5168170000000  0.4254210000000  0.5389420000000 1.0
C      1  0.5168170000000  0.5745790000000  0.4610580000000 1.0
C      1  0.5745790000000  0.5389420000000  0.4831830000000 1.0
C      1  0.4254210000000  0.4610580000000  0.4831830000000 1.0
C      1  0.4254210000000  0.5389420000000  0.5168170000000 1.0
C      1  0.5389420000000  0.4831830000000  0.5745790000000 1.0
C      1  0.4610580000000  0.5168170000000  0.5745790000000 1.0
C      1  0.4610580000000  0.4831830000000  0.4254210000000 1.0
C      1  0.4466630000000  0.4477480000000  0.5070020000000 1.0
C      1  0.4477480000000  0.5070020000000  0.4466630000000 1.0
C      1  0.5070020000000  0.4466630000000  0.4477480000000 1.0
C      1  0.4466630000000  0.5522520000000  0.4929980000000 1.0
C      1  0.5533370000000  0.4477480000000  0.4929980000000 1.0
C      1  0.5533370000000  0.5522520000000  0.5070020000000 1.0
C      1  0.4477480000000  0.4929980000000  0.5533370000000 1.0
C      1  0.5522520000000  0.5070020000000  0.5533370000000 1.0
C      1  0.5522520000000  0.4929980000000  0.4466630000000 1.0
C      1  0.5070020000000  0.5533370000000  0.5522520000000 1.0
C      1  0.4929980000000  0.4466630000000  0.5522520000000 1.0
C      1  0.4929980000000  0.5533370000000  0.4477480000000 1.0
C      1  0.5533370000000  0.4477480000000  0.5070020000000 1.0
C      1  0.5522520000000  0.5070020000000  0.4466630000000 1.0
C      1  0.4929980000000  0.4466630000000  0.4477480000000 1.0
C      1  0.5533370000000  0.5522520000000  0.4929980000000 1.0
C      1  0.4466630000000  0.4477480000000  0.4929980000000 1.0
C      1  0.4466630000000  0.5522520000000  0.5070020000000 1.0
C      1  0.5522520000000  0.4929980000000  0.5533370000000 1.0
C      1  0.4477480000000  0.5070020000000  0.5533370000000 1.0
C      1  0.4477480000000  0.4929980000000  0.4466630000000 1.0
C      1  0.4929980000000  0.5533370000000  0.5522520000000 1.0
C      1  0.5070020000000  0.4466630000000  0.5522520000000 1.0
C      1  0.5070020000000  0.5533370000000  0.4477480000000 1.0
C      1  0.4864940000000  0.5272950000000  0.4471100000000 1.0
C      1  0.5272950000000  0.4471100000000  0.4864940000000 1.0
C      1  0.4471100000000  0.4864940000000  0.5272950000000 1.0
C      1  0.4864940000000  0.4727050000000  0.5528900000000 1.0
C      1  0.5135060000000  0.5272950000000  0.5528900000000 1.0
C      1  0.5135060000000  0.4727050000000  0.4471100000000 1.0
C      1  0.5272950000000  0.5528900000000  0.5135060000000 1.0
C      1  0.4727050000000  0.4471100000000  0.5135060000000 1.0
C      1  0.4727050000000  0.5528900000000  0.4864940000000 1.0
C      1  0.4471100000000  0.5135060000000  0.4727050000000 1.0
C      1  0.5528900000000  0.4864940000000  0.4727050000000 1.0
C      1  0.5528900000000  0.5135060000000  0.5272950000000 1.0
C      1  0.5135060000000  0.5272950000000  0.4471100000000 1.0
C      1  0.4727050000000  0.4471100000000  0.4864940000000 1.0
C      1  0.5528900000000  0.4864940000000  0.5272950000000 1.0
C      1  0.5135060000000  0.4727050000000  0.5528900000000 1.0
C      1  0.4864940000000  0.5272950000000  0.5528900000000 1.0
C      1  0.4864940000000  0.4727050000000  0.4471100000000 1.0
C      1  0.4727050000000  0.5528900000000  0.5135060000000 1.0
C      1  0.5272950000000  0.4471100000000  0.5135060000000 1.0
C      1  0.5272950000000  0.5528900000000  0.4864940000000 1.0
C      1  0.5528900000000  0.5135060000000  0.4727050000000 1.0
C      1  0.4471100000000  0.4864940000000  0.4727050000000 1.0
C      1  0.4471100000000  0.5135060000000  0.5272950000000 1.0
C      1  0.4701780000000  0.4309640000000  0.5454780000000 1.0
C      1  0.4309640000000  0.5454780000000  0.4701780000000 1.0
C      1  0.5454780000000  0.4701780000000  0.4309640000000 1.0
C      1  0.4701780000000  0.5690360000000  0.4545220000000 1.0
C      1  0.5298220000000  0.4309640000000  0.4545220000000 1.0
C      1  0.5298220000000  0.5690360000000  0.5454780000000 1.0
C      1  0.4309640000000  0.4545220000000  0.5298220000000 1.0
C      1  0.5690360000000  0.5454780000000  0.5298220000000 1.0
C      1  0.5690360000000  0.4545220000000  0.4701780000000 1.0
C      1  0.5454780000000  0.5298220000000  0.5690360000000 1.0
C      1  0.4545220000000  0.4701780000000  0.5690360000000 1.0
C      1  0.4545220000000  0.5298220000000  0.4309640000000 1.0
C      1  0.5298220000000  0.4309640000000  0.5454780000000 1.0
C      1  0.5690360000000  0.5454780000000  0.4701780000000 1.0
C      1  0.4545220000000  0.4701780000000  0.4309640000000 1.0
C      1  0.5298220000000  0.5690360000000  0.4545220000000 1.0
C      1  0.4701780000000  0.4309640000000  0.4545220000000 1.0
C      1  0.4701780000000  0.5690360000000  0.5454780000000 1.0
C      1  0.5690360000000  0.4545220000000  0.5298220000000 1.0
C      1  0.4309640000000  0.5454780000000  0.5298220000000 1.0
C      1  0.4309640000000  0.4545220000000  0.4701780000000 1.0
C      1  0.4545220000000  0.5298220000000  0.5690360000000 1.0
C      1  0.5454780000000  0.4701780000000  0.5690360000000 1.0
C      1  0.5454780000000  0.5298220000000  0.4309640000000 1.0
C      1  0.5079450000000  0.4149480000000  0.4925800000000 1.0
C      1  0.4149480000000  0.4925800000000  0.5079450000000 1.0
C      1  0.4925800000000  0.5079450000000  0.4149480000000 1.0
C      1  0.5079450000000  0.5850520000000  0.5074200000000 1.0
C      1  0.4920550000000  0.4149480000000  0.5074200000000 1.0
C      1  0.4920550000000  0.5850520000000  0.4925800000000 1.0
C      1  0.4149480000000  0.5074200000000  0.4920550000000 1.0
C      1  0.5850520000000  0.4925800000000  0.4920550000000 1.0
C      1  0.5850520000000  0.5074200000000  0.5079450000000 1.0
C      1  0.4925800000000  0.4920550000000  0.5850520000000 1.0
C      1  0.5074200000000  0.5079450000000  0.5850520000000 1.0
C      1  0.5074200000000  0.4920550000000  0.4149480000000 1.0
C      1  0.4920550000000  0.4149480000000  0.4925800000000 1.0
C      1  0.5850520000000  0.4925800000000  0.5079450000000 1.0
C      1  0.5074200000000  0.5079450000000  0.4149480000000 1.0
C      1  0.4920550000000  0.5850520000000  0.5074200000000 1.0
C      1  0.5079450000000  0.4149480000000  0.5074200000000 1.0
C      1  0.5079450000000  0.5850520000000  0.4925800000000 1.0
C      1  0.5850520000000  0.5074200000000  0.4920550000000 1.0
C      1  0.4149480000000  0.4925800000000  0.4920550000000 1.0
C      1  0.4149480000000  0.5074200000000  0.5079450000000 1.0
C      1  0.5074200000000  0.4920550000000  0.5850520000000 1.0
C      1  0.4925800000000  0.5079450000000  0.5850520000000 1.0
C      1  0.4925800000000  0.4920550000000  0.4149480000000 1.0
C      1  0.4930630000000  0.5152660000000  0.4445470000000 1.0
C      1  0.5152660000000  0.4445470000000  0.4930630000000 1.0
C      1  0.4445470000000  0.4930630000000  0.5152660000000 1.0
C      1  0.4930630000000  0.4847340000000  0.5554530000000 1.0
C      1  0.5069370000000  0.5152660000000  0.5554530000000 1.0
C      1  0.5069370000000  0.4847340000000  0.4445470000000 1.0
C      1  0.5152660000000  0.5554530000000  0.5069370000000 1.0
C      1  0.4847340000000  0.4445470000000  0.5069370000000 1.0
C      1  0.4847340000000  0.5554530000000  0.4930630000000 1.0
C      1  0.4445470000000  0.5069370000000  0.4847340000000 1.0
C      1  0.5554530000000  0.4930630000000  0.4847340000000 1.0
C      1  0.5554530000000  0.5069370000000  0.5152660000000 1.0
C      1  0.5069370000000  0.5152660000000  0.4445470000000 1.0
C      1  0.4847340000000  0.4445470000000  0.4930630000000 1.0
C      1  0.5554530000000  0.4930630000000  0.5152660000000 1.0
C      1  0.5069370000000  0.4847340000000  0.5554530000000 1.0
C      1  0.4930630000000  0.5152660000000  0.5554530000000 1.0
C      1  0.4930630000000  0.4847340000000  0.4445470000000 1.0
C      1  0.4847340000000  0.5554530000000  0.5069370000000 1.0
C      1  0.5152660000000  0.4445470000000  0.5069370000000 1.0
C      1  0.5152660000000  0.5554530000000  0.4930630000000 1.0
C      1  0.5554530000000  0.5069370000000  0.4847340000000 1.0
C      1  0.4445470000000  0.4930630000000  0.4847340000000 1.0
C      1  0.4445470000000  0.5069370000000  0.5152660000000 1.0
C      1  0.4918390000000  0.5621740000000  0.5318160000000 1.0
C      1  0.5621740000000  0.5318160000000  0.4918390000000 1.0
C      1  0.5318160000000  0.4918390000000  0.5621740000000 1.0
C      1  0.4918390000000  0.4378260000000  0.4681840000000 1.0
C      1  0.5081610000000  0.5621740000000  0.4681840000000 1.0
C      1  0.5081610000000  0.4378260000000  0.5318160000000 1.0
C      1  0.5621740000000  0.4681840000000  0.5081610000000 1.0
C      1  0.4378260000000  0.5318160000000  0.5081610000000 1.0
C      1  0.4378260000000  0.4681840000000  0.4918390000000 1.0
C      1  0.5318160000000  0.5081610000000  0.4378260000000 1.0
C      1  0.4681840000000  0.4918390000000  0.4378260000000 1.0
C      1  0.4681840000000  0.5081610000000  0.5621740000000 1.0
C      1  0.5081610000000  0.5621740000000  0.5318160000000 1.0
C      1  0.4378260000000  0.5318160000000  0.4918390000000 1.0
C      1  0.4681840000000  0.4918390000000  0.5621740000000 1.0
C      1  0.5081610000000  0.4378260000000  0.4681840000000 1.0
C      1  0.4918390000000  0.5621740000000  0.4681840000000 1.0
C      1  0.4918390000000  0.4378260000000  0.5318160000000 1.0
C      1  0.4378260000000  0.4681840000000  0.5081610000000 1.0
C      1  0.5621740000000  0.5318160000000  0.5081610000000 1.0
C      1  0.5621740000000  0.4681840000000  0.4918390000000 1.0
C      1  0.4681840000000  0.5081610000000  0.4378260000000 1.0
C      1  0.5318160000000  0.4918390000000  0.4378260000000 1.0
C      1  0.5318160000000  0.5081610000000  0.5621740000000 1.0
C      1  0.5068180000000  0.5595350000000  0.5167260000000 1.0
C      1  0.5595350000000  0.5167260000000  0.5068180000000 1.0
C      1  0.5167260000000  0.5068180000000  0.5595350000000 1.0
C      1  0.5068180000000  0.4404650000000  0.4832740000000 1.0
C      1  0.4931820000000  0.5595350000000  0.4832740000000 1.0
C      1  0.4931820000000  0.4404650000000  0.5167260000000 1.0
C      1  0.5595350000000  0.4832740000000  0.4931820000000 1.0
C      1  0.4404650000000  0.5167260000000  0.4931820000000 1.0
C      1  0.4404650000000  0.4832740000000  0.5068180000000 1.0
C      1  0.5167260000000  0.4931820000000  0.4404650000000 1.0
C      1  0.4832740000000  0.5068180000000  0.4404650000000 1.0
C      1  0.4832740000000  0.4931820000000  0.5595350000000 1.0
C      1  0.4931820000000  0.5595350000000  0.5167260000000 1.0
C      1  0.4404650000000  0.5167260000000  0.5068180000000 1.0
C      1  0.4832740000000  0.5068180000000  0.5595350000000 1.0
C      1  0.4931820000000  0.4404650000000  0.4832740000000 1.0
C      1  0.5068180000000  0.5595350000000  0.4832740000000 1.0
C      1  0.5068180000000  0.4404650000000  0.5167260000000 1.0
C      1  0.4404650000000  0.4832740000000  0.4931820000000 1.0
C      1  0.5595350000000  0.5167260000000  0.4931820000000 1.0
C      1  0.5595350000000  0.4832740000000  0.5068180000000 1.0
C      1  0.4832740000000  0.4931820000000  0.4404650000000 1.0
C      1  0.5167260000000  0.5068180000000  0.4404650000000 1.0
C      1  0.5167260000000  0.4931820000000  0.5595350000000 1.0
C      1  0.4563760000000  0.5239390000000  0.5301600000000 1.0
C      1  0.5239390000000  0.5301600000000  0.4563760000000 1.0
C      1  0.5301600000000  0.4563760000000  0.5239390000000 1.0
C      1  0.4563760000000  0.4760610000000  0.4698400000000 1.0
C      1  0.5436240000000  0.5239390000000  0.4698400000000 1.0
C      1  0.5436240000000  0.4760610000000  0.5301600000000 1.0
C      1  0.5239390000000  0.4698400000000  0.5436240000000 1.0
C      1  0.4760610000000  0.5301600000000  0.5436240000000 1.0
C      1  0.4760610000000  0.4698400000000  0.4563760000000 1.0
C      1  0.5301600000000  0.5436240000000  0.4760610000000 1.0
C      1  0.4698400000000  0.4563760000000  0.4760610000000 1.0
C      1  0.4698400000000  0.5436240000000  0.5239390000000 1.0
C      1  0.5436240000000  0.5239390000000  0.5301600000000 1.0
C      1  0.4760610000000  0.5301600000000  0.4563760000000 1.0
C      1  0.4698400000000  0.4563760000000  0.5239390000000 1.0
C      1  0.5436240000000  0.4760610000000  0.4698400000000 1.0
C      1  0.4563760000000  0.5239390000000  0.4698400000000 1.0
C      1  0.4563760000000  0.4760610000000  0.5301600000000 1.0
C      1  0.4760610000000  0.4698400000000  0.5436240000000 1.0
C      1  0.5239390000000  0.5301600000000  0.5436240000000 1.0
C      1  0.5239390000000  0.4698400000000  0.4563760000000 1.0
C      1  0.4698400000000  0.5436240000000  0.4760610000000 1.0
C      1  0.5301600000000  0.4563760000000  0.4760610000000 1.0
C      1  0.5301600000000  0.5436240000000  0.5239390000000 1.0
C      1  0.5582560000000  0.5556390000000  0.4525940000000 1.0
C      1  0.5556390000000  0.4525940000000  0.5582560000000 1.0
C      1  0.4525940000000  0.5582560000000  0.5556390000000 1.0
C      1  0.5582560000000  0.4443610000000  0.5474060000000 1.0
C      1  0.4417440000000  0.5556390000000  0.5474060000000 1.0
C      1  0.4417440000000  0.4443610000000  0.4525940000000 1.0
C      1  0.5556390000000  0.5474060000000  0.4417440000000 1.0
C      1  0.4443610000000  0.4525940000000  0.4417440000000 1.0
C      1  0.4443610000000  0.5474060000000  0.5582560000000 1.0
C      1  0.4525940000000  0.4417440000000  0.4443610000000 1.0
C      1  0.5474060000000  0.5582560000000  0.4443610000000 1.0
C      1  0.5474060000000  0.4417440000000  0.5556390000000 1.0
C      1  0.4417440000000  0.5556390000000  0.4525940000000 1.0
C      1  0.4443610000000  0.4525940000000  0.5582560000000 1.0
C      1  0.5474060000000  0.5582560000000  0.5556390000000 1.0
C      1  0.4417440000000  0.4443610000000  0.5474060000000 1.0
C      1  0.5582560000000  0.5556390000000  0.5474060000000 1.0
C      1  0.5582560000000  0.4443610000000  0.4525940000000 1.0
C      1  0.4443610000000  0.5474060000000  0.4417440000000 1.0
C      1  0.5556390000000  0.4525940000000  0.4417440000000 1.0
C      1  0.5556390000000  0.5474060000000  0.5582560000000 1.0
C      1  0.5474060000000  0.4417440000000  0.4443610000000 1.0
C      1  0.4525940000000  0.5582560000000  0.4443610000000 1.0
C      1  0.4525940000000  0.4417440000000  0.5556390000000 1.0
C      1  0.5362920000000  0.4379880000000  0.5070880000000 1.0
C      1  0.4379880000000  0.5070880000000  0.5362920000000 1.0
C      1  0.5070880000000  0.5362920000000  0.4379880000000 1.0
C      1  0.5362920000000  0.5620120000000  0.4929120000000 1.0
C      1  0.4637080000000  0.4379880000000  0.4929120000000 1.0
C      1  0.4637080000000  0.5620120000000  0.5070880000000 1.0
C      1  0.4379880000000  0.4929120000000  0.4637080000000 1.0
C      1  0.5620120000000  0.5070880000000  0.4637080000000 1.0
C      1  0.5620120000000  0.4929120000000  0.5362920000000 1.0
C      1  0.5070880000000  0.4637080000000  0.5620120000000 1.0
C      1  0.4929120000000  0.5362920000000  0.5620120000000 1.0
C      1  0.4929120000000  0.4637080000000  0.4379880000000 1.0
C      1  0.4637080000000  0.4379880000000  0.5070880000000 1.0
C      1  0.5620120000000  0.5070880000000  0.5362920000000 1.0
C      1  0.4929120000000  0.5362920000000  0.4379880000000 1.0
C      1  0.4637080000000  0.5620120000000  0.4929120000000 1.0
C      1  0.5362920000000  0.4379880000000  0.4929120000000 1.0
C      1  0.5362920000000  0.5620120000000  0.5070880000000 1.0
C      1  0.5620120000000  0.4929120000000  0.4637080000000 1.0
C      1  0.4379880000000  0.5070880000000  0.4637080000000 1.0
C      1  0.4379880000000  0.4929120000000  0.5362920000000 1.0
C      1  0.4929120000000  0.4637080000000  0.5620120000000 1.0
C      1  0.5070880000000  0.5362920000000  0.5620120000000 1.0
C      1  0.5070880000000  0.4637080000000  0.4379880000000 1.0
C      1  0.5636510000000  0.5137990000000  0.4513860000000 1.0
C      1  0.5137990000000  0.4513860000000  0.5636510000000 1.0
C      1  0.4513860000000  0.5636510000000  0.5137990000000 1.0
C      1  0.5636510000000  0.4862010000000  0.5486140000000 1.0
C      1  0.4363490000000  0.5137990000000  0.5486140000000 1.0
C      1  0.4363490000000  0.4862010000000  0.4513860000000 1.0
C      1  0.5137990000000  0.5486140000000  0.4363490000000 1.0
C      1  0.4862010000000  0.4513860000000  0.4363490000000 1.0
C      1  0.4862010000000  0.5486140000000  0.5636510000000 1.0
C      1  0.4513860000000  0.4363490000000  0.4862010000000 1.0
C      1  0.5486140000000  0.5636510000000  0.4862010000000 1.0
C      1  0.5486140000000  0.4363490000000  0.5137990000000 1.0
C      1  0.4363490000000  0.5137990000000  0.4513860000000 1.0
C      1  0.4862010000000  0.4513860000000  0.5636510000000 1.0
C      1  0.5486140000000  0.5636510000000  0.5137990000000 1.0
C      1  0.4363490000000  0.4862010000000  0.5486140000000 1.0
C      1  0.5636510000000  0.5137990000000  0.5486140000000 1.0
C      1  0.5636510000000  0.4862010000000  0.4513860000000 1.0
C      1  0.4862010000000  0.5486140000000  0.4363490000000 1.0
C      1  0.5137990000000  0.4513860000000  0.4363490000000 1.0
C      1  0.5137990000000  0.5486140000000  0.5636510000000 1.0
C      1  0.5486140000000  0.4363490000000  0.4862010000000 1.0
C      1  0.4513860000000  0.5636510000000  0.4862010000000 1.0
C      1  0.4513860000000  0.4363490000000  0.5137990000000 1.0
C      1  0.5451670000000  0.5063830000000  0.5831840000000 1.0
C      1  0.5063830000000  0.5831840000000  0.5451670000000 1.0
C      1  0.5831840000000  0.5451670000000  0.5063830000000 1.0
C      1  0.5451670000000  0.4936170000000  0.4168160000000 1.0
C      1  0.4548330000000  0.5063830000000  0.4168160000000 1.0
C      1  0.4548330000000  0.4936170000000  0.5831840000000 1.0
C      1  0.5063830000000  0.4168160000000  0.4548330000000 1.0
C      1  0.4936170000000  0.5831840000000  0.4548330000000 1.0
C      1  0.4936170000000  0.4168160000000  0.5451670000000 1.0
C      1  0.5831840000000  0.4548330000000  0.4936170000000 1.0
C      1  0.4168160000000  0.5451670000000  0.4936170000000 1.0
C      1  0.4168160000000  0.4548330000000  0.5063830000000 1.0
C      1  0.4548330000000  0.5063830000000  0.5831840000000 1.0
C      1  0.4936170000000  0.5831840000000  0.5451670000000 1.0
C      1  0.4168160000000  0.5451670000000  0.5063830000000 1.0
C      1  0.4548330000000  0.4936170000000  0.4168160000000 1.0
C      1  0.5451670000000  0.5063830000000  0.4168160000000 1.0
C      1  0.5451670000000  0.4936170000000  0.5831840000000 1.0
C      1  0.4936170000000  0.4168160000000  0.4548330000000 1.0
C      1  0.5063830000000  0.5831840000000  0.4548330000000 1.0
C      1  0.5063830000000  0.4168160000000  0.5451670000000 1.0
C      1  0.4168160000000  0.4548330000000  0.4936170000000 1.0
C      1  0.5831840000000  0.5451670000000  0.4936170000000 1.0
C      1  0.5831840000000  0.4548330000000  0.5063830000000 1.0
END
