TITL C-1379266-1300-293 7.77623050352613e-07 1000000 -3838.07171894127 0 0 540 (Td) n - 1
REM
REM in /nfs/bkarasulu/CARBON/AIRSS/Generating-Clusters/GAP-ML-2020/Higher-Symm/Selected-Sizes/TryA-Only_Ih-Symm/Larger-Clusters/Try2-MINAMP_6A
REM
REM
REM
REM
REM
REM ./C.cell (31579ac4e95a012ec27f3239692ae8a5)
REM
REM compiler GCC version 9.2.1 20190827 (Red Hat 9.2.1-1)
REM options -cpp -mtune=generic -march=x86-64 -g -O0 -fpre-include=/usr/include/finclude/math-vector-fortran.h
REM seed -536401000 -655821676 -1903594267 -568786318 1550349124 -157278937 575677370 1360242055 899462251 725654922 -2050830064 2004955408 -726799848 1079578356 1450268915 1439647358 -1274437597 1054660889 -1648171652 -1046550315 957111632 -1537780311 -1441677186 689486550 -191306652 -99307303 -392281907 -964082166 1070291957 2091224416 -1650686796 614858933 -298755314
REM
CELL 1.54180  100.00000  100.00000  100.00000   90.00000   90.00000   90.00000
LATT -1
SFAC C  
C      1  0.5647060000000  0.5456930000000  0.4741920000000 1.0
C      1  0.5456930000000  0.4741920000000  0.5647060000000 1.0
C      1  0.4741920000000  0.5647060000000  0.5456930000000 1.0
C      1  0.4352940000000  0.5456930000000  0.5258080000000 1.0
C      1  0.4352940000000  0.4543070000000  0.4741920000000 1.0
C      1  0.5647060000000  0.4543070000000  0.5258080000000 1.0
C      1  0.4543070000000  0.4741920000000  0.4352940000000 1.0
C      1  0.4543070000000  0.5258080000000  0.5647060000000 1.0
C      1  0.5456930000000  0.5258080000000  0.4352940000000 1.0
C      1  0.5258080000000  0.5647060000000  0.4543070000000 1.0
C      1  0.5258080000000  0.4352940000000  0.5456930000000 1.0
C      1  0.4741920000000  0.4352940000000  0.4543070000000 1.0
C      1  0.4741920000000  0.5456930000000  0.5647060000000 1.0
C      1  0.5647060000000  0.4741920000000  0.5456930000000 1.0
C      1  0.5456930000000  0.5647060000000  0.4741920000000 1.0
C      1  0.5258080000000  0.5456930000000  0.4352940000000 1.0
C      1  0.4741920000000  0.4543070000000  0.4352940000000 1.0
C      1  0.5258080000000  0.4543070000000  0.5647060000000 1.0
C      1  0.4352940000000  0.4741920000000  0.4543070000000 1.0
C      1  0.5647060000000  0.5258080000000  0.4543070000000 1.0
C      1  0.4352940000000  0.5258080000000  0.5456930000000 1.0
C      1  0.4543070000000  0.5647060000000  0.5258080000000 1.0
C      1  0.5456930000000  0.4352940000000  0.5258080000000 1.0
C      1  0.4543070000000  0.4352940000000  0.4741920000000 1.0
C      1  0.5265380000000  0.5587950000000  0.5472280000000 1.0
C      1  0.5587950000000  0.5472280000000  0.5265380000000 1.0
C      1  0.5472280000000  0.5265380000000  0.5587950000000 1.0
C      1  0.4734620000000  0.5587950000000  0.4527720000000 1.0
C      1  0.4734620000000  0.4412050000000  0.5472280000000 1.0
C      1  0.5265380000000  0.4412050000000  0.4527720000000 1.0
C      1  0.4412050000000  0.5472280000000  0.4734620000000 1.0
C      1  0.4412050000000  0.4527720000000  0.5265380000000 1.0
C      1  0.5587950000000  0.4527720000000  0.4734620000000 1.0
C      1  0.4527720000000  0.5265380000000  0.4412050000000 1.0
C      1  0.4527720000000  0.4734620000000  0.5587950000000 1.0
C      1  0.5472280000000  0.4734620000000  0.4412050000000 1.0
C      1  0.5472280000000  0.5587950000000  0.5265380000000 1.0
C      1  0.5265380000000  0.5472280000000  0.5587950000000 1.0
C      1  0.5587950000000  0.5265380000000  0.5472280000000 1.0
C      1  0.4527720000000  0.5587950000000  0.4734620000000 1.0
C      1  0.5472280000000  0.4412050000000  0.4734620000000 1.0
C      1  0.4527720000000  0.4412050000000  0.5265380000000 1.0
C      1  0.4734620000000  0.5472280000000  0.4412050000000 1.0
C      1  0.5265380000000  0.4527720000000  0.4412050000000 1.0
C      1  0.4734620000000  0.4527720000000  0.5587950000000 1.0
C      1  0.4412050000000  0.5265380000000  0.4527720000000 1.0
C      1  0.5587950000000  0.4734620000000  0.4527720000000 1.0
C      1  0.4412050000000  0.4734620000000  0.5472280000000 1.0
C      1  0.5757890000000  0.5090880000000  0.4664460000000 1.0
C      1  0.5090880000000  0.4664460000000  0.5757890000000 1.0
C      1  0.4664460000000  0.5757890000000  0.5090880000000 1.0
C      1  0.4242110000000  0.5090880000000  0.5335540000000 1.0
C      1  0.4242110000000  0.4909120000000  0.4664460000000 1.0
C      1  0.5757890000000  0.4909120000000  0.5335540000000 1.0
C      1  0.4909120000000  0.4664460000000  0.4242110000000 1.0
C      1  0.4909120000000  0.5335540000000  0.5757890000000 1.0
C      1  0.5090880000000  0.5335540000000  0.4242110000000 1.0
C      1  0.5335540000000  0.5757890000000  0.4909120000000 1.0
C      1  0.5335540000000  0.4242110000000  0.5090880000000 1.0
C      1  0.4664460000000  0.4242110000000  0.4909120000000 1.0
C      1  0.4664460000000  0.5090880000000  0.5757890000000 1.0
C      1  0.5757890000000  0.4664460000000  0.5090880000000 1.0
C      1  0.5090880000000  0.5757890000000  0.4664460000000 1.0
C      1  0.5335540000000  0.5090880000000  0.4242110000000 1.0
C      1  0.4664460000000  0.4909120000000  0.4242110000000 1.0
C      1  0.5335540000000  0.4909120000000  0.5757890000000 1.0
C      1  0.4242110000000  0.4664460000000  0.4909120000000 1.0
C      1  0.5757890000000  0.5335540000000  0.4909120000000 1.0
C      1  0.4242110000000  0.5335540000000  0.5090880000000 1.0
C      1  0.4909120000000  0.5757890000000  0.5335540000000 1.0
C      1  0.5090880000000  0.4242110000000  0.5335540000000 1.0
C      1  0.4909120000000  0.4242110000000  0.4664460000000 1.0
C      1  0.4993840000000  0.4511660000000  0.4611790000000 1.0
C      1  0.4511660000000  0.4611790000000  0.4993840000000 1.0
C      1  0.4611790000000  0.4993840000000  0.4511660000000 1.0
C      1  0.5006160000000  0.4511660000000  0.5388210000000 1.0
C      1  0.5006160000000  0.5488340000000  0.4611790000000 1.0
C      1  0.4993840000000  0.5488340000000  0.5388210000000 1.0
C      1  0.5488340000000  0.4611790000000  0.5006160000000 1.0
C      1  0.5488340000000  0.5388210000000  0.4993840000000 1.0
C      1  0.4511660000000  0.5388210000000  0.5006160000000 1.0
C      1  0.5388210000000  0.4993840000000  0.5488340000000 1.0
C      1  0.5388210000000  0.5006160000000  0.4511660000000 1.0
C      1  0.4611790000000  0.5006160000000  0.5488340000000 1.0
C      1  0.4611790000000  0.4511660000000  0.4993840000000 1.0
C      1  0.4993840000000  0.4611790000000  0.4511660000000 1.0
C      1  0.4511660000000  0.4993840000000  0.4611790000000 1.0
C      1  0.5388210000000  0.4511660000000  0.5006160000000 1.0
C      1  0.4611790000000  0.5488340000000  0.5006160000000 1.0
C      1  0.5388210000000  0.5488340000000  0.4993840000000 1.0
C      1  0.5006160000000  0.4611790000000  0.5488340000000 1.0
C      1  0.4993840000000  0.5388210000000  0.5488340000000 1.0
C      1  0.5006160000000  0.5388210000000  0.4511660000000 1.0
C      1  0.5488340000000  0.4993840000000  0.5388210000000 1.0
C      1  0.4511660000000  0.5006160000000  0.5388210000000 1.0
C      1  0.5488340000000  0.5006160000000  0.4611790000000 1.0
C      1  0.5060980000000  0.5160140000000  0.5265040000000 1.0
C      1  0.5160140000000  0.5265040000000  0.5060980000000 1.0
C      1  0.5265040000000  0.5060980000000  0.5160140000000 1.0
C      1  0.4939020000000  0.5160140000000  0.4734960000000 1.0
C      1  0.4939020000000  0.4839860000000  0.5265040000000 1.0
C      1  0.5060980000000  0.4839860000000  0.4734960000000 1.0
C      1  0.4839860000000  0.5265040000000  0.4939020000000 1.0
C      1  0.4839860000000  0.4734960000000  0.5060980000000 1.0
C      1  0.5160140000000  0.4734960000000  0.4939020000000 1.0
C      1  0.4734960000000  0.5060980000000  0.4839860000000 1.0
C      1  0.4734960000000  0.4939020000000  0.5160140000000 1.0
C      1  0.5265040000000  0.4939020000000  0.4839860000000 1.0
C      1  0.5265040000000  0.5160140000000  0.5060980000000 1.0
C      1  0.5060980000000  0.5265040000000  0.5160140000000 1.0
C      1  0.5160140000000  0.5060980000000  0.5265040000000 1.0
C      1  0.4734960000000  0.5160140000000  0.4939020000000 1.0
C      1  0.5265040000000  0.4839860000000  0.4939020000000 1.0
C      1  0.4734960000000  0.4839860000000  0.5060980000000 1.0
C      1  0.4939020000000  0.5265040000000  0.4839860000000 1.0
C      1  0.5060980000000  0.4734960000000  0.4839860000000 1.0
C      1  0.4939020000000  0.4734960000000  0.5160140000000 1.0
C      1  0.4839860000000  0.5060980000000  0.4734960000000 1.0
C      1  0.5160140000000  0.4939020000000  0.4734960000000 1.0
C      1  0.4839860000000  0.4939020000000  0.5265040000000 1.0
C      1  0.5232330000000  0.5551360000000  0.5327860000000 1.0
C      1  0.5551360000000  0.5327860000000  0.5232330000000 1.0
C      1  0.5327860000000  0.5232330000000  0.5551360000000 1.0
C      1  0.4767670000000  0.5551360000000  0.4672140000000 1.0
C      1  0.4767670000000  0.4448640000000  0.5327860000000 1.0
C      1  0.5232330000000  0.4448640000000  0.4672140000000 1.0
C      1  0.4448640000000  0.5327860000000  0.4767670000000 1.0
C      1  0.4448640000000  0.4672140000000  0.5232330000000 1.0
C      1  0.5551360000000  0.4672140000000  0.4767670000000 1.0
C      1  0.4672140000000  0.5232330000000  0.4448640000000 1.0
C      1  0.4672140000000  0.4767670000000  0.5551360000000 1.0
C      1  0.5327860000000  0.4767670000000  0.4448640000000 1.0
C      1  0.5327860000000  0.5551360000000  0.5232330000000 1.0
C      1  0.5232330000000  0.5327860000000  0.5551360000000 1.0
C      1  0.5551360000000  0.5232330000000  0.5327860000000 1.0
C      1  0.4672140000000  0.5551360000000  0.4767670000000 1.0
C      1  0.5327860000000  0.4448640000000  0.4767670000000 1.0
C      1  0.4672140000000  0.4448640000000  0.5232330000000 1.0
C      1  0.4767670000000  0.5327860000000  0.4448640000000 1.0
C      1  0.5232330000000  0.4672140000000  0.4448640000000 1.0
C      1  0.4767670000000  0.4672140000000  0.5551360000000 1.0
C      1  0.4448640000000  0.5232330000000  0.4672140000000 1.0
C      1  0.5551360000000  0.4767670000000  0.4672140000000 1.0
C      1  0.4448640000000  0.4767670000000  0.5327860000000 1.0
C      1  0.5007610000000  0.4220200000000  0.4768960000000 1.0
C      1  0.4220200000000  0.4768960000000  0.5007610000000 1.0
C      1  0.4768960000000  0.5007610000000  0.4220200000000 1.0
C      1  0.4992390000000  0.4220200000000  0.5231040000000 1.0
C      1  0.4992390000000  0.5779800000000  0.4768960000000 1.0
C      1  0.5007610000000  0.5779800000000  0.5231040000000 1.0
C      1  0.5779800000000  0.4768960000000  0.4992390000000 1.0
C      1  0.5779800000000  0.5231040000000  0.5007610000000 1.0
C      1  0.4220200000000  0.5231040000000  0.4992390000000 1.0
C      1  0.5231040000000  0.5007610000000  0.5779800000000 1.0
C      1  0.5231040000000  0.4992390000000  0.4220200000000 1.0
C      1  0.4768960000000  0.4992390000000  0.5779800000000 1.0
C      1  0.4768960000000  0.4220200000000  0.5007610000000 1.0
C      1  0.5007610000000  0.4768960000000  0.4220200000000 1.0
C      1  0.4220200000000  0.5007610000000  0.4768960000000 1.0
C      1  0.5231040000000  0.4220200000000  0.4992390000000 1.0
C      1  0.4768960000000  0.5779800000000  0.4992390000000 1.0
C      1  0.5231040000000  0.5779800000000  0.5007610000000 1.0
C      1  0.4992390000000  0.4768960000000  0.5779800000000 1.0
C      1  0.5007610000000  0.5231040000000  0.5779800000000 1.0
C      1  0.4992390000000  0.5231040000000  0.4220200000000 1.0
C      1  0.5779800000000  0.5007610000000  0.5231040000000 1.0
C      1  0.4220200000000  0.4992390000000  0.5231040000000 1.0
C      1  0.5779800000000  0.4992390000000  0.4768960000000 1.0
C      1  0.5825340000000  0.5146340000000  0.5251750000000 1.0
C      1  0.5146340000000  0.5251750000000  0.5825340000000 1.0
C      1  0.5251750000000  0.5825340000000  0.5146340000000 1.0
C      1  0.4174660000000  0.5146340000000  0.4748250000000 1.0
C      1  0.4174660000000  0.4853660000000  0.5251750000000 1.0
C      1  0.5825340000000  0.4853660000000  0.4748250000000 1.0
C      1  0.4853660000000  0.5251740000000  0.4174660000000 1.0
C      1  0.4853660000000  0.4748250000000  0.5825340000000 1.0
C      1  0.5146340000000  0.4748250000000  0.4174660000000 1.0
C      1  0.4748250000000  0.5825340000000  0.4853660000000 1.0
C      1  0.4748250000000  0.4174660000000  0.5146340000000 1.0
C      1  0.5251750000000  0.4174660000000  0.4853660000000 1.0
C      1  0.5251750000000  0.5146340000000  0.5825340000000 1.0
C      1  0.5825340000000  0.5251750000000  0.5146340000000 1.0
C      1  0.5146340000000  0.5825340000000  0.5251750000000 1.0
C      1  0.4748250000000  0.5146340000000  0.4174660000000 1.0
C      1  0.5251750000000  0.4853660000000  0.4174660000000 1.0
C      1  0.4748250000000  0.4853660000000  0.5825340000000 1.0
C      1  0.4174660000000  0.5251750000000  0.4853660000000 1.0
C      1  0.5825340000000  0.4748250000000  0.4853660000000 1.0
C      1  0.4174660000000  0.4748250000000  0.5146340000000 1.0
C      1  0.4853660000000  0.5825340000000  0.4748250000000 1.0
C      1  0.5146340000000  0.4174660000000  0.4748250000000 1.0
C      1  0.4853660000000  0.4174660000000  0.5251750000000 1.0
C      1  0.5116820000000  0.4709640000000  0.5523970000000 1.0
C      1  0.4709640000000  0.5523970000000  0.5116820000000 1.0
C      1  0.5523970000000  0.5116820000000  0.4709640000000 1.0
C      1  0.4883180000000  0.4709640000000  0.4476030000000 1.0
C      1  0.4883180000000  0.5290360000000  0.5523970000000 1.0
C      1  0.5116820000000  0.5290360000000  0.4476030000000 1.0
C      1  0.5290360000000  0.5523970000000  0.4883180000000 1.0
C      1  0.5290360000000  0.4476030000000  0.5116820000000 1.0
C      1  0.4709640000000  0.4476030000000  0.4883180000000 1.0
C      1  0.4476030000000  0.5116820000000  0.5290360000000 1.0
C      1  0.4476030000000  0.4883180000000  0.4709640000000 1.0
C      1  0.5523970000000  0.4883180000000  0.5290360000000 1.0
C      1  0.5523970000000  0.4709640000000  0.5116820000000 1.0
C      1  0.5116820000000  0.5523970000000  0.4709640000000 1.0
C      1  0.4709640000000  0.5116820000000  0.5523970000000 1.0
C      1  0.4476030000000  0.4709640000000  0.4883180000000 1.0
C      1  0.5523970000000  0.5290360000000  0.4883180000000 1.0
C      1  0.4476030000000  0.5290360000000  0.5116820000000 1.0
C      1  0.4883180000000  0.5523970000000  0.5290360000000 1.0
C      1  0.5116820000000  0.4476030000000  0.5290360000000 1.0
C      1  0.4883180000000  0.4476030000000  0.4709640000000 1.0
C      1  0.5290360000000  0.5116820000000  0.4476030000000 1.0
C      1  0.4709640000000  0.4883180000000  0.4476030000000 1.0
C      1  0.5290360000000  0.4883180000000  0.5523970000000 1.0
C      1  0.5494740000000  0.5758510000000  0.5086070000000 1.0
C      1  0.5758510000000  0.5086070000000  0.5494740000000 1.0
C      1  0.5086070000000  0.5494740000000  0.5758510000000 1.0
C      1  0.4505260000000  0.5758510000000  0.4913930000000 1.0
C      1  0.4505260000000  0.4241490000000  0.5086070000000 1.0
C      1  0.5494740000000  0.4241490000000  0.4913930000000 1.0
C      1  0.4241490000000  0.5086070000000  0.4505260000000 1.0
C      1  0.4241490000000  0.4913930000000  0.5494740000000 1.0
C      1  0.5758510000000  0.4913930000000  0.4505260000000 1.0
C      1  0.4913930000000  0.5494740000000  0.4241490000000 1.0
C      1  0.4913930000000  0.4505260000000  0.5758510000000 1.0
C      1  0.5086070000000  0.4505260000000  0.4241490000000 1.0
C      1  0.5086070000000  0.5758510000000  0.5494740000000 1.0
C      1  0.5494740000000  0.5086070000000  0.5758510000000 1.0
C      1  0.5758510000000  0.5494740000000  0.5086070000000 1.0
C      1  0.4913930000000  0.5758510000000  0.4505260000000 1.0
C      1  0.5086070000000  0.4241490000000  0.4505260000000 1.0
C      1  0.4913930000000  0.4241490000000  0.5494740000000 1.0
C      1  0.4505260000000  0.5086070000000  0.4241490000000 1.0
C      1  0.5494740000000  0.4913930000000  0.4241490000000 1.0
C      1  0.4505260000000  0.4913930000000  0.5758510000000 1.0
C      1  0.4241490000000  0.5494740000000  0.4913930000000 1.0
C      1  0.5758510000000  0.4505260000000  0.4913930000000 1.0
C      1  0.4241490000000  0.4505260000000  0.5086070000000 1.0
C      1  0.5205680000000  0.5661970000000  0.4684430000000 1.0
C      1  0.5661970000000  0.4684430000000  0.5205680000000 1.0
C      1  0.4684430000000  0.5205680000000  0.5661970000000 1.0
C      1  0.4794320000000  0.5661970000000  0.5315570000000 1.0
C      1  0.4794320000000  0.4338030000000  0.4684430000000 1.0
C      1  0.5205680000000  0.4338030000000  0.5315570000000 1.0
C      1  0.4338030000000  0.4684430000000  0.4794320000000 1.0
C      1  0.4338030000000  0.5315570000000  0.5205680000000 1.0
C      1  0.5661970000000  0.5315570000000  0.4794320000000 1.0
C      1  0.5315570000000  0.5205680000000  0.4338030000000 1.0
C      1  0.5315570000000  0.4794320000000  0.5661970000000 1.0
C      1  0.4684430000000  0.4794320000000  0.4338030000000 1.0
C      1  0.4684430000000  0.5661970000000  0.5205680000000 1.0
C      1  0.5205680000000  0.4684430000000  0.5661970000000 1.0
C      1  0.5661970000000  0.5205680000000  0.4684430000000 1.0
C      1  0.5315570000000  0.5661970000000  0.4794320000000 1.0
C      1  0.4684430000000  0.4338030000000  0.4794320000000 1.0
C      1  0.5315570000000  0.4338030000000  0.5205680000000 1.0
C      1  0.4794320000000  0.4684430000000  0.4338030000000 1.0
C      1  0.5205680000000  0.5315570000000  0.4338030000000 1.0
C      1  0.4794320000000  0.5315570000000  0.5661970000000 1.0
C      1  0.4338030000000  0.5205680000000  0.5315570000000 1.0
C      1  0.5661970000000  0.4794320000000  0.5315570000000 1.0
C      1  0.4338030000000  0.4794320000000  0.4684430000000 1.0
C      1  0.5659720000000  0.5560480000000  0.5164560000000 1.0
C      1  0.5560480000000  0.5164560000000  0.5659720000000 1.0
C      1  0.5164560000000  0.5659720000000  0.5560480000000 1.0
C      1  0.4340280000000  0.5560480000000  0.4835440000000 1.0
C      1  0.4340280000000  0.4439520000000  0.5164560000000 1.0
C      1  0.5659720000000  0.4439520000000  0.4835440000000 1.0
C      1  0.4439520000000  0.5164560000000  0.4340280000000 1.0
C      1  0.4439520000000  0.4835440000000  0.5659720000000 1.0
C      1  0.5560480000000  0.4835440000000  0.4340280000000 1.0
C      1  0.4835440000000  0.5659720000000  0.4439520000000 1.0
C      1  0.4835440000000  0.4340280000000  0.5560480000000 1.0
C      1  0.5164560000000  0.4340280000000  0.4439520000000 1.0
C      1  0.5164560000000  0.5560480000000  0.5659720000000 1.0
C      1  0.5659720000000  0.5164560000000  0.5560480000000 1.0
C      1  0.5560480000000  0.5659720000000  0.5164560000000 1.0
C      1  0.4835440000000  0.5560480000000  0.4340280000000 1.0
C      1  0.5164560000000  0.4439520000000  0.4340280000000 1.0
C      1  0.4835440000000  0.4439520000000  0.5659720000000 1.0
C      1  0.4340280000000  0.5164560000000  0.4439520000000 1.0
C      1  0.5659720000000  0.4835440000000  0.4439520000000 1.0
C      1  0.4340280000000  0.4835440000000  0.5560480000000 1.0
C      1  0.4439520000000  0.5659720000000  0.4835440000000 1.0
C      1  0.5560480000000  0.4340280000000  0.4835440000000 1.0
C      1  0.4439520000000  0.4340280000000  0.5164560000000 1.0
C      1  0.4599740000000  0.4700460000000  0.4797940000000 1.0
C      1  0.4700460000000  0.4797940000000  0.4599740000000 1.0
C      1  0.4797940000000  0.4599740000000  0.4700460000000 1.0
C      1  0.5400260000000  0.4700460000000  0.5202060000000 1.0
C      1  0.5400260000000  0.5299540000000  0.4797940000000 1.0
C      1  0.4599740000000  0.5299540000000  0.5202060000000 1.0
C      1  0.5299540000000  0.4797940000000  0.5400260000000 1.0
C      1  0.5299540000000  0.5202060000000  0.4599740000000 1.0
C      1  0.4700460000000  0.5202060000000  0.5400260000000 1.0
C      1  0.5202060000000  0.4599740000000  0.5299540000000 1.0
C      1  0.5202060000000  0.5400260000000  0.4700460000000 1.0
C      1  0.4797940000000  0.5400260000000  0.5299540000000 1.0
C      1  0.4797940000000  0.4700460000000  0.4599740000000 1.0
C      1  0.4599740000000  0.4797940000000  0.4700460000000 1.0
C      1  0.4700460000000  0.4599740000000  0.4797940000000 1.0
C      1  0.5202060000000  0.4700460000000  0.5400260000000 1.0
C      1  0.4797940000000  0.5299540000000  0.5400260000000 1.0
C      1  0.5202060000000  0.5299540000000  0.4599740000000 1.0
C      1  0.5400260000000  0.4797940000000  0.5299540000000 1.0
C      1  0.4599740000000  0.5202060000000  0.5299540000000 1.0
C      1  0.5400260000000  0.5202060000000  0.4700460000000 1.0
C      1  0.5299540000000  0.4599740000000  0.5202060000000 1.0
C      1  0.4700460000000  0.5400260000000  0.5202060000000 1.0
C      1  0.5299540000000  0.5400260000000  0.4797940000000 1.0
C      1  0.5056930000000  0.5475800000000  0.4258150000000 1.0
C      1  0.5475800000000  0.4258150000000  0.5056930000000 1.0
C      1  0.4258150000000  0.5056930000000  0.5475800000000 1.0
C      1  0.4943070000000  0.5475800000000  0.5741850000000 1.0
C      1  0.4943070000000  0.4524200000000  0.4258150000000 1.0
C      1  0.5056930000000  0.4524200000000  0.5741850000000 1.0
C      1  0.4524200000000  0.4258150000000  0.4943070000000 1.0
C      1  0.4524200000000  0.5741850000000  0.5056930000000 1.0
C      1  0.5475800000000  0.5741850000000  0.4943070000000 1.0
C      1  0.5741850000000  0.5056930000000  0.4524200000000 1.0
C      1  0.5741850000000  0.4943070000000  0.5475800000000 1.0
C      1  0.4258150000000  0.4943070000000  0.4524200000000 1.0
C      1  0.4258150000000  0.5475800000000  0.5056930000000 1.0
C      1  0.5056930000000  0.4258150000000  0.5475800000000 1.0
C      1  0.5475800000000  0.5056930000000  0.4258150000000 1.0
C      1  0.5741850000000  0.5475800000000  0.4943070000000 1.0
C      1  0.4258150000000  0.4524200000000  0.4943070000000 1.0
C      1  0.5741850000000  0.4524200000000  0.5056930000000 1.0
C      1  0.4943070000000  0.4258150000000  0.4524200000000 1.0
C      1  0.5056930000000  0.5741850000000  0.4524200000000 1.0
C      1  0.4943070000000  0.5741850000000  0.5475800000000 1.0
C      1  0.4524200000000  0.5056930000000  0.5741850000000 1.0
C      1  0.5475800000000  0.4943070000000  0.5741850000000 1.0
C      1  0.4524200000000  0.4943070000000  0.4258150000000 1.0
C      1  0.5660590000000  0.5552140000000  0.4846000000000 1.0
C      1  0.5552140000000  0.4846000000000  0.5660590000000 1.0
C      1  0.4846000000000  0.5660590000000  0.5552140000000 1.0
C      1  0.4339410000000  0.5552140000000  0.5154000000000 1.0
C      1  0.4339410000000  0.4447860000000  0.4846000000000 1.0
C      1  0.5660590000000  0.4447860000000  0.5154000000000 1.0
C      1  0.4447860000000  0.4846000000000  0.4339410000000 1.0
C      1  0.4447860000000  0.5154000000000  0.5660590000000 1.0
C      1  0.5552140000000  0.5154000000000  0.4339410000000 1.0
C      1  0.5154000000000  0.5660590000000  0.4447860000000 1.0
C      1  0.5154000000000  0.4339410000000  0.5552140000000 1.0
C      1  0.4846000000000  0.4339410000000  0.4447860000000 1.0
C      1  0.4846000000000  0.5552140000000  0.5660590000000 1.0
C      1  0.5660590000000  0.4846000000000  0.5552140000000 1.0
C      1  0.5552140000000  0.5660590000000  0.4846000000000 1.0
C      1  0.5154000000000  0.5552140000000  0.4339410000000 1.0
C      1  0.4846000000000  0.4447860000000  0.4339410000000 1.0
C      1  0.5154000000000  0.4447860000000  0.5660590000000 1.0
C      1  0.4339410000000  0.4846000000000  0.4447860000000 1.0
C      1  0.5660590000000  0.5154000000000  0.4447860000000 1.0
C      1  0.4339410000000  0.5154000000000  0.5552140000000 1.0
C      1  0.4447860000000  0.5660590000000  0.5154000000000 1.0
C      1  0.5552140000000  0.4339410000000  0.5154000000000 1.0
C      1  0.4447860000000  0.4339410000000  0.4846000000000 1.0
C      1  0.5265980000000  0.5364770000000  0.5076580000000 1.0
C      1  0.5364770000000  0.5076580000000  0.5265980000000 1.0
C      1  0.5076580000000  0.5265980000000  0.5364770000000 1.0
C      1  0.4734020000000  0.5364770000000  0.4923420000000 1.0
C      1  0.4734020000000  0.4635230000000  0.5076580000000 1.0
C      1  0.5265980000000  0.4635230000000  0.4923420000000 1.0
C      1  0.4635230000000  0.5076580000000  0.4734020000000 1.0
C      1  0.4635230000000  0.4923420000000  0.5265980000000 1.0
C      1  0.5364770000000  0.4923420000000  0.4734020000000 1.0
C      1  0.4923420000000  0.5265980000000  0.4635230000000 1.0
C      1  0.4923420000000  0.4734020000000  0.5364770000000 1.0
C      1  0.5076580000000  0.4734020000000  0.4635230000000 1.0
C      1  0.5076580000000  0.5364770000000  0.5265980000000 1.0
C      1  0.5265980000000  0.5076580000000  0.5364770000000 1.0
C      1  0.5364770000000  0.5265980000000  0.5076580000000 1.0
C      1  0.4923420000000  0.5364770000000  0.4734020000000 1.0
C      1  0.5076580000000  0.4635230000000  0.4734020000000 1.0
C      1  0.4923420000000  0.4635230000000  0.5265980000000 1.0
C      1  0.4734020000000  0.5076580000000  0.4635230000000 1.0
C      1  0.5265980000000  0.4923420000000  0.4635230000000 1.0
C      1  0.4734020000000  0.4923420000000  0.5364770000000 1.0
C      1  0.4635230000000  0.5265980000000  0.4923420000000 1.0
C      1  0.5364770000000  0.4734020000000  0.4923420000000 1.0
C      1  0.4635230000000  0.4734020000000  0.5076580000000 1.0
C      1  0.4816050000000  0.4443960000000  0.4995400000000 1.0
C      1  0.4443960000000  0.4995400000000  0.4816050000000 1.0
C      1  0.4995400000000  0.4816050000000  0.4443960000000 1.0
C      1  0.5183950000000  0.4443960000000  0.5004600000000 1.0
C      1  0.5183950000000  0.5556040000000  0.4995400000000 1.0
C      1  0.4816050000000  0.5556040000000  0.5004600000000 1.0
C      1  0.5556040000000  0.4995400000000  0.5183950000000 1.0
C      1  0.5556040000000  0.5004600000000  0.4816050000000 1.0
C      1  0.4443960000000  0.5004600000000  0.5183950000000 1.0
C      1  0.5004600000000  0.4816050000000  0.5556040000000 1.0
C      1  0.5004600000000  0.5183950000000  0.4443960000000 1.0
C      1  0.4995400000000  0.5183950000000  0.5556040000000 1.0
C      1  0.4995400000000  0.4443960000000  0.4816050000000 1.0
C      1  0.4816050000000  0.4995400000000  0.4443960000000 1.0
C      1  0.4443960000000  0.4816050000000  0.4995400000000 1.0
C      1  0.5004600000000  0.4443960000000  0.5183950000000 1.0
C      1  0.4995400000000  0.5556040000000  0.5183950000000 1.0
C      1  0.5004600000000  0.5556040000000  0.4816050000000 1.0
C      1  0.5183950000000  0.4995400000000  0.5556040000000 1.0
C      1  0.4816050000000  0.5004600000000  0.5556040000000 1.0
C      1  0.5183950000000  0.5004600000000  0.4443960000000 1.0
C      1  0.5556040000000  0.4816050000000  0.5004600000000 1.0
C      1  0.4443960000000  0.5183950000000  0.5004600000000 1.0
C      1  0.5556040000000  0.5183950000000  0.4995400000000 1.0
C      1  0.4508060000000  0.5655310000000  0.4606330000000 1.0
C      1  0.5655310000000  0.4606330000000  0.4508060000000 1.0
C      1  0.4606330000000  0.4508060000000  0.5655310000000 1.0
C      1  0.5491940000000  0.5655310000000  0.5393670000000 1.0
C      1  0.5491940000000  0.4344690000000  0.4606330000000 1.0
C      1  0.4508060000000  0.4344690000000  0.5393670000000 1.0
C      1  0.4344690000000  0.4606330000000  0.5491940000000 1.0
C      1  0.4344690000000  0.5393670000000  0.4508060000000 1.0
C      1  0.5655310000000  0.5393670000000  0.5491940000000 1.0
C      1  0.5393670000000  0.4508060000000  0.4344690000000 1.0
C      1  0.5393670000000  0.5491940000000  0.5655310000000 1.0
C      1  0.4606330000000  0.5491940000000  0.4344690000000 1.0
C      1  0.4606330000000  0.5655310000000  0.4508060000000 1.0
C      1  0.4508060000000  0.4606330000000  0.5655310000000 1.0
C      1  0.5655310000000  0.4508060000000  0.4606330000000 1.0
C      1  0.5393670000000  0.5655310000000  0.5491940000000 1.0
C      1  0.4606330000000  0.4344690000000  0.5491940000000 1.0
C      1  0.5393670000000  0.4344690000000  0.4508060000000 1.0
C      1  0.5491940000000  0.4606330000000  0.4344690000000 1.0
C      1  0.4508060000000  0.5393670000000  0.4344690000000 1.0
C      1  0.5491940000000  0.5393670000000  0.5655310000000 1.0
C      1  0.4344690000000  0.4508060000000  0.5393670000000 1.0
C      1  0.5655310000000  0.5491940000000  0.5393670000000 1.0
C      1  0.4344690000000  0.5491940000000  0.4606330000000 1.0
C      1  0.5385490000000  0.4849510000000  0.4189410000000 1.0
C      1  0.4849510000000  0.4189410000000  0.5385490000000 1.0
C      1  0.4189410000000  0.5385490000000  0.4849510000000 1.0
C      1  0.4614510000000  0.4849510000000  0.5810590000000 1.0
C      1  0.4614510000000  0.5150490000000  0.4189410000000 1.0
C      1  0.5385490000000  0.5150490000000  0.5810590000000 1.0
C      1  0.5150490000000  0.4189410000000  0.4614510000000 1.0
C      1  0.5150490000000  0.5810590000000  0.5385490000000 1.0
C      1  0.4849510000000  0.5810590000000  0.4614510000000 1.0
C      1  0.5810590000000  0.5385490000000  0.5150490000000 1.0
C      1  0.5810590000000  0.4614510000000  0.4849510000000 1.0
C      1  0.4189410000000  0.4614510000000  0.5150490000000 1.0
C      1  0.4189410000000  0.4849510000000  0.5385490000000 1.0
C      1  0.5385490000000  0.4189410000000  0.4849510000000 1.0
C      1  0.4849510000000  0.5385490000000  0.4189410000000 1.0
C      1  0.5810590000000  0.4849510000000  0.4614510000000 1.0
C      1  0.4189410000000  0.5150490000000  0.4614510000000 1.0
C      1  0.5810590000000  0.5150490000000  0.5385490000000 1.0
C      1  0.4614510000000  0.4189410000000  0.5150490000000 1.0
C      1  0.5385490000000  0.5810590000000  0.5150490000000 1.0
C      1  0.4614510000000  0.5810590000000  0.4849510000000 1.0
C      1  0.5150490000000  0.5385490000000  0.5810590000000 1.0
C      1  0.4849510000000  0.4614510000000  0.5810590000000 1.0
C      1  0.5150490000000  0.4614510000000  0.4189410000000 1.0
C      1  0.5111620000000  0.5684280000000  0.4998300000000 1.0
C      1  0.5684280000000  0.4998300000000  0.5111620000000 1.0
C      1  0.4998300000000  0.5111620000000  0.5684280000000 1.0
C      1  0.4888380000000  0.5684280000000  0.5001700000000 1.0
C      1  0.4888380000000  0.4315720000000  0.4998300000000 1.0
C      1  0.5111620000000  0.4315720000000  0.5001700000000 1.0
C      1  0.4315720000000  0.4998300000000  0.4888380000000 1.0
C      1  0.4315720000000  0.5001700000000  0.5111620000000 1.0
C      1  0.5684280000000  0.5001700000000  0.4888380000000 1.0
C      1  0.5001700000000  0.5111620000000  0.4315720000000 1.0
C      1  0.5001700000000  0.4888380000000  0.5684280000000 1.0
C      1  0.4998300000000  0.4888380000000  0.4315720000000 1.0
C      1  0.4998300000000  0.5684280000000  0.5111620000000 1.0
C      1  0.5111620000000  0.4998300000000  0.5684280000000 1.0
C      1  0.5684280000000  0.5111620000000  0.4998300000000 1.0
C      1  0.5001700000000  0.5684280000000  0.4888380000000 1.0
C      1  0.4998300000000  0.4315720000000  0.4888380000000 1.0
C      1  0.5001700000000  0.4315720000000  0.5111620000000 1.0
C      1  0.4888380000000  0.4998300000000  0.4315720000000 1.0
C      1  0.5111620000000  0.5001700000000  0.4315720000000 1.0
C      1  0.4888380000000  0.5001700000000  0.5684280000000 1.0
C      1  0.4315720000000  0.5111620000000  0.5001700000000 1.0
C      1  0.5684280000000  0.4888380000000  0.5001700000000 1.0
C      1  0.4315720000000  0.4888380000000  0.4998300000000 1.0
C      1  0.5284980000000  0.4899930000000  0.4492440000000 1.0
C      1  0.4899930000000  0.4492440000000  0.5284980000000 1.0
C      1  0.4492440000000  0.5284980000000  0.4899930000000 1.0
C      1  0.4715020000000  0.4899930000000  0.5507560000000 1.0
C      1  0.4715020000000  0.5100070000000  0.4492440000000 1.0
C      1  0.5284980000000  0.5100070000000  0.5507560000000 1.0
C      1  0.5100070000000  0.4492440000000  0.4715020000000 1.0
C      1  0.5100070000000  0.5507560000000  0.5284980000000 1.0
C      1  0.4899930000000  0.5507560000000  0.4715020000000 1.0
C      1  0.5507560000000  0.5284980000000  0.5100070000000 1.0
C      1  0.5507560000000  0.4715020000000  0.4899930000000 1.0
C      1  0.4492440000000  0.4715020000000  0.5100070000000 1.0
C      1  0.4492440000000  0.4899930000000  0.5284980000000 1.0
C      1  0.5284980000000  0.4492440000000  0.4899930000000 1.0
C      1  0.4899930000000  0.5284980000000  0.4492440000000 1.0
C      1  0.5507560000000  0.4899930000000  0.4715020000000 1.0
C      1  0.4492440000000  0.5100070000000  0.4715020000000 1.0
C      1  0.5507560000000  0.5100070000000  0.5284980000000 1.0
C      1  0.4715020000000  0.4492440000000  0.5100070000000 1.0
C      1  0.5284980000000  0.5507560000000  0.5100070000000 1.0
C      1  0.4715020000000  0.5507560000000  0.4899930000000 1.0
C      1  0.5100070000000  0.5284980000000  0.5507560000000 1.0
C      1  0.4899930000000  0.4715020000000  0.5507560000000 1.0
C      1  0.5100070000000  0.4715020000000  0.4492440000000 1.0
C      1  0.4621140000000  0.4420190000000  0.4520830000000 1.0
C      1  0.4420190000000  0.4520830000000  0.4621140000000 1.0
C      1  0.4520830000000  0.4621140000000  0.4420190000000 1.0
C      1  0.5378860000000  0.4420190000000  0.5479170000000 1.0
C      1  0.5378860000000  0.5579810000000  0.4520830000000 1.0
C      1  0.4621140000000  0.5579810000000  0.5479170000000 1.0
C      1  0.5579810000000  0.4520830000000  0.5378860000000 1.0
C      1  0.5579810000000  0.5479170000000  0.4621140000000 1.0
C      1  0.4420190000000  0.5479170000000  0.5378860000000 1.0
C      1  0.5479170000000  0.4621140000000  0.5579810000000 1.0
C      1  0.5479170000000  0.5378860000000  0.4420190000000 1.0
C      1  0.4520830000000  0.5378860000000  0.5579810000000 1.0
C      1  0.4520830000000  0.4420190000000  0.4621140000000 1.0
C      1  0.4621140000000  0.4520830000000  0.4420190000000 1.0
C      1  0.4420190000000  0.4621140000000  0.4520830000000 1.0
C      1  0.5479170000000  0.4420190000000  0.5378860000000 1.0
C      1  0.4520830000000  0.5579810000000  0.5378860000000 1.0
C      1  0.5479170000000  0.5579810000000  0.4621140000000 1.0
C      1  0.5378860000000  0.4520830000000  0.5579810000000 1.0
C      1  0.4621140000000  0.5479170000000  0.5579810000000 1.0
C      1  0.5378860000000  0.5479170000000  0.4420190000000 1.0
C      1  0.5579810000000  0.4621140000000  0.5479170000000 1.0
C      1  0.4420190000000  0.5378860000000  0.5479170000000 1.0
C      1  0.5579810000000  0.5378860000000  0.4520830000000 1.0
C      1  0.4518300000000  0.4404740000000  0.5595260000000 1.0
C      1  0.5595260000000  0.4518300000000  0.4404740000000 1.0
C      1  0.4518290000000  0.5595260000000  0.4404740000000 1.0
C      1  0.4404740000000  0.4518300000000  0.5595260000000 1.0
C      1  0.4404740000000  0.5481700000000  0.4404740000000 1.0
C      1  0.5595260000000  0.4404740000000  0.4518290000000 1.0
C      1  0.5481700000000  0.4404740000000  0.4404740000000 1.0
C      1  0.4404740000000  0.5595260000000  0.4518300000000 1.0
C      1  0.5595260000000  0.5595260000000  0.5481700000000 1.0
C      1  0.4404740000000  0.4404740000000  0.5481700000000 1.0
C      1  0.5481700000000  0.5595260000000  0.5595260000000 1.0
C      1  0.5595260000000  0.5481700000000  0.5595260000000 1.0
END
