TITL C-1379265-1223-9 -4.04294687187187e-07 1000000 -2536.6344260671 0 0 360 (Th) n - 1
REM
REM in /nfs/bkarasulu/CARBON/AIRSS/Generating-Clusters/GAP-ML-2020/Higher-Symm/Selected-Sizes/TryA-Only_Ih-Symm/Larger-Clusters/Try2-MINAMP_6A
REM
REM
REM
REM
REM
REM ./C.cell (31579ac4e95a012ec27f3239692ae8a5)
REM
REM compiler GCC version 9.2.1 20190827 (Red Hat 9.2.1-1)
REM options -cpp -mtune=generic -march=x86-64 -g -O0 -fpre-include=/usr/include/finclude/math-vector-fortran.h
REM seed -570741785 1681115122 -3277940 742548560 370478155 892946753 -256224406 704671933 67455801 1595458301 -1913723464 -884476109 713768502 -2110841018 773562897 -1939590733 1344148726 -475296499 -1316639247 165164008 -2070785525 -337033364 739110451 1090535364 2081000913 1649683711 1610709177 1912253908 -1829371154 1448710978 -1616301906 295379237 -1686763419
REM
CELL 1.54180  100.00000  100.00000  100.00000   90.00000   90.00000   90.00000
LATT -1
SFAC C  
C      1  0.4728860000000  0.4927210000000  0.5730850000000 1.0
C      1  0.4927210000000  0.5730850000000  0.4728860000000 1.0
C      1  0.5730850000000  0.4728860000000  0.4927210000000 1.0
C      1  0.4728860000000  0.5072790000000  0.4269150000000 1.0
C      1  0.5271140000000  0.4927210000000  0.4269150000000 1.0
C      1  0.5271140000000  0.5072790000000  0.5730850000000 1.0
C      1  0.4927210000000  0.4269150000000  0.5271140000000 1.0
C      1  0.5072790000000  0.5730850000000  0.5271140000000 1.0
C      1  0.5072790000000  0.4269150000000  0.4728860000000 1.0
C      1  0.5730850000000  0.5271140000000  0.5072790000000 1.0
C      1  0.4269150000000  0.4728860000000  0.5072790000000 1.0
C      1  0.4269150000000  0.5271140000000  0.4927210000000 1.0
C      1  0.5271140000000  0.4927210000000  0.5730850000000 1.0
C      1  0.5072790000000  0.5730850000000  0.4728860000000 1.0
C      1  0.4269150000000  0.4728860000000  0.4927210000000 1.0
C      1  0.5271140000000  0.5072790000000  0.4269150000000 1.0
C      1  0.4728860000000  0.4927210000000  0.4269150000000 1.0
C      1  0.4728860000000  0.5072790000000  0.5730850000000 1.0
C      1  0.5072790000000  0.4269150000000  0.5271140000000 1.0
C      1  0.4927210000000  0.5730850000000  0.5271140000000 1.0
C      1  0.4927210000000  0.4269150000000  0.4728860000000 1.0
C      1  0.4269150000000  0.5271140000000  0.5072790000000 1.0
C      1  0.5730850000000  0.4728860000000  0.5072790000000 1.0
C      1  0.5730850000000  0.5271140000000  0.4927210000000 1.0
C      1  0.5246800000000  0.4684610000000  0.4560380000000 1.0
C      1  0.4684610000000  0.4560380000000  0.5246800000000 1.0
C      1  0.4560380000000  0.5246800000000  0.4684610000000 1.0
C      1  0.5246800000000  0.5315390000000  0.5439620000000 1.0
C      1  0.4753200000000  0.4684610000000  0.5439620000000 1.0
C      1  0.4753200000000  0.5315390000000  0.4560380000000 1.0
C      1  0.4684610000000  0.5439620000000  0.4753200000000 1.0
C      1  0.5315390000000  0.4560380000000  0.4753200000000 1.0
C      1  0.5315390000000  0.5439620000000  0.5246800000000 1.0
C      1  0.4560380000000  0.4753200000000  0.5315390000000 1.0
C      1  0.5439620000000  0.5246800000000  0.5315390000000 1.0
C      1  0.5439620000000  0.4753200000000  0.4684610000000 1.0
C      1  0.4753200000000  0.4684610000000  0.4560380000000 1.0
C      1  0.5315390000000  0.4560380000000  0.5246800000000 1.0
C      1  0.5439620000000  0.5246800000000  0.4684610000000 1.0
C      1  0.4753200000000  0.5315390000000  0.5439620000000 1.0
C      1  0.5246800000000  0.4684610000000  0.5439620000000 1.0
C      1  0.5246800000000  0.5315390000000  0.4560380000000 1.0
C      1  0.5315390000000  0.5439620000000  0.4753200000000 1.0
C      1  0.4684610000000  0.4560380000000  0.4753200000000 1.0
C      1  0.4684610000000  0.5439620000000  0.5246800000000 1.0
C      1  0.5439620000000  0.4753200000000  0.5315390000000 1.0
C      1  0.4560380000000  0.5246800000000  0.5315390000000 1.0
C      1  0.4560380000000  0.4753200000000  0.4684610000000 1.0
C      1  0.5504250000000  0.4384490000000  0.5071370000000 1.0
C      1  0.4384490000000  0.5071370000000  0.5504250000000 1.0
C      1  0.5071370000000  0.5504250000000  0.4384490000000 1.0
C      1  0.5504250000000  0.5615510000000  0.4928630000000 1.0
C      1  0.4495750000000  0.4384490000000  0.4928630000000 1.0
C      1  0.4495750000000  0.5615510000000  0.5071370000000 1.0
C      1  0.4384490000000  0.4928630000000  0.4495750000000 1.0
C      1  0.5615510000000  0.5071370000000  0.4495750000000 1.0
C      1  0.5615510000000  0.4928630000000  0.5504250000000 1.0
C      1  0.5071370000000  0.4495750000000  0.5615510000000 1.0
C      1  0.4928630000000  0.5504250000000  0.5615510000000 1.0
C      1  0.4928630000000  0.4495750000000  0.4384490000000 1.0
C      1  0.4495750000000  0.4384490000000  0.5071370000000 1.0
C      1  0.5615510000000  0.5071370000000  0.5504250000000 1.0
C      1  0.4928630000000  0.5504250000000  0.4384490000000 1.0
C      1  0.4495750000000  0.5615510000000  0.4928630000000 1.0
C      1  0.5504250000000  0.4384490000000  0.4928630000000 1.0
C      1  0.5504250000000  0.5615510000000  0.5071370000000 1.0
C      1  0.5615510000000  0.4928630000000  0.4495750000000 1.0
C      1  0.4384490000000  0.5071370000000  0.4495750000000 1.0
C      1  0.4384490000000  0.4928630000000  0.5504250000000 1.0
C      1  0.4928630000000  0.4495750000000  0.5615510000000 1.0
C      1  0.5071370000000  0.5504250000000  0.5615510000000 1.0
C      1  0.5071370000000  0.4495750000000  0.4384490000000 1.0
C      1  0.4927640000000  0.5388480000000  0.5270510000000 1.0
C      1  0.5388480000000  0.5270510000000  0.4927640000000 1.0
C      1  0.5270510000000  0.4927640000000  0.5388480000000 1.0
C      1  0.4927640000000  0.4611520000000  0.4729490000000 1.0
C      1  0.5072360000000  0.5388480000000  0.4729490000000 1.0
C      1  0.5072360000000  0.4611520000000  0.5270510000000 1.0
C      1  0.5388480000000  0.4729490000000  0.5072360000000 1.0
C      1  0.4611520000000  0.5270510000000  0.5072360000000 1.0
C      1  0.4611520000000  0.4729490000000  0.4927640000000 1.0
C      1  0.5270510000000  0.5072360000000  0.4611520000000 1.0
C      1  0.4729490000000  0.4927640000000  0.4611520000000 1.0
C      1  0.4729490000000  0.5072360000000  0.5388480000000 1.0
C      1  0.5072360000000  0.5388480000000  0.5270510000000 1.0
C      1  0.4611520000000  0.5270510000000  0.4927640000000 1.0
C      1  0.4729490000000  0.4927640000000  0.5388480000000 1.0
C      1  0.5072360000000  0.4611520000000  0.4729490000000 1.0
C      1  0.4927640000000  0.5388480000000  0.4729490000000 1.0
C      1  0.4927640000000  0.4611520000000  0.5270510000000 1.0
C      1  0.4611520000000  0.4729490000000  0.5072360000000 1.0
C      1  0.5388480000000  0.5270510000000  0.5072360000000 1.0
C      1  0.5388480000000  0.4729490000000  0.4927640000000 1.0
C      1  0.4729490000000  0.5072360000000  0.4611520000000 1.0
C      1  0.5270510000000  0.4927640000000  0.4611520000000 1.0
C      1  0.5270510000000  0.5072360000000  0.5388480000000 1.0
C      1  0.4822600000000  0.5489700000000  0.4931470000000 1.0
C      1  0.5489700000000  0.4931470000000  0.4822600000000 1.0
C      1  0.4931470000000  0.4822600000000  0.5489700000000 1.0
C      1  0.4822600000000  0.4510300000000  0.5068530000000 1.0
C      1  0.5177400000000  0.5489700000000  0.5068530000000 1.0
C      1  0.5177400000000  0.4510300000000  0.4931470000000 1.0
C      1  0.5489700000000  0.5068530000000  0.5177400000000 1.0
C      1  0.4510300000000  0.4931470000000  0.5177400000000 1.0
C      1  0.4510300000000  0.5068530000000  0.4822600000000 1.0
C      1  0.4931470000000  0.5177400000000  0.4510300000000 1.0
C      1  0.5068530000000  0.4822600000000  0.4510300000000 1.0
C      1  0.5068530000000  0.5177400000000  0.5489700000000 1.0
C      1  0.5177400000000  0.5489700000000  0.4931470000000 1.0
C      1  0.4510300000000  0.4931470000000  0.4822600000000 1.0
C      1  0.5068530000000  0.4822600000000  0.5489700000000 1.0
C      1  0.5177400000000  0.4510300000000  0.5068530000000 1.0
C      1  0.4822600000000  0.5489700000000  0.5068530000000 1.0
C      1  0.4822600000000  0.4510300000000  0.4931470000000 1.0
C      1  0.4510300000000  0.5068530000000  0.5177400000000 1.0
C      1  0.5489700000000  0.4931470000000  0.5177400000000 1.0
C      1  0.5489700000000  0.5068530000000  0.4822600000000 1.0
C      1  0.5068530000000  0.5177400000000  0.4510300000000 1.0
C      1  0.4931470000000  0.4822600000000  0.4510300000000 1.0
C      1  0.4931470000000  0.5177400000000  0.5489700000000 1.0
C      1  0.5343140000000  0.4791100000000  0.4583640000000 1.0
C      1  0.4791100000000  0.4583640000000  0.5343140000000 1.0
C      1  0.4583640000000  0.5343140000000  0.4791100000000 1.0
C      1  0.5343140000000  0.5208900000000  0.5416360000000 1.0
C      1  0.4656860000000  0.4791100000000  0.5416360000000 1.0
C      1  0.4656860000000  0.5208900000000  0.4583640000000 1.0
C      1  0.4791100000000  0.5416360000000  0.4656860000000 1.0
C      1  0.5208900000000  0.4583640000000  0.4656860000000 1.0
C      1  0.5208900000000  0.5416360000000  0.5343140000000 1.0
C      1  0.4583640000000  0.4656860000000  0.5208900000000 1.0
C      1  0.5416360000000  0.5343140000000  0.5208900000000 1.0
C      1  0.5416360000000  0.4656860000000  0.4791100000000 1.0
C      1  0.4656860000000  0.4791100000000  0.4583640000000 1.0
C      1  0.5208900000000  0.4583640000000  0.5343140000000 1.0
C      1  0.5416360000000  0.5343140000000  0.4791100000000 1.0
C      1  0.4656860000000  0.5208900000000  0.5416360000000 1.0
C      1  0.5343140000000  0.4791100000000  0.5416360000000 1.0
C      1  0.5343140000000  0.5208900000000  0.4583640000000 1.0
C      1  0.5208900000000  0.5416360000000  0.4656860000000 1.0
C      1  0.4791100000000  0.4583640000000  0.4656860000000 1.0
C      1  0.4791100000000  0.5416360000000  0.5343140000000 1.0
C      1  0.5416360000000  0.4656860000000  0.5208900000000 1.0
C      1  0.4583640000000  0.5343140000000  0.5208900000000 1.0
C      1  0.4583640000000  0.4656860000000  0.4791100000000 1.0
C      1  0.4849450000000  0.4221070000000  0.4847980000000 1.0
C      1  0.4221070000000  0.4847980000000  0.4849450000000 1.0
C      1  0.4847980000000  0.4849450000000  0.4221070000000 1.0
C      1  0.4849450000000  0.5778930000000  0.5152020000000 1.0
C      1  0.5150550000000  0.4221070000000  0.5152020000000 1.0
C      1  0.5150550000000  0.5778930000000  0.4847980000000 1.0
C      1  0.4221070000000  0.5152020000000  0.5150550000000 1.0
C      1  0.5778930000000  0.4847980000000  0.5150550000000 1.0
C      1  0.5778930000000  0.5152020000000  0.4849450000000 1.0
C      1  0.4847980000000  0.5150550000000  0.5778930000000 1.0
C      1  0.5152020000000  0.4849450000000  0.5778930000000 1.0
C      1  0.5152020000000  0.5150550000000  0.4221070000000 1.0
C      1  0.5150550000000  0.4221070000000  0.4847980000000 1.0
C      1  0.5778930000000  0.4847980000000  0.4849450000000 1.0
C      1  0.5152020000000  0.4849450000000  0.4221070000000 1.0
C      1  0.5150550000000  0.5778930000000  0.5152020000000 1.0
C      1  0.4849450000000  0.4221070000000  0.5152020000000 1.0
C      1  0.4849450000000  0.5778930000000  0.4847980000000 1.0
C      1  0.5778930000000  0.5152020000000  0.5150550000000 1.0
C      1  0.4221070000000  0.4847980000000  0.5150550000000 1.0
C      1  0.4221070000000  0.5152020000000  0.4849450000000 1.0
C      1  0.5152020000000  0.5150550000000  0.5778930000000 1.0
C      1  0.4847980000000  0.4849450000000  0.5778930000000 1.0
C      1  0.4847980000000  0.5150550000000  0.4221070000000 1.0
C      1  0.5368890000000  0.5644230000000  0.4877420000000 1.0
C      1  0.5644230000000  0.4877420000000  0.5368890000000 1.0
C      1  0.4877420000000  0.5368890000000  0.5644230000000 1.0
C      1  0.5368890000000  0.4355770000000  0.5122580000000 1.0
C      1  0.4631110000000  0.5644230000000  0.5122580000000 1.0
C      1  0.4631110000000  0.4355770000000  0.4877420000000 1.0
C      1  0.5644230000000  0.5122580000000  0.4631110000000 1.0
C      1  0.4355770000000  0.4877420000000  0.4631110000000 1.0
C      1  0.4355770000000  0.5122580000000  0.5368890000000 1.0
C      1  0.4877420000000  0.4631110000000  0.4355770000000 1.0
C      1  0.5122580000000  0.5368890000000  0.4355770000000 1.0
C      1  0.5122580000000  0.4631110000000  0.5644230000000 1.0
C      1  0.4631110000000  0.5644230000000  0.4877420000000 1.0
C      1  0.4355770000000  0.4877420000000  0.5368890000000 1.0
C      1  0.5122580000000  0.5368890000000  0.5644230000000 1.0
C      1  0.4631110000000  0.4355770000000  0.5122580000000 1.0
C      1  0.5368890000000  0.5644230000000  0.5122580000000 1.0
C      1  0.5368890000000  0.4355770000000  0.4877420000000 1.0
C      1  0.4355770000000  0.5122580000000  0.4631110000000 1.0
C      1  0.5644230000000  0.4877420000000  0.4631110000000 1.0
C      1  0.5644230000000  0.5122580000000  0.5368890000000 1.0
C      1  0.5122580000000  0.4631110000000  0.4355770000000 1.0
C      1  0.4877420000000  0.5368890000000  0.4355770000000 1.0
C      1  0.4877420000000  0.4631110000000  0.5644230000000 1.0
C      1  0.4927890000000  0.5271240000000  0.5742090000000 1.0
C      1  0.5271240000000  0.5742090000000  0.4927890000000 1.0
C      1  0.5742090000000  0.4927890000000  0.5271240000000 1.0
C      1  0.4927890000000  0.4728760000000  0.4257910000000 1.0
C      1  0.5072110000000  0.5271240000000  0.4257910000000 1.0
C      1  0.5072110000000  0.4728760000000  0.5742090000000 1.0
C      1  0.5271240000000  0.4257910000000  0.5072110000000 1.0
C      1  0.4728760000000  0.5742090000000  0.5072110000000 1.0
C      1  0.4728760000000  0.4257910000000  0.4927890000000 1.0
C      1  0.5742090000000  0.5072110000000  0.4728760000000 1.0
C      1  0.4257910000000  0.4927890000000  0.4728760000000 1.0
C      1  0.4257910000000  0.5072110000000  0.5271240000000 1.0
C      1  0.5072110000000  0.5271240000000  0.5742090000000 1.0
C      1  0.4728760000000  0.5742090000000  0.4927890000000 1.0
C      1  0.4257910000000  0.4927890000000  0.5271240000000 1.0
C      1  0.5072110000000  0.4728760000000  0.4257910000000 1.0
C      1  0.4927890000000  0.5271240000000  0.4257910000000 1.0
C      1  0.4927890000000  0.4728760000000  0.5742090000000 1.0
C      1  0.4728760000000  0.4257910000000  0.5072110000000 1.0
C      1  0.5271240000000  0.5742090000000  0.5072110000000 1.0
C      1  0.5271240000000  0.4257910000000  0.4927890000000 1.0
C      1  0.4257910000000  0.5072110000000  0.4728760000000 1.0
C      1  0.5742090000000  0.4927890000000  0.4728760000000 1.0
C      1  0.5742090000000  0.5072110000000  0.5271240000000 1.0
C      1  0.5411230000000  0.4792500000000  0.5554980000000 1.0
C      1  0.4792500000000  0.5554980000000  0.5411230000000 1.0
C      1  0.5554980000000  0.5411230000000  0.4792500000000 1.0
C      1  0.5411230000000  0.5207500000000  0.4445020000000 1.0
C      1  0.4588770000000  0.4792500000000  0.4445020000000 1.0
C      1  0.4588770000000  0.5207500000000  0.5554980000000 1.0
C      1  0.4792500000000  0.4445020000000  0.4588770000000 1.0
C      1  0.5207500000000  0.5554980000000  0.4588770000000 1.0
C      1  0.5207500000000  0.4445020000000  0.5411230000000 1.0
C      1  0.5554980000000  0.4588770000000  0.5207500000000 1.0
C      1  0.4445020000000  0.5411230000000  0.5207500000000 1.0
C      1  0.4445020000000  0.4588770000000  0.4792500000000 1.0
C      1  0.4588770000000  0.4792500000000  0.5554980000000 1.0
C      1  0.5207500000000  0.5554980000000  0.5411230000000 1.0
C      1  0.4445020000000  0.5411230000000  0.4792500000000 1.0
C      1  0.4588770000000  0.5207500000000  0.4445020000000 1.0
C      1  0.5411230000000  0.4792500000000  0.4445020000000 1.0
C      1  0.5411230000000  0.5207500000000  0.5554980000000 1.0
C      1  0.5207500000000  0.4445020000000  0.4588770000000 1.0
C      1  0.4792500000000  0.5554980000000  0.4588770000000 1.0
C      1  0.4792500000000  0.4445020000000  0.5411230000000 1.0
C      1  0.4445020000000  0.4588770000000  0.5207500000000 1.0
C      1  0.5554980000000  0.5411230000000  0.5207500000000 1.0
C      1  0.5554980000000  0.4588770000000  0.4792500000000 1.0
C      1  0.5518460000000  0.5133510000000  0.5592280000000 1.0
C      1  0.5133510000000  0.5592280000000  0.5518460000000 1.0
C      1  0.5592280000000  0.5518460000000  0.5133510000000 1.0
C      1  0.5518460000000  0.4866490000000  0.4407720000000 1.0
C      1  0.4481540000000  0.5133510000000  0.4407720000000 1.0
C      1  0.4481540000000  0.4866490000000  0.5592280000000 1.0
C      1  0.5133510000000  0.4407720000000  0.4481540000000 1.0
C      1  0.4866490000000  0.5592280000000  0.4481540000000 1.0
C      1  0.4866490000000  0.4407720000000  0.5518460000000 1.0
C      1  0.5592280000000  0.4481540000000  0.4866490000000 1.0
C      1  0.4407720000000  0.5518460000000  0.4866490000000 1.0
C      1  0.4407720000000  0.4481540000000  0.5133510000000 1.0
C      1  0.4481540000000  0.5133510000000  0.5592280000000 1.0
C      1  0.4866490000000  0.5592280000000  0.5518460000000 1.0
C      1  0.4407720000000  0.5518460000000  0.5133510000000 1.0
C      1  0.4481540000000  0.4866490000000  0.4407720000000 1.0
C      1  0.5518460000000  0.5133510000000  0.4407720000000 1.0
C      1  0.5518460000000  0.4866490000000  0.5592280000000 1.0
C      1  0.4866490000000  0.4407720000000  0.4481540000000 1.0
C      1  0.5133510000000  0.5592280000000  0.4481540000000 1.0
C      1  0.5133510000000  0.4407720000000  0.5518460000000 1.0
C      1  0.4407720000000  0.4481540000000  0.4866490000000 1.0
C      1  0.5592280000000  0.5518460000000  0.4866490000000 1.0
C      1  0.5592280000000  0.4481540000000  0.5133510000000 1.0
C      1  0.5535060000000  0.4847910000000  0.4714320000000 1.0
C      1  0.4847910000000  0.4714320000000  0.5535060000000 1.0
C      1  0.4714320000000  0.5535060000000  0.4847910000000 1.0
C      1  0.5535060000000  0.5152090000000  0.5285680000000 1.0
C      1  0.4464940000000  0.4847910000000  0.5285680000000 1.0
C      1  0.4464940000000  0.5152090000000  0.4714320000000 1.0
C      1  0.4847910000000  0.5285680000000  0.4464940000000 1.0
C      1  0.5152090000000  0.4714320000000  0.4464940000000 1.0
C      1  0.5152090000000  0.5285680000000  0.5535060000000 1.0
C      1  0.4714320000000  0.4464940000000  0.5152090000000 1.0
C      1  0.5285680000000  0.5535060000000  0.5152090000000 1.0
C      1  0.5285680000000  0.4464940000000  0.4847910000000 1.0
C      1  0.4464940000000  0.4847910000000  0.4714320000000 1.0
C      1  0.5152090000000  0.4714320000000  0.5535060000000 1.0
C      1  0.5285680000000  0.5535060000000  0.4847910000000 1.0
C      1  0.4464940000000  0.5152090000000  0.5285680000000 1.0
C      1  0.5535060000000  0.4847910000000  0.5285680000000 1.0
C      1  0.5535060000000  0.5152090000000  0.4714320000000 1.0
C      1  0.5152090000000  0.5285680000000  0.4464940000000 1.0
C      1  0.4847910000000  0.4714320000000  0.4464940000000 1.0
C      1  0.4847910000000  0.5285680000000  0.5535060000000 1.0
C      1  0.5285680000000  0.4464940000000  0.5152090000000 1.0
C      1  0.4714320000000  0.5535060000000  0.5152090000000 1.0
C      1  0.4714320000000  0.4464940000000  0.4847910000000 1.0
C      1  0.4927580000000  0.4928030000000  0.4142780000000 1.0
C      1  0.4928030000000  0.4142780000000  0.4927580000000 1.0
C      1  0.4142780000000  0.4927580000000  0.4928030000000 1.0
C      1  0.4927580000000  0.5071970000000  0.5857220000000 1.0
C      1  0.5072420000000  0.4928030000000  0.5857220000000 1.0
C      1  0.5072420000000  0.5071970000000  0.4142780000000 1.0
C      1  0.4928030000000  0.5857220000000  0.5072420000000 1.0
C      1  0.5071970000000  0.4142780000000  0.5072420000000 1.0
C      1  0.5071970000000  0.5857220000000  0.4927580000000 1.0
C      1  0.4142780000000  0.5072420000000  0.5071970000000 1.0
C      1  0.5857220000000  0.4927580000000  0.5071970000000 1.0
C      1  0.5857220000000  0.5072420000000  0.4928030000000 1.0
C      1  0.5072420000000  0.4928030000000  0.4142780000000 1.0
C      1  0.5071970000000  0.4142780000000  0.4927580000000 1.0
C      1  0.5857220000000  0.4927580000000  0.4928030000000 1.0
C      1  0.5072420000000  0.5071970000000  0.5857220000000 1.0
C      1  0.4927580000000  0.4928030000000  0.5857220000000 1.0
C      1  0.4927580000000  0.5071970000000  0.4142780000000 1.0
C      1  0.5071970000000  0.5857220000000  0.5072420000000 1.0
C      1  0.4928030000000  0.4142780000000  0.5072420000000 1.0
C      1  0.4928030000000  0.5857220000000  0.4927580000000 1.0
C      1  0.5857220000000  0.5072420000000  0.5071970000000 1.0
C      1  0.4142780000000  0.4927580000000  0.5071970000000 1.0
C      1  0.4142780000000  0.5072420000000  0.4928030000000 1.0
C      1  0.4570530000000  0.5133890000000  0.5072440000000 1.0
C      1  0.5133890000000  0.5072440000000  0.4570530000000 1.0
C      1  0.5072440000000  0.4570530000000  0.5133890000000 1.0
C      1  0.4570530000000  0.4866110000000  0.4927560000000 1.0
C      1  0.5429470000000  0.5133890000000  0.4927560000000 1.0
C      1  0.5429470000000  0.4866110000000  0.5072440000000 1.0
C      1  0.5133890000000  0.4927560000000  0.5429470000000 1.0
C      1  0.4866110000000  0.5072440000000  0.5429470000000 1.0
C      1  0.4866110000000  0.4927560000000  0.4570530000000 1.0
C      1  0.5072440000000  0.5429470000000  0.4866110000000 1.0
C      1  0.4927560000000  0.4570530000000  0.4866110000000 1.0
C      1  0.4927560000000  0.5429470000000  0.5133890000000 1.0
C      1  0.5429470000000  0.5133890000000  0.5072440000000 1.0
C      1  0.4866110000000  0.5072440000000  0.4570530000000 1.0
C      1  0.4927560000000  0.4570530000000  0.5133890000000 1.0
C      1  0.5429470000000  0.4866110000000  0.4927560000000 1.0
C      1  0.4570530000000  0.5133890000000  0.4927560000000 1.0
C      1  0.4570530000000  0.4866110000000  0.5072440000000 1.0
C      1  0.4866110000000  0.4927560000000  0.5429470000000 1.0
C      1  0.5133890000000  0.5072440000000  0.5429470000000 1.0
C      1  0.5133890000000  0.4927560000000  0.4570530000000 1.0
C      1  0.4927560000000  0.5429470000000  0.4866110000000 1.0
C      1  0.5072440000000  0.4570530000000  0.4866110000000 1.0
C      1  0.5072440000000  0.5429470000000  0.5133890000000 1.0
C      1  0.5667570000000  0.5389380000000  0.4865590000000 1.0
C      1  0.5389380000000  0.4865590000000  0.5667570000000 1.0
C      1  0.4865590000000  0.5667570000000  0.5389380000000 1.0
C      1  0.5667570000000  0.4610620000000  0.5134410000000 1.0
C      1  0.4332430000000  0.5389380000000  0.5134410000000 1.0
C      1  0.4332430000000  0.4610620000000  0.4865590000000 1.0
C      1  0.5389380000000  0.5134410000000  0.4332430000000 1.0
C      1  0.4610620000000  0.4865590000000  0.4332430000000 1.0
C      1  0.4610620000000  0.5134410000000  0.5667570000000 1.0
C      1  0.4865590000000  0.4332430000000  0.4610620000000 1.0
C      1  0.5134410000000  0.5667570000000  0.4610620000000 1.0
C      1  0.5134410000000  0.4332430000000  0.5389380000000 1.0
C      1  0.4332430000000  0.5389380000000  0.4865590000000 1.0
C      1  0.4610620000000  0.4865590000000  0.5667570000000 1.0
C      1  0.5134410000000  0.5667570000000  0.5389380000000 1.0
C      1  0.4332430000000  0.4610620000000  0.5134410000000 1.0
C      1  0.5667570000000  0.5389380000000  0.5134410000000 1.0
C      1  0.5667570000000  0.4610620000000  0.4865590000000 1.0
C      1  0.4610620000000  0.5134410000000  0.4332430000000 1.0
C      1  0.5389380000000  0.4865590000000  0.4332430000000 1.0
C      1  0.5389380000000  0.5134410000000  0.5667570000000 1.0
C      1  0.5134410000000  0.4332430000000  0.4610620000000 1.0
C      1  0.4865590000000  0.5667570000000  0.4610620000000 1.0
C      1  0.4865590000000  0.4332430000000  0.5389380000000 1.0
END
