TITL C-1379268-1316-141 3.35276384404559e-07 1000000 -4053.12021261081 0 0 560 (Cs) n - 1
REM
REM in /nfs/bkarasulu/CARBON/AIRSS/Generating-Clusters/GAP-ML-2020/Higher-Symm/Selected-Sizes/TryA-Only_Ih-Symm/Larger-Clusters/Try2-MINAMP_6A
REM
REM
REM
REM
REM
REM ./C.cell (31579ac4e95a012ec27f3239692ae8a5)
REM
REM compiler GCC version 9.2.1 20190827 (Red Hat 9.2.1-1)
REM options -cpp -mtune=generic -march=x86-64 -g -O0 -fpre-include=/usr/include/finclude/math-vector-fortran.h
REM seed -1130831884 -70531324 931686623 -593901733 990705486 -1313162903 -809852626 373198445 347443442 923256935 -1782300529 401845226 -1059180315 341745281 348305724 1773114221 573907238 -1384304221 182969434 518459577 -545911490 988470117 -1933713836 930084069 -1074740661 -1568404903 1204764476 -616435113 -631618140 -74518923 -1194415312 1526795077 523962139
REM
CELL 1.54180  100.00000  100.00000  100.00000   90.00000   90.00000   90.00000
LATT -1
SFAC C  
C      1  0.4572810000000  0.5069490000000  0.5477960000000 1.0
C      1  0.5472680000000  0.4578070000000  0.5071240000000 1.0
C      1  0.5067090000000  0.5472170000000  0.4568950000000 1.0
C      1  0.5435260000000  0.5071120000000  0.4527640000000 1.0
C      1  0.4572660000000  0.4929470000000  0.4524110000000 1.0
C      1  0.5432020000000  0.4930980000000  0.5470240000000 1.0
C      1  0.4525640000000  0.4568610000000  0.4931110000000 1.0
C      1  0.5465140000000  0.5439750000000  0.4932060000000 1.0
C      1  0.4521670000000  0.5436880000000  0.5071970000000 1.0
C      1  0.4927850000000  0.5470540000000  0.5435150000000 1.0
C      1  0.5072380000000  0.4518320000000  0.5443790000000 1.0
C      1  0.4931910000000  0.4524280000000  0.4560280000000 1.0
C      1  0.4572660000000  0.4929470000000  0.5479060000000 1.0
C      1  0.5465140000000  0.5439750000000  0.5071110000000 1.0
C      1  0.5072380000000  0.4518320000000  0.4559380000000 1.0
C      1  0.5432020000000  0.4930970000000  0.4532940000000 1.0
C      1  0.4572820000000  0.5069490000000  0.4525220000000 1.0
C      1  0.5435260000000  0.5071120000000  0.5475530000000 1.0
C      1  0.4521670000000  0.5436880000000  0.4931200000000 1.0
C      1  0.5472680000000  0.4578070000000  0.4931940000000 1.0
C      1  0.4525640000000  0.4568610000000  0.5072070000000 1.0
C      1  0.4931910000000  0.4524290000000  0.5442900000000 1.0
C      1  0.5067090000000  0.5472180000000  0.5434220000000 1.0
C      1  0.4927860000000  0.5470540000000  0.4568020000000 1.0
C      1  0.5814170000000  0.4885890000000  0.4855090000000 1.0
C      1  0.4806870000000  0.5872110000000  0.4855770000000 1.0
C      1  0.4870690000000  0.4829110000000  0.5885120000000 1.0
C      1  0.4130680000000  0.4863510000000  0.5182100000000 1.0
C      1  0.5874990000000  0.5163710000000  0.5219000000000 1.0
C      1  0.4129850000000  0.5138110000000  0.4821150000000 1.0
C      1  0.5163090000000  0.5879580000000  0.5142990000000 1.0
C      1  0.4841350000000  0.4195480000000  0.5134330000000 1.0
C      1  0.5130890000000  0.4190700000000  0.4867980000000 1.0
C      1  0.5154310000000  0.4817320000000  0.4126070000000 1.0
C      1  0.4869490000000  0.5178130000000  0.4121350000000 1.0
C      1  0.5148520000000  0.5174710000000  0.5877220000000 1.0
C      1  0.5874990000000  0.5163710000000  0.4784180000000 1.0
C      1  0.4841350000000  0.4195480000000  0.4868860000000 1.0
C      1  0.4869480000000  0.5178130000000  0.5881830000000 1.0
C      1  0.4129850000000  0.5138110000000  0.5182030000000 1.0
C      1  0.5814170000000  0.4885890000000  0.5148090000000 1.0
C      1  0.4130680000000  0.4863510000000  0.4821070000000 1.0
C      1  0.5130890000000  0.4190700000000  0.5135200000000 1.0
C      1  0.4806870000000  0.5872110000000  0.5147400000000 1.0
C      1  0.5163090000000  0.5879570000000  0.4860180000000 1.0
C      1  0.5148520000000  0.5174700000000  0.4125950000000 1.0
C      1  0.4870700000000  0.4829110000000  0.4118060000000 1.0
C      1  0.5154300000000  0.4817330000000  0.5877110000000 1.0
C      1  0.5734860000000  0.5063340000000  0.4460500000000 1.0
C      1  0.4454040000000  0.5739530000000  0.5071860000000 1.0
C      1  0.5067060000000  0.4463740000000  0.5756850000000 1.0
C      1  0.4274570000000  0.5073130000000  0.5539050000000 1.0
C      1  0.5733870000000  0.4923050000000  0.5534410000000 1.0
C      1  0.4273400000000  0.4931000000000  0.4463400000000 1.0
C      1  0.5526970000000  0.5742890000000  0.4931530000000 1.0
C      1  0.4463940000000  0.4265700000000  0.4931260000000 1.0
C      1  0.5506300000000  0.4269230000000  0.5073800000000 1.0
C      1  0.4926050000000  0.4470060000000  0.4247930000000 1.0
C      1  0.5076150000000  0.5534740000000  0.4268250000000 1.0
C      1  0.4935280000000  0.5534620000000  0.5740020000000 1.0
C      1  0.5733870000000  0.4923050000000  0.4468770000000 1.0
C      1  0.4463940000000  0.4265700000000  0.5071920000000 1.0
C      1  0.5076150000000  0.5534750000000  0.5734920000000 1.0
C      1  0.4273400000000  0.4931000000000  0.5539780000000 1.0
C      1  0.5734860000000  0.5063350000000  0.5542670000000 1.0
C      1  0.4274580000000  0.5073120000000  0.4464120000000 1.0
C      1  0.5506300000000  0.4269230000000  0.4929380000000 1.0
C      1  0.4454040000000  0.5739530000000  0.4931310000000 1.0
C      1  0.5526970000000  0.5742890000000  0.5071640000000 1.0
C      1  0.4935280000000  0.5534610000000  0.4263150000000 1.0
C      1  0.5067060000000  0.4463740000000  0.4246330000000 1.0
C      1  0.4926040000000  0.4470060000000  0.5755250000000 1.0
C      1  0.4694000000000  0.5845700000000  0.4929700000000 1.0
C      1  0.4937400000000  0.4712050000000  0.5858380000000 1.0
C      1  0.5829010000000  0.4931850000000  0.4717320000000 1.0
C      1  0.5278460000000  0.5854600000000  0.5072690000000 1.0
C      1  0.4712910000000  0.4182270000000  0.5072490000000 1.0
C      1  0.5260560000000  0.4181700000000  0.4930130000000 1.0
C      1  0.5079540000000  0.4704730000000  0.4148200000000 1.0
C      1  0.4939840000000  0.5292230000000  0.4150940000000 1.0
C      1  0.5082170000000  0.5291440000000  0.5847920000000 1.0
C      1  0.4163230000000  0.4929700000000  0.5298230000000 1.0
C      1  0.5842230000000  0.5069880000000  0.5310580000000 1.0
C      1  0.4163110000000  0.5072240000000  0.4704990000000 1.0
C      1  0.4712920000000  0.4182270000000  0.4930690000000 1.0
C      1  0.4939830000000  0.5292230000000  0.5852230000000 1.0
C      1  0.5842240000000  0.5069880000000  0.4692600000000 1.0
C      1  0.5260560000000  0.4181700000000  0.5073050000000 1.0
C      1  0.4694000000000  0.5845700000000  0.5073470000000 1.0
C      1  0.5278460000000  0.5854600000000  0.4930480000000 1.0
C      1  0.5082180000000  0.5291440000000  0.4155260000000 1.0
C      1  0.4937410000000  0.4712040000000  0.4144800000000 1.0
C      1  0.5079540000000  0.4704730000000  0.5854980000000 1.0
C      1  0.4163110000000  0.5072240000000  0.5298180000000 1.0
C      1  0.5829010000000  0.4931850000000  0.5285860000000 1.0
C      1  0.4163230000000  0.4929700000000  0.4704940000000 1.0
C      1  0.5383210000000  0.5751660000000  0.5277670000000 1.0
C      1  0.5286030000000  0.5389670000000  0.5722210000000 1.0
C      1  0.5726930000000  0.5286150000000  0.5410730000000 1.0
C      1  0.4592420000000  0.5731890000000  0.4716860000000 1.0
C      1  0.5373710000000  0.4275380000000  0.4712270000000 1.0
C      1  0.4598350000000  0.4271080000000  0.5288700000000 1.0
C      1  0.4728930000000  0.5392480000000  0.4249730000000 1.0
C      1  0.5284600000000  0.4593630000000  0.4262390000000 1.0
C      1  0.4724980000000  0.4613800000000  0.5757770000000 1.0
C      1  0.4283760000000  0.5282470000000  0.4607890000000 1.0
C      1  0.5743700000000  0.4718380000000  0.4615190000000 1.0
C      1  0.4281530000000  0.4719490000000  0.5396800000000 1.0
C      1  0.5373710000000  0.4275380000000  0.5290910000000 1.0
C      1  0.5284600000000  0.4593630000000  0.5740790000000 1.0
C      1  0.5743700000000  0.4718380000000  0.5387990000000 1.0
C      1  0.4598350000000  0.4271070000000  0.4714480000000 1.0
C      1  0.5383210000000  0.5751650000000  0.4725510000000 1.0
C      1  0.4592420000000  0.5731890000000  0.5286300000000 1.0
C      1  0.4724990000000  0.4613790000000  0.4245410000000 1.0
C      1  0.5286040000000  0.5389670000000  0.4280960000000 1.0
C      1  0.4728930000000  0.5392490000000  0.5753440000000 1.0
C      1  0.4281530000000  0.4719480000000  0.4606380000000 1.0
C      1  0.5726930000000  0.5286150000000  0.4592450000000 1.0
C      1  0.4283760000000  0.5282480000000  0.5395280000000 1.0
C      1  0.4478970000000  0.5077760000000  0.5078080000000 1.0
C      1  0.5072900000000  0.4456660000000  0.5080800000000 1.0
C      1  0.5077860000000  0.5074630000000  0.4475050000000 1.0
C      1  0.5535740000000  0.5086900000000  0.4926190000000 1.0
C      1  0.4479580000000  0.4923490000000  0.4924440000000 1.0
C      1  0.5555880000000  0.4931800000000  0.5078760000000 1.0
C      1  0.4920120000000  0.4460420000000  0.4922200000000 1.0
C      1  0.5073720000000  0.5531920000000  0.4924090000000 1.0
C      1  0.4920370000000  0.5526900000000  0.5078120000000 1.0
C      1  0.4923510000000  0.5076860000000  0.5531240000000 1.0
C      1  0.5076230000000  0.4921100000000  0.5527240000000 1.0
C      1  0.4922530000000  0.4921970000000  0.4471320000000 1.0
C      1  0.4479580000000  0.4923490000000  0.5078740000000 1.0
C      1  0.5073720000000  0.5531920000000  0.5079080000000 1.0
C      1  0.5076230000000  0.4921090000000  0.4475940000000 1.0
C      1  0.5555880000000  0.4931800000000  0.4924420000000 1.0
C      1  0.4478970000000  0.5077760000000  0.4925090000000 1.0
C      1  0.5535740000000  0.5086900000000  0.5076990000000 1.0
C      1  0.4920370000000  0.5526900000000  0.4925060000000 1.0
C      1  0.5072900000000  0.4456660000000  0.4922380000000 1.0
C      1  0.4920120000000  0.4460420000000  0.5080980000000 1.0
C      1  0.4922530000000  0.4921970000000  0.5531850000000 1.0
C      1  0.5077860000000  0.5074630000000  0.5528130000000 1.0
C      1  0.4923510000000  0.5076860000000  0.4471930000000 1.0
C      1  0.4647980000000  0.4395080000000  0.4931880000000 1.0
C      1  0.4934860000000  0.4657390000000  0.4380880000000 1.0
C      1  0.4398580000000  0.4929680000000  0.4657020000000 1.0
C      1  0.5346030000000  0.4395090000000  0.5072030000000 1.0
C      1  0.4650860000000  0.5612530000000  0.5071580000000 1.0
C      1  0.5333020000000  0.5620290000000  0.4931880000000 1.0
C      1  0.5074390000000  0.4652480000000  0.5619330000000 1.0
C      1  0.4931680000000  0.5340910000000  0.5617270000000 1.0
C      1  0.5070810000000  0.5340260000000  0.4391790000000 1.0
C      1  0.5609070000000  0.4930930000000  0.5344570000000 1.0
C      1  0.4398880000000  0.5069130000000  0.5344890000000 1.0
C      1  0.5608750000000  0.5071030000000  0.4657710000000 1.0
C      1  0.4650860000000  0.5612530000000  0.4931590000000 1.0
C      1  0.4931680000000  0.5340900000000  0.4385900000000 1.0
C      1  0.4398880000000  0.5069120000000  0.4658280000000 1.0
C      1  0.5333020000000  0.5620290000000  0.5071290000000 1.0
C      1  0.4647980000000  0.4395080000000  0.5071300000000 1.0
C      1  0.5346030000000  0.4395090000000  0.4931150000000 1.0
C      1  0.5070810000000  0.5340260000000  0.5611380000000 1.0
C      1  0.4934860000000  0.4657400000000  0.5622300000000 1.0
C      1  0.5074400000000  0.4652480000000  0.4383850000000 1.0
C      1  0.5608750000000  0.5071030000000  0.5345470000000 1.0
C      1  0.4398580000000  0.4929680000000  0.5346150000000 1.0
C      1  0.5609070000000  0.4930930000000  0.4658610000000 1.0
C      1  0.5724540000000  0.5592680000000  0.5073050000000 1.0
C      1  0.5069910000000  0.5732510000000  0.5584370000000 1.0
C      1  0.5584290000000  0.5058860000000  0.5741080000000 1.0
C      1  0.4258150000000  0.5582020000000  0.4930510000000 1.0
C      1  0.5716320000000  0.4392170000000  0.4930260000000 1.0
C      1  0.4263440000000  0.4419280000000  0.5072640000000 1.0
C      1  0.4927720000000  0.5730360000000  0.4415900000000 1.0
C      1  0.5059240000000  0.4261470000000  0.4382560000000 1.0
C      1  0.4917510000000  0.4267650000000  0.5619120000000 1.0
C      1  0.4421410000000  0.5073640000000  0.4264720000000 1.0
C      1  0.5583030000000  0.4916920000000  0.4269830000000 1.0
C      1  0.4420650000000  0.4931210000000  0.5739050000000 1.0
C      1  0.5716320000000  0.4392170000000  0.5072920000000 1.0
C      1  0.5059240000000  0.4261470000000  0.5620620000000 1.0
C      1  0.5583030000000  0.4916930000000  0.5733350000000 1.0
C      1  0.4263440000000  0.4419280000000  0.4930540000000 1.0
C      1  0.5724540000000  0.5592680000000  0.4930120000000 1.0
C      1  0.4258150000000  0.5582020000000  0.5072660000000 1.0
C      1  0.4917510000000  0.4267650000000  0.4384060000000 1.0
C      1  0.5069910000000  0.5732500000000  0.4418800000000 1.0
C      1  0.4927710000000  0.5730370000000  0.5587270000000 1.0
C      1  0.4420650000000  0.4931210000000  0.4264130000000 1.0
C      1  0.5584290000000  0.5058850000000  0.4262090000000 1.0
C      1  0.4421410000000  0.5073650000000  0.5738460000000 1.0
C      1  0.4528670000000  0.4797870000000  0.5143060000000 1.0
C      1  0.5139850000000  0.4503940000000  0.4794130000000 1.0
C      1  0.4797440000000  0.5142100000000  0.4519230000000 1.0
C      1  0.5502650000000  0.4800650000000  0.4860870000000 1.0
C      1  0.4527430000000  0.5203290000000  0.4861480000000 1.0
C      1  0.5475080000000  0.5206860000000  0.5138430000000 1.0
C      1  0.4859070000000  0.4509720000000  0.5209100000000 1.0
C      1  0.5138230000000  0.5482120000000  0.5205080000000 1.0
C      1  0.4858130000000  0.5474440000000  0.4801610000000 1.0
C      1  0.5202840000000  0.5138660000000  0.5477390000000 1.0
C      1  0.4797030000000  0.4855520000000  0.5486610000000 1.0
C      1  0.5199060000000  0.4857540000000  0.4529040000000 1.0
C      1  0.4527430000000  0.5203290000000  0.5141700000000 1.0
C      1  0.5138230000000  0.5482110000000  0.4798090000000 1.0
C      1  0.4797030000000  0.4855520000000  0.4516560000000 1.0
C      1  0.5475080000000  0.5206860000000  0.4864740000000 1.0
C      1  0.4528670000000  0.4797860000000  0.4860110000000 1.0
C      1  0.5502650000000  0.4800650000000  0.5142310000000 1.0
C      1  0.4858120000000  0.5474450000000  0.5201560000000 1.0
C      1  0.5139850000000  0.4503940000000  0.5209050000000 1.0
C      1  0.4859080000000  0.4509720000000  0.4794070000000 1.0
C      1  0.5199060000000  0.4857540000000  0.5474140000000 1.0
C      1  0.4797440000000  0.5142100000000  0.5483940000000 1.0
C      1  0.5202850000000  0.5138660000000  0.4525790000000 1.0
C      1  0.4652810000000  0.5620810000000  0.4510560000000 1.0
C      1  0.4518060000000  0.4676890000000  0.5671130000000 1.0
C      1  0.5654970000000  0.4508820000000  0.4674470000000 1.0
C      1  0.5322340000000  0.5664200000000  0.5483830000000 1.0
C      1  0.4647470000000  0.4379400000000  0.5502840000000 1.0
C      1  0.5314650000000  0.4340550000000  0.4495390000000 1.0
C      1  0.5484490000000  0.4648870000000  0.4382950000000 1.0
C      1  0.4521910000000  0.5328650000000  0.4335320000000 1.0
C      1  0.5493620000000  0.5318500000000  0.5653550000000 1.0
C      1  0.4351340000000  0.4512210000000  0.5325050000000 1.0
C      1  0.5616640000000  0.5496100000000  0.5354670000000 1.0
C      1  0.4350190000000  0.5491040000000  0.4679810000000 1.0
C      1  0.4647470000000  0.4379400000000  0.4500340000000 1.0
C      1  0.4521910000000  0.5328660000000  0.5667850000000 1.0
C      1  0.5616640000000  0.5496100000000  0.4648500000000 1.0
C      1  0.5314640000000  0.4340560000000  0.5507790000000 1.0
C      1  0.4652810000000  0.5620810000000  0.5492610000000 1.0
C      1  0.5322340000000  0.5664200000000  0.4519340000000 1.0
C      1  0.5493620000000  0.5318490000000  0.4349630000000 1.0
C      1  0.4518060000000  0.4676890000000  0.4332040000000 1.0
C      1  0.5484480000000  0.4648880000000  0.5620230000000 1.0
C      1  0.4350190000000  0.5491040000000  0.5323360000000 1.0
C      1  0.5654960000000  0.4508820000000  0.5328710000000 1.0
C      1  0.4351340000000  0.4512210000000  0.4678120000000 1.0
C      1  0.4721740000000  0.4400600000000  0.5629170000000 1.0
C      1  0.5608960000000  0.4721910000000  0.4404070000000 1.0
C      1  0.4375690000000  0.5619830000000  0.4733950000000 1.0
C      1  0.5263760000000  0.4372530000000  0.4365050000000 1.0
C      1  0.4728960000000  0.5602320000000  0.4385470000000 1.0
C      1  0.5269750000000  0.5604390000000  0.5600370000000 1.0
C      1  0.4402340000000  0.4732380000000  0.5611860000000 1.0
C      1  0.5621490000000  0.5261630000000  0.5629200000000 1.0
C      1  0.4406040000000  0.5271640000000  0.4393730000000 1.0
C      1  0.5596230000000  0.5619330000000  0.5276080000000 1.0
C      1  0.4382700000000  0.4386330000000  0.5267980000000 1.0
C      1  0.5589280000000  0.4395130000000  0.4730560000000 1.0
C      1  0.4728950000000  0.5602330000000  0.5617700000000 1.0
C      1  0.5621490000000  0.5261630000000  0.4373980000000 1.0
C      1  0.4382700000000  0.4386330000000  0.4735190000000 1.0
C      1  0.5269750000000  0.5604380000000  0.4402800000000 1.0
C      1  0.4721740000000  0.4400590000000  0.4374010000000 1.0
C      1  0.5263750000000  0.4372530000000  0.5638130000000 1.0
C      1  0.4406030000000  0.5271640000000  0.5609440000000 1.0
C      1  0.5608960000000  0.4721920000000  0.5599110000000 1.0
C      1  0.4402340000000  0.4732370000000  0.4391320000000 1.0
C      1  0.5589280000000  0.4395130000000  0.5272620000000 1.0
C      1  0.4375690000000  0.5619830000000  0.5269220000000 1.0
C      1  0.5596230000000  0.5619330000000  0.4727090000000 1.0
C      1  0.5711650000000  0.4961370000000  0.5077220000000 1.0
C      1  0.5064390000000  0.5683760000000  0.4927030000000 1.0
C      1  0.4929730000000  0.5074020000000  0.5683140000000 1.0
C      1  0.4327190000000  0.4926270000000  0.4927060000000 1.0
C      1  0.5690960000000  0.5109660000000  0.4926730000000 1.0
C      1  0.4326700000000  0.5074360000000  0.5076090000000 1.0
C      1  0.4915480000000  0.5678900000000  0.5076510000000 1.0
C      1  0.5062730000000  0.4301490000000  0.5074250000000 1.0
C      1  0.4915470000000  0.4304550000000  0.4928880000000 1.0
C      1  0.5077970000000  0.5071420000000  0.4322380000000 1.0
C      1  0.4928960000000  0.4924650000000  0.4319340000000 1.0
C      1  0.5077570000000  0.4922480000000  0.5679740000000 1.0
C      1  0.5690960000000  0.5109670000000  0.5076450000000 1.0
C      1  0.5062730000000  0.4301490000000  0.4928930000000 1.0
C      1  0.4928960000000  0.4924650000000  0.5683840000000 1.0
C      1  0.4326710000000  0.5074360000000  0.4927080000000 1.0
C      1  0.5711650000000  0.4961370000000  0.4925960000000 1.0
C      1  0.4327190000000  0.4926270000000  0.5076110000000 1.0
C      1  0.4915470000000  0.4304550000000  0.5074300000000 1.0
C      1  0.5064390000000  0.5683760000000  0.5076140000000 1.0
C      1  0.4915480000000  0.5678890000000  0.4926660000000 1.0
C      1  0.5077570000000  0.4922480000000  0.4323440000000 1.0
C      1  0.4929730000000  0.5074010000000  0.4320040000000 1.0
C      1  0.5077970000000  0.5071430000000  0.5680800000000 1.0
C      1  0.5686440000000  0.5328890000000  0.5530580000000 1.0
C      1  0.5494330000000  0.5692780000000  0.5337250000000 1.0
C      1  0.5343800000000  0.5491920000000  0.5643780000000 1.0
C      1  0.4362020000000  0.5342750000000  0.4506840000000 1.0
C      1  0.5681640000000  0.4659730000000  0.4505360000000 1.0
C      1  0.4358450000000  0.4659800000000  0.5499240000000 1.0
C      1  0.4475930000000  0.5685990000000  0.4670420000000 1.0
C      1  0.5476850000000  0.4355000000000  0.4656790000000 1.0
C      1  0.4483180000000  0.4322330000000  0.5331730000000 1.0
C      1  0.4668040000000  0.5501950000000  0.4310110000000 1.0
C      1  0.5329100000000  0.4474350000000  0.4303710000000 1.0
C      1  0.4662300000000  0.4503990000000  0.5700200000000 1.0
C      1  0.5681630000000  0.4659730000000  0.5497820000000 1.0
C      1  0.5476850000000  0.4355000000000  0.5346390000000 1.0
C      1  0.5329100000000  0.4474360000000  0.5699470000000 1.0
C      1  0.4358450000000  0.4659800000000  0.4503940000000 1.0
C      1  0.5686450000000  0.5328890000000  0.4472600000000 1.0
C      1  0.4362020000000  0.5342750000000  0.5496330000000 1.0
C      1  0.4483180000000  0.4322320000000  0.4671450000000 1.0
C      1  0.5494330000000  0.5692780000000  0.4665920000000 1.0
C      1  0.4475930000000  0.5686000000000  0.5332750000000 1.0
C      1  0.4662300000000  0.4503990000000  0.4302980000000 1.0
C      1  0.5343800000000  0.5491910000000  0.4359390000000 1.0
C      1  0.4668030000000  0.5501950000000  0.5693060000000 1.0
C      1  0.5370790000000  0.4259790000000  0.5139070000000 1.0
C      1  0.5137760000000  0.5392880000000  0.4259690000000 1.0
C      1  0.4265320000000  0.5133030000000  0.5398330000000 1.0
C      1  0.4602420000000  0.4260820000000  0.4867960000000 1.0
C      1  0.5383700000000  0.5757280000000  0.4873160000000 1.0
C      1  0.4594230000000  0.5745300000000  0.5132500000000 1.0
C      1  0.4877450000000  0.5393480000000  0.5755950000000 1.0
C      1  0.5132740000000  0.4600410000000  0.5756630000000 1.0
C      1  0.4873950000000  0.4611680000000  0.4240650000000 1.0
C      1  0.5739240000000  0.5129970000000  0.4595560000000 1.0
C      1  0.4264040000000  0.4869010000000  0.4603750000000 1.0
C      1  0.5745780000000  0.4867310000000  0.5390580000000 1.0
C      1  0.5383700000000  0.5757280000000  0.5130020000000 1.0
C      1  0.5132740000000  0.4600400000000  0.4246550000000 1.0
C      1  0.4264040000000  0.4869010000000  0.5399420000000 1.0
C      1  0.4594230000000  0.5745300000000  0.4870670000000 1.0
C      1  0.5370790000000  0.4259780000000  0.4864110000000 1.0
C      1  0.4602420000000  0.4260820000000  0.5135220000000 1.0
C      1  0.4873950000000  0.4611680000000  0.5762530000000 1.0
C      1  0.5137760000000  0.5392890000000  0.5743480000000 1.0
C      1  0.4877450000000  0.5393480000000  0.4247220000000 1.0
C      1  0.5745790000000  0.4867300000000  0.4612600000000 1.0
C      1  0.4265320000000  0.5133020000000  0.4604850000000 1.0
C      1  0.5739240000000  0.5129970000000  0.5407610000000 1.0
C      1  0.4286600000000  0.5326600000000  0.4867120000000 1.0
C      1  0.4849000000000  0.4282140000000  0.5364290000000 1.0
C      1  0.5332820000000  0.4850290000000  0.4300260000000 1.0
C      1  0.5703390000000  0.5346250000000  0.5159610000000 1.0
C      1  0.4287130000000  0.4674630000000  0.5136720000000 1.0
C      1  0.5735720000000  0.4649970000000  0.4869190000000 1.0
C      1  0.5122530000000  0.4264200000000  0.4640540000000 1.0
C      1  0.4849240000000  0.5704810000000  0.4666170000000 1.0
C      1  0.5125200000000  0.5718510000000  0.5329480000000 1.0
C      1  0.4676050000000  0.4869620000000  0.5726970000000 1.0
C      1  0.5331360000000  0.5129390000000  0.5716430000000 1.0
C      1  0.4677060000000  0.5134790000000  0.4277930000000 1.0
C      1  0.4287130000000  0.4674630000000  0.4866450000000 1.0
C      1  0.4849240000000  0.5704810000000  0.5337000000000 1.0
C      1  0.5331360000000  0.5129390000000  0.4286750000000 1.0
C      1  0.5735720000000  0.4649970000000  0.5133990000000 1.0
C      1  0.4286600000000  0.5326600000000  0.5136050000000 1.0
C      1  0.5703390000000  0.5346250000000  0.4843570000000 1.0
C      1  0.5125200000000  0.5718510000000  0.4673700000000 1.0
C      1  0.4849000000000  0.4282140000000  0.4638890000000 1.0
C      1  0.5122530000000  0.4264200000000  0.5362640000000 1.0
C      1  0.4677060000000  0.5134800000000  0.5725240000000 1.0
C      1  0.5332820000000  0.4850300000000  0.5702920000000 1.0
C      1  0.4676050000000  0.4869610000000  0.4276210000000 1.0
C      1  0.4637930000000  0.4725970000000  0.5735960000000 1.0
C      1  0.5728480000000  0.4624400000000  0.4723170000000 1.0
C      1  0.4699040000000  0.5694690000000  0.4627780000000 1.0
C      1  0.5370640000000  0.4699140000000  0.4307400000000 1.0
C      1  0.4641380000000  0.5279740000000  0.4270570000000 1.0
C      1  0.5371700000000  0.5274790000000  0.5717100000000 1.0
C      1  0.4287670000000  0.4634330000000  0.5281700000000 1.0
C      1  0.5690470000000  0.5381140000000  0.5309260000000 1.0
C      1  0.4287370000000  0.5367950000000  0.4722610000000 1.0
C      1  0.5270850000000  0.5728490000000  0.5365110000000 1.0
C      1  0.4696940000000  0.4302230000000  0.5388880000000 1.0
C      1  0.5268940000000  0.4271250000000  0.4613870000000 1.0
C      1  0.4641370000000  0.5279740000000  0.5732600000000 1.0
C      1  0.5690470000000  0.5381140000000  0.4693920000000 1.0
C      1  0.4696940000000  0.4302230000000  0.4614300000000 1.0
C      1  0.5371700000000  0.5274780000000  0.4286080000000 1.0
C      1  0.4637940000000  0.4725960000000  0.4267220000000 1.0
C      1  0.5370630000000  0.4699150000000  0.5695780000000 1.0
C      1  0.4287370000000  0.5367950000000  0.5280560000000 1.0
C      1  0.5728480000000  0.4624400000000  0.5280010000000 1.0
C      1  0.4287670000000  0.4634330000000  0.4721480000000 1.0
C      1  0.5268940000000  0.4271250000000  0.5389310000000 1.0
C      1  0.4699030000000  0.5694690000000  0.5375390000000 1.0
C      1  0.5270860000000  0.5728490000000  0.4638060000000 1.0
C      1  0.5468860000000  0.5442910000000  0.5588630000000 1.0
C      1  0.5526170000000  0.5509210000000  0.5475570000000 1.0
C      1  0.5454370000000  0.5629590000000  0.5454440000000 1.0
C      1  0.4551070000000  0.5460220000000  0.4372840000000 1.0
C      1  0.5497190000000  0.4524290000000  0.4472040000000 1.0
C      1  0.4546570000000  0.4544930000000  0.5635350000000 1.0
C      1  0.4416350000000  0.5467640000000  0.4556970000000 1.0
C      1  0.5617290000000  0.4542690000000  0.4544440000000 1.0
C      1  0.4413530000000  0.4534870000000  0.5450130000000 1.0
C      1  0.4530540000000  0.5529040000000  0.4494860000000 1.0
C      1  0.5433000000000  0.4409740000000  0.4528970000000 1.0
C      1  0.4526510000000  0.4473670000000  0.5514590000000 1.0
C      1  0.5497180000000  0.4524300000000  0.5531140000000 1.0
C      1  0.5617290000000  0.4542700000000  0.5458740000000 1.0
C      1  0.5433000000000  0.4409740000000  0.5474210000000 1.0
C      1  0.4546570000000  0.4544920000000  0.4367830000000 1.0
C      1  0.5468860000000  0.5442910000000  0.4414540000000 1.0
C      1  0.4551070000000  0.5460220000000  0.5630330000000 1.0
C      1  0.4413530000000  0.4534860000000  0.4553050000000 1.0
C      1  0.5526170000000  0.5509210000000  0.4527600000000 1.0
C      1  0.4416350000000  0.5467640000000  0.5446200000000 1.0
C      1  0.4526510000000  0.4473670000000  0.4488590000000 1.0
C      1  0.5454380000000  0.5629590000000  0.4548740000000 1.0
C      1  0.4530540000000  0.5529040000000  0.5508310000000 1.0
C      1  0.4692040000000  0.4916570000000  0.5568190000000 1.0
C      1  0.5574270000000  0.4689370000000  0.4919190000000 1.0
C      1  0.4912690000000  0.5554660000000  0.4690890000000 1.0
C      1  0.5309430000000  0.4914480000000  0.4449160000000 1.0
C      1  0.4692410000000  0.5083480000000  0.4436400000000 1.0
C      1  0.5310480000000  0.5080910000000  0.5559610000000 1.0
C      1  0.4443270000000  0.4693050000000  0.5084850000000 1.0
C      1  0.5553630000000  0.5319480000000  0.5085760000000 1.0
C      1  0.4442710000000  0.5309630000000  0.4918590000000 1.0
C      1  0.5078200000000  0.5560180000000  0.5312590000000 1.0
C      1  0.4914950000000  0.4434960000000  0.5322510000000 1.0
C      1  0.5079790000000  0.4428060000000  0.4681740000000 1.0
C      1  0.4692410000000  0.5083490000000  0.5566770000000 1.0
C      1  0.5553630000000  0.5319480000000  0.4917410000000 1.0
C      1  0.4914960000000  0.4434960000000  0.4680670000000 1.0
C      1  0.5310480000000  0.5080900000000  0.4443560000000 1.0
C      1  0.4692040000000  0.4916570000000  0.4434990000000 1.0
C      1  0.5309430000000  0.4914480000000  0.5554020000000 1.0
C      1  0.4442710000000  0.5309630000000  0.5084580000000 1.0
C      1  0.5574270000000  0.4689370000000  0.5083990000000 1.0
C      1  0.4443270000000  0.4693050000000  0.4918330000000 1.0
C      1  0.5079790000000  0.4428060000000  0.5321440000000 1.0
C      1  0.4912690000000  0.5554670000000  0.5312280000000 1.0
C      1  0.5078200000000  0.5560180000000  0.4690580000000 1.0
C      1  0.5132820000000  0.4357300000000  0.5690110000000 1.0
C      1  0.5663580000000  0.5128110000000  0.4354590000000 1.0
C      1  0.4352300000000  0.5664080000000  0.5137800000000 1.0
C      1  0.4850580000000  0.4372770000000  0.4322430000000 1.0
C      1  0.5142900000000  0.5633200000000  0.4347670000000 1.0
C      1  0.4860720000000  0.5631410000000  0.5660990000000 1.0
C      1  0.4351410000000  0.5143710000000  0.5637370000000 1.0
C      1  0.5654170000000  0.4851150000000  0.5631820000000 1.0
C      1  0.4349230000000  0.4860930000000  0.4364290000000 1.0
C      1  0.5625780000000  0.5663460000000  0.4858890000000 1.0
C      1  0.4360250000000  0.4339990000000  0.4866100000000 1.0
C      1  0.5610700000000  0.4335550000000  0.5145280000000 1.0
C      1  0.5142900000000  0.5633210000000  0.5655500000000 1.0
C      1  0.5654170000000  0.4851150000000  0.4371360000000 1.0
C      1  0.4360250000000  0.4339990000000  0.5137080000000 1.0
C      1  0.4860730000000  0.5631410000000  0.4342180000000 1.0
C      1  0.5132830000000  0.4357290000000  0.4313070000000 1.0
C      1  0.4850580000000  0.4372780000000  0.5680750000000 1.0
C      1  0.4349230000000  0.4860930000000  0.5638880000000 1.0
C      1  0.5663580000000  0.5128120000000  0.5648590000000 1.0
C      1  0.4351410000000  0.5143710000000  0.4365800000000 1.0
C      1  0.5610700000000  0.4335550000000  0.4857900000000 1.0
C      1  0.4352300000000  0.5664080000000  0.4865360000000 1.0
C      1  0.5625780000000  0.5663460000000  0.5144280000000 1.0
C      1  0.4526750000000  0.5134450000000  0.4639850000000 1.0
C      1  0.4636960000000  0.4521050000000  0.5140690000000 1.0
C      1  0.5143070000000  0.4629860000000  0.4512380000000 1.0
C      1  0.5481630000000  0.5140200000000  0.5363180000000 1.0
C      1  0.4526520000000  0.4862830000000  0.5365280000000 1.0
C      1  0.5483030000000  0.4862610000000  0.4642360000000 1.0
C      1  0.5363800000000  0.4523480000000  0.4865540000000 1.0
C      1  0.4633690000000  0.5485310000000  0.4862990000000 1.0
C      1  0.5357720000000  0.5493450000000  0.5140430000000 1.0
C      1  0.4863910000000  0.4633160000000  0.5496940000000 1.0
C      1  0.5133370000000  0.5358800000000  0.5481010000000 1.0
C      1  0.4859870000000  0.5363730000000  0.4510880000000 1.0
C      1  0.4526530000000  0.4862830000000  0.4637890000000 1.0
C      1  0.4633690000000  0.5485310000000  0.5140180000000 1.0
C      1  0.5133370000000  0.5358800000000  0.4522160000000 1.0
C      1  0.5483030000000  0.4862610000000  0.5360820000000 1.0
C      1  0.4526750000000  0.5134450000000  0.5363320000000 1.0
C      1  0.5481630000000  0.5140200000000  0.4640000000000 1.0
C      1  0.5357720000000  0.5493450000000  0.4862740000000 1.0
C      1  0.4636960000000  0.4521050000000  0.4862490000000 1.0
C      1  0.5363800000000  0.4523490000000  0.5137640000000 1.0
C      1  0.4859870000000  0.5363730000000  0.5492290000000 1.0
C      1  0.5143070000000  0.4629860000000  0.5490800000000 1.0
C      1  0.4863910000000  0.4633150000000  0.4506240000000 1.0
C      1  0.5200920000000  0.4906210000000  0.4225380000000 1.0
C      1  0.4221620000000  0.5192410000000  0.4915740000000 1.0
C      1  0.4909330000000  0.4191070000000  0.5257340000000 1.0
C      1  0.4811630000000  0.4918370000000  0.5790620000000 1.0
C      1  0.5199140000000  0.5081000000000  0.5782260000000 1.0
C      1  0.4812170000000  0.5086080000000  0.4214140000000 1.0
C      1  0.5770860000000  0.5214100000000  0.5146920000000 1.0
C      1  0.4222040000000  0.4808470000000  0.5087660000000 1.0
C      1  0.5816090000000  0.4762390000000  0.4928980000000 1.0
C      1  0.5057250000000  0.4183680000000  0.4747050000000 1.0
C      1  0.4898310000000  0.5777910000000  0.4802020000000 1.0
C      1  0.5072200000000  0.5784440000000  0.5197820000000 1.0
C      1  0.5199140000000  0.5080990000000  0.4220920000000 1.0
C      1  0.4222040000000  0.4808470000000  0.4915520000000 1.0
C      1  0.4898310000000  0.5777910000000  0.5201150000000 1.0
C      1  0.4812170000000  0.5086090000000  0.5789040000000 1.0
C      1  0.5200920000000  0.4906220000000  0.5777800000000 1.0
C      1  0.4811640000000  0.4918360000000  0.4212560000000 1.0
C      1  0.5816090000000  0.4762390000000  0.5074200000000 1.0
C      1  0.4221620000000  0.5192410000000  0.5087430000000 1.0
C      1  0.5770860000000  0.5214100000000  0.4856260000000 1.0
C      1  0.5072200000000  0.5784440000000  0.4805350000000 1.0
C      1  0.4909330000000  0.4191070000000  0.4745840000000 1.0
C      1  0.5057250000000  0.4183680000000  0.5256130000000 1.0
C      1  0.4774560000000  0.4720740000000  0.4570040000000 1.0
C      1  0.4588860000000  0.4776810000000  0.4728190000000 1.0
C      1  0.4731010000000  0.4577410000000  0.4776550000000 1.0
C      1  0.5219530000000  0.4725050000000  0.5417360000000 1.0
C      1  0.4772900000000  0.5275550000000  0.5428440000000 1.0
C      1  0.5219960000000  0.5270490000000  0.4586320000000 1.0
C      1  0.5429090000000  0.4772220000000  0.5270630000000 1.0
C      1  0.4587480000000  0.5220910000000  0.5273130000000 1.0
C      1  0.5414430000000  0.5220860000000  0.4733500000000 1.0
C      1  0.5269030000000  0.4576330000000  0.5224470000000 1.0
C      1  0.4726960000000  0.5417460000000  0.5220560000000 1.0
C      1  0.5271950000000  0.5427890000000  0.4774260000000 1.0
C      1  0.4772900000000  0.5275540000000  0.4574730000000 1.0
C      1  0.4587480000000  0.5220900000000  0.4730040000000 1.0
C      1  0.4726960000000  0.5417460000000  0.4782610000000 1.0
C      1  0.5219950000000  0.5270490000000  0.5416860000000 1.0
C      1  0.4774550000000  0.4720750000000  0.5433130000000 1.0
C      1  0.5219530000000  0.4725050000000  0.4585820000000 1.0
C      1  0.5414430000000  0.5220870000000  0.5269680000000 1.0
C      1  0.4588860000000  0.4776810000000  0.5274990000000 1.0
C      1  0.5429090000000  0.4772220000000  0.4732550000000 1.0
C      1  0.5271950000000  0.5427890000000  0.5228920000000 1.0
C      1  0.4731010000000  0.4577410000000  0.5226620000000 1.0
C      1  0.5269030000000  0.4576330000000  0.4778710000000 1.0
C      1  0.4221000000000  0.5442070000000  0.4930180000000 1.0
C      1  0.4913550000000  0.4224820000000  0.5481490000000 1.0
C      1  0.5444090000000  0.4915890000000  0.4230680000000 1.0
C      1  0.5765530000000  0.5452740000000  0.5073920000000 1.0
C      1  0.4223340000000  0.4558480000000  0.5072960000000 1.0
C      1  0.5776200000000  0.4524110000000  0.4930790000000 1.0
C      1  0.5055570000000  0.4218940000000  0.4520820000000 1.0
C      1  0.4918230000000  0.5772340000000  0.4553920000000 1.0
C      1  0.5060860000000  0.5777880000000  0.5446360000000 1.0
C      1  0.4557350000000  0.4931420000000  0.5787510000000 1.0
C      1  0.5443950000000  0.5058780000000  0.5778840000000 1.0
C      1  0.4558110000000  0.5073830000000  0.4216170000000 1.0
C      1  0.4223340000000  0.4558480000000  0.4930220000000 1.0
C      1  0.4918230000000  0.5772340000000  0.5449250000000 1.0
C      1  0.5443960000000  0.5058780000000  0.4224330000000 1.0
C      1  0.5776200000000  0.4524110000000  0.5072390000000 1.0
C      1  0.4221000000000  0.5442070000000  0.5072990000000 1.0
C      1  0.5765530000000  0.5452740000000  0.4929260000000 1.0
C      1  0.5060860000000  0.5777880000000  0.4556810000000 1.0
C      1  0.4913550000000  0.4224820000000  0.4521690000000 1.0
C      1  0.5055570000000  0.4218950000000  0.5482360000000 1.0
C      1  0.4558110000000  0.5073830000000  0.5787000000000 1.0
C      1  0.5444090000000  0.4915900000000  0.5772500000000 1.0
C      1  0.4557360000000  0.4931410000000  0.4215670000000 1.0
C      1  0.5309410000000  0.4689350000000  0.4696400000000 1.0
C      1  0.4691760000000  0.5311520000000  0.4690660000000 1.0
C      1  0.4691760000000  0.5311530000000  0.5312510000000 1.0
C      1  0.5309410000000  0.4689350000000  0.5306780000000 1.0
C      1  0.4694660000000  0.4685420000000  0.5316160000000 1.0
C      1  0.5308060000000  0.5311450000000  0.5309270000000 1.0
C      1  0.5308060000000  0.5311450000000  0.4693910000000 1.0
C      1  0.4694660000000  0.4685420000000  0.4687020000000 1.0
END
