TITL C-1379267-1329-292 4.87564135150044e-07 1000000 -4108.95364787873 0 0 580 (C1) n - 1
REM
REM in /nfs/bkarasulu/CARBON/AIRSS/Generating-Clusters/GAP-ML-2020/Higher-Symm/Selected-Sizes/TryA-Only_Ih-Symm/Larger-Clusters/Try2-MINAMP_6A
REM
REM
REM
REM
REM
REM ./C.cell (31579ac4e95a012ec27f3239692ae8a5)
REM
REM compiler GCC version 9.2.1 20190827 (Red Hat 9.2.1-1)
REM options -cpp -mtune=generic -march=x86-64 -g -O0 -fpre-include=/usr/include/finclude/math-vector-fortran.h
REM seed -1892457779 -961871548 -1806687013 -1326899268 1765263028 325823688 1734418775 -816325631 936423004 803350273 1397423492 1463603192 -1432477247 -1724706662 -861060102 1435887196 -2005171050 -1818647914 -1870321261 693099344 -1902047077 -315615319 941851725 -320769467 -1228822453 -1798038928 -1582559804 -23833269 -1823995000 -766269666 -1370499192 1750250579 -491338988
REM
CELL 1.54180  100.00000  100.00000  100.00000   90.00000   90.00000   90.00000
LATT -1
SFAC C  
C      1  0.4926610000000  0.5480680000000  0.5258760000000 1.0
C      1  0.5475220000000  0.5277450000000  0.4907340000000 1.0
C      1  0.5250470000000  0.4909910000000  0.5475220000000 1.0
C      1  0.5088680000000  0.5491100000000  0.4735450000000 1.0
C      1  0.5070390000000  0.4516890000000  0.5283690000000 1.0
C      1  0.4915560000000  0.4525150000000  0.4740050000000 1.0
C      1  0.4519170000000  0.5267660000000  0.5071030000000 1.0
C      1  0.4498460000000  0.4725170000000  0.4902520000000 1.0
C      1  0.5471930000000  0.4722010000000  0.5100170000000 1.0
C      1  0.4721970000000  0.4931270000000  0.4527950000000 1.0
C      1  0.4734910000000  0.5076490000000  0.5474520000000 1.0
C      1  0.5273750000000  0.5100690000000  0.4513120000000 1.0
C      1  0.5272770000000  0.5496430000000  0.4903370000000 1.0
C      1  0.4926230000000  0.5263780000000  0.5470970000000 1.0
C      1  0.5470230000000  0.4914620000000  0.5281040000000 1.0
C      1  0.4733270000000  0.5484490000000  0.5073310000000 1.0
C      1  0.5268480000000  0.4508380000000  0.5105810000000 1.0
C      1  0.4711610000000  0.4518520000000  0.4912020000000 1.0
C      1  0.5085110000000  0.5287760000000  0.4520230000000 1.0
C      1  0.4921020000000  0.4742770000000  0.4530170000000 1.0
C      1  0.5064100000000  0.4716550000000  0.5488080000000 1.0
C      1  0.4516340000000  0.4913810000000  0.4739850000000 1.0
C      1  0.5471070000000  0.5084330000000  0.4726230000000 1.0
C      1  0.4516230000000  0.5079290000000  0.5258420000000 1.0
C      1  0.4314020000000  0.4734450000000  0.4545740000000 1.0
C      1  0.4734030000000  0.4545200000000  0.4335340000000 1.0
C      1  0.4547130000000  0.4325820000000  0.4753110000000 1.0
C      1  0.5685710000000  0.4718880000000  0.5461890000000 1.0
C      1  0.5678260000000  0.5275780000000  0.4540150000000 1.0
C      1  0.4324480000000  0.5262370000000  0.5453350000000 1.0
C      1  0.5265060000000  0.4531000000000  0.5675420000000 1.0
C      1  0.5249020000000  0.5455720000000  0.4322150000000 1.0
C      1  0.4737620000000  0.5456640000000  0.5676310000000 1.0
C      1  0.5443820000000  0.4326460000000  0.5248100000000 1.0
C      1  0.5445080000000  0.5677350000000  0.4747670000000 1.0
C      1  0.4543600000000  0.5677480000000  0.5259020000000 1.0
C      1  0.4532080000000  0.4732710000000  0.4325370000000 1.0
C      1  0.4321180000000  0.4553120000000  0.4752890000000 1.0
C      1  0.4730870000000  0.4322140000000  0.4550340000000 1.0
C      1  0.5456010000000  0.4731100000000  0.5665120000000 1.0
C      1  0.4545000000000  0.5262730000000  0.5676590000000 1.0
C      1  0.5446570000000  0.5262930000000  0.4324880000000 1.0
C      1  0.5674290000000  0.4543820000000  0.5253840000000 1.0
C      1  0.4320000000000  0.5459010000000  0.5260360000000 1.0
C      1  0.5671740000000  0.5451030000000  0.4746980000000 1.0
C      1  0.5270830000000  0.4305620000000  0.5461540000000 1.0
C      1  0.4739650000000  0.5675110000000  0.5454230000000 1.0
C      1  0.5255250000000  0.5679300000000  0.4546450000000 1.0
C      1  0.4807810000000  0.5294270000000  0.5388070000000 1.0
C      1  0.5326820000000  0.5446420000000  0.4768840000000 1.0
C      1  0.5404700000000  0.4787830000000  0.5326250000000 1.0
C      1  0.5223540000000  0.5347400000000  0.4562440000000 1.0
C      1  0.5189410000000  0.4692010000000  0.5410990000000 1.0
C      1  0.4799670000000  0.4708620000000  0.4609660000000 1.0
C      1  0.4705970000000  0.5398380000000  0.5190220000000 1.0
C      1  0.4665440000000  0.4562240000000  0.4767630000000 1.0
C      1  0.5319750000000  0.4556060000000  0.5243220000000 1.0
C      1  0.4586600000000  0.4797770000000  0.4695950000000 1.0
C      1  0.4604400000000  0.5195940000000  0.5288040000000 1.0
C      1  0.5412300000000  0.5213580000000  0.4681760000000 1.0
C      1  0.5437320000000  0.5332310000000  0.4766770000000 1.0
C      1  0.4807860000000  0.5396510000000  0.5287760000000 1.0
C      1  0.5290490000000  0.4789710000000  0.5408610000000 1.0
C      1  0.4604680000000  0.5296430000000  0.5188850000000 1.0
C      1  0.5433570000000  0.4666580000000  0.5242890000000 1.0
C      1  0.4551420000000  0.4673460000000  0.4766370000000 1.0
C      1  0.5208330000000  0.5419810000000  0.4691690000000 1.0
C      1  0.4795230000000  0.4598700000000  0.4698200000000 1.0
C      1  0.5196850000000  0.4584910000000  0.5322500000000 1.0
C      1  0.4693910000000  0.4803950000000  0.4605780000000 1.0
C      1  0.5335100000000  0.5231320000000  0.4560260000000 1.0
C      1  0.4707110000000  0.5194960000000  0.5389380000000 1.0
C      1  0.4422970000000  0.5369100000000  0.5471440000000 1.0
C      1  0.5317260000000  0.5445860000000  0.4458340000000 1.0
C      1  0.5429490000000  0.4449600000000  0.5332540000000 1.0
C      1  0.5561790000000  0.5360400000000  0.4539770000000 1.0
C      1  0.5573850000000  0.4626270000000  0.5466370000000 1.0
C      1  0.4421410000000  0.4637760000000  0.4537900000000 1.0
C      1  0.4630610000000  0.5474590000000  0.5576890000000 1.0
C      1  0.4627990000000  0.4528040000000  0.4435310000000 1.0
C      1  0.5369400000000  0.4516610000000  0.5572430000000 1.0
C      1  0.4563800000000  0.4458140000000  0.4676870000000 1.0
C      1  0.4525780000000  0.5578400000000  0.5365630000000 1.0
C      1  0.5428000000000  0.5548950000000  0.4669730000000 1.0
C      1  0.5436770000000  0.5331230000000  0.4457190000000 1.0
C      1  0.4420980000000  0.5475650000000  0.5366620000000 1.0
C      1  0.5363470000000  0.4417120000000  0.5467900000000 1.0
C      1  0.4526350000000  0.5369350000000  0.5576370000000 1.0
C      1  0.5472960000000  0.4621560000000  0.5569680000000 1.0
C      1  0.4519180000000  0.4630880000000  0.4431900000000 1.0
C      1  0.5539610000000  0.5436010000000  0.4672240000000 1.0
C      1  0.4450430000000  0.4569650000000  0.4672910000000 1.0
C      1  0.5542410000000  0.4559670000000  0.5330380000000 1.0
C      1  0.4635040000000  0.4429520000000  0.4541440000000 1.0
C      1  0.5348360000000  0.5570910000000  0.4541150000000 1.0
C      1  0.4631980000000  0.5577470000000  0.5471920000000 1.0
C      1  0.5479120000000  0.5651550000000  0.5316410000000 1.0
C      1  0.5735660000000  0.5298010000000  0.5481840000000 1.0
C      1  0.5319020000000  0.5478810000000  0.5674770000000 1.0
C      1  0.4513060000000  0.5685770000000  0.4681220000000 1.0
C      1  0.4542000000000  0.4287240000000  0.5325250000000 1.0
C      1  0.5471300000000  0.4349270000000  0.4686290000000 1.0
C      1  0.4347200000000  0.5306210000000  0.4516040000000 1.0
C      1  0.4322950000000  0.4684760000000  0.5482510000000 1.0
C      1  0.5729920000000  0.4699780000000  0.4518100000000 1.0
C      1  0.4672600000000  0.5458100000000  0.4281570000000 1.0
C      1  0.4721010000000  0.4529700000000  0.5638900000000 1.0
C      1  0.5312020000000  0.4523660000000  0.4330040000000 1.0
C      1  0.5318410000000  0.5678450000000  0.5482790000000 1.0
C      1  0.5480180000000  0.5298200000000  0.5645240000000 1.0
C      1  0.5712960000000  0.5448320000000  0.5318910000000 1.0
C      1  0.4678500000000  0.5659390000000  0.4519110000000 1.0
C      1  0.5310290000000  0.4325030000000  0.4522730000000 1.0
C      1  0.4695040000000  0.4267150000000  0.5487180000000 1.0
C      1  0.4509050000000  0.5307210000000  0.4259940000000 1.0
C      1  0.5474320000000  0.4702000000000  0.4357830000000 1.0
C      1  0.4529250000000  0.4682800000000  0.5673330000000 1.0
C      1  0.4319440000000  0.5486860000000  0.4679080000000 1.0
C      1  0.5708120000000  0.4549190000000  0.4680660000000 1.0
C      1  0.4343870000000  0.4523960000000  0.5319220000000 1.0
C      1  0.5574570000000  0.4800850000000  0.4353850000000 1.0
C      1  0.4798860000000  0.4300230000000  0.5577160000000 1.0
C      1  0.4317690000000  0.5585940000000  0.4781230000000 1.0
C      1  0.4424650000000  0.4781270000000  0.5678000000000 1.0
C      1  0.4418590000000  0.5204880000000  0.4296780000000 1.0
C      1  0.5579280000000  0.5197830000000  0.5645810000000 1.0
C      1  0.5209180000000  0.4328390000000  0.4424840000000 1.0
C      1  0.5217570000000  0.5675180000000  0.5581250000000 1.0
C      1  0.4775990000000  0.5646390000000  0.4418250000000 1.0
C      1  0.5686640000000  0.5550390000000  0.5220560000000 1.0
C      1  0.5681610000000  0.4447490000000  0.4778930000000 1.0
C      1  0.4353550000000  0.4422260000000  0.5222640000000 1.0
C      1  0.4327320000000  0.4783720000000  0.5582140000000 1.0
C      1  0.5572700000000  0.4360580000000  0.4782130000000 1.0
C      1  0.4771770000000  0.5559640000000  0.4308660000000 1.0
C      1  0.5693570000000  0.4802840000000  0.4428670000000 1.0
C      1  0.4344740000000  0.5205760000000  0.4416690000000 1.0
C      1  0.5699060000000  0.5195300000000  0.5571720000000 1.0
C      1  0.4439140000000  0.4312030000000  0.5226810000000 1.0
C      1  0.5578750000000  0.5638650000000  0.5218260000000 1.0
C      1  0.4414410000000  0.5682560000000  0.4782020000000 1.0
C      1  0.5217520000000  0.5578020000000  0.5677120000000 1.0
C      1  0.4801540000000  0.4416710000000  0.5656570000000 1.0
C      1  0.5210880000000  0.4424520000000  0.4328020000000 1.0
C      1  0.4977780000000  0.5410890000000  0.4773980000000 1.0
C      1  0.5373210000000  0.4840550000000  0.5067280000000 1.0
C      1  0.4772680000000  0.4954450000000  0.5404550000000 1.0
C      1  0.5049860000000  0.5412930000000  0.5213310000000 1.0
C      1  0.5045520000000  0.4596810000000  0.4785900000000 1.0
C      1  0.5007740000000  0.4602510000000  0.5183880000000 1.0
C      1  0.4595730000000  0.4766960000000  0.4999240000000 1.0
C      1  0.4585620000000  0.5226110000000  0.4948140000000 1.0
C      1  0.5375110000000  0.5160680000000  0.4937990000000 1.0
C      1  0.5241740000000  0.5001440000000  0.4610090000000 1.0
C      1  0.5235230000000  0.5019700000000  0.5391840000000 1.0
C      1  0.4826920000000  0.4989650000000  0.4608280000000 1.0
C      1  0.4774740000000  0.5415420000000  0.4952400000000 1.0
C      1  0.4931510000000  0.4764400000000  0.5419840000000 1.0
C      1  0.5379410000000  0.5055430000000  0.4847840000000 1.0
C      1  0.5230230000000  0.5395480000000  0.4997960000000 1.0
C      1  0.4806530000000  0.4618930000000  0.4962460000000 1.0
C      1  0.5229620000000  0.4607170000000  0.5004630000000 1.0
C      1  0.5048240000000  0.4786320000000  0.4598190000000 1.0
C      1  0.5041870000000  0.5194060000000  0.4624680000000 1.0
C      1  0.5048290000000  0.5220590000000  0.5401870000000 1.0
C      1  0.4581550000000  0.4957150000000  0.5213010000000 1.0
C      1  0.5377290000000  0.4946430000000  0.5157060000000 1.0
C      1  0.4594900000000  0.5029280000000  0.4751160000000 1.0
C      1  0.5353440000000  0.4535640000000  0.4983690000000 1.0
C      1  0.4532490000000  0.4964020000000  0.5353240000000 1.0
C      1  0.4974580000000  0.5389800000000  0.4527090000000 1.0
C      1  0.4606980000000  0.4523570000000  0.5018190000000 1.0
C      1  0.4636970000000  0.5467240000000  0.4955910000000 1.0
C      1  0.5355300000000  0.5464120000000  0.5025360000000 1.0
C      1  0.5476990000000  0.4971290000000  0.4620050000000 1.0
C      1  0.5476300000000  0.5026280000000  0.5386290000000 1.0
C      1  0.4526270000000  0.5052480000000  0.4627360000000 1.0
C      1  0.5046130000000  0.5358120000000  0.5453810000000 1.0
C      1  0.5039040000000  0.4648600000000  0.4547990000000 1.0
C      1  0.4970160000000  0.4600520000000  0.5502000000000 1.0
C      1  0.4967870000000  0.4502980000000  0.5401840000000 1.0
C      1  0.5363220000000  0.4962500000000  0.4537830000000 1.0
C      1  0.4535860000000  0.5364590000000  0.4953290000000 1.0
C      1  0.5036920000000  0.4545550000000  0.4649960000000 1.0
C      1  0.4965190000000  0.5471170000000  0.4643530000000 1.0
C      1  0.5044870000000  0.5461320000000  0.5353190000000 1.0
C      1  0.4634470000000  0.4963620000000  0.5454460000000 1.0
C      1  0.5359160000000  0.5046870000000  0.5460180000000 1.0
C      1  0.4603400000000  0.5034290000000  0.4511610000000 1.0
C      1  0.5468730000000  0.5378360000000  0.5017480000000 1.0
C      1  0.4526670000000  0.4641140000000  0.5024490000000 1.0
C      1  0.5466980000000  0.4620370000000  0.4990730000000 1.0
C      1  0.4446760000000  0.4270230000000  0.4842380000000 1.0
C      1  0.4275110000000  0.4827160000000  0.4441580000000 1.0
C      1  0.4835100000000  0.4453540000000  0.4287400000000 1.0
C      1  0.5545530000000  0.4291170000000  0.5152750000000 1.0
C      1  0.5548080000000  0.5702100000000  0.4844190000000 1.0
C      1  0.4448270000000  0.5723300000000  0.5159010000000 1.0
C      1  0.5731280000000  0.4808890000000  0.5565220000000 1.0
C      1  0.5725530000000  0.5187600000000  0.4436090000000 1.0
C      1  0.4279780000000  0.5162150000000  0.5548910000000 1.0
C      1  0.5176670000000  0.4428250000000  0.5728690000000 1.0
C      1  0.5156320000000  0.5552500000000  0.4265990000000 1.0
C      1  0.4839410000000  0.5550350000000  0.5714880000000 1.0
C      1  0.4832550000000  0.4285590000000  0.4454800000000 1.0
C      1  0.4432100000000  0.4821160000000  0.4266430000000 1.0
C      1  0.4292540000000  0.4450070000000  0.4847880000000 1.0
C      1  0.5184200000000  0.4256650000000  0.5566560000000 1.0
C      1  0.4841170000000  0.5719670000000  0.5548700000000 1.0
C      1  0.5153610000000  0.5704760000000  0.4445750000000 1.0
C      1  0.5552020000000  0.4825140000000  0.5716520000000 1.0
C      1  0.4449660000000  0.5162500000000  0.5715790000000 1.0
C      1  0.5548590000000  0.5173770000000  0.4276370000000 1.0
C      1  0.5724670000000  0.4446810000000  0.5161570000000 1.0
C      1  0.4281230000000  0.5554610000000  0.5159980000000 1.0
C      1  0.5728630000000  0.5547400000000  0.4838000000000 1.0
C      1  0.5257830000000  0.5653540000000  0.5151520000000 1.0
C      1  0.5600160000000  0.5145580000000  0.5247510000000 1.0
C      1  0.5151210000000  0.5264010000000  0.5650720000000 1.0
C      1  0.4734370000000  0.5661600000000  0.4847290000000 1.0
C      1  0.4755830000000  0.4407670000000  0.5146180000000 1.0
C      1  0.5249780000000  0.4351520000000  0.4855360000000 1.0
C      1  0.4355160000000  0.5162840000000  0.4737180000000 1.0
C      1  0.4339880000000  0.4851890000000  0.5261390000000 1.0
C      1  0.5597350000000  0.4851420000000  0.4759810000000 1.0
C      1  0.4849210000000  0.5243590000000  0.4410320000000 1.0
C      1  0.4827680000000  0.4745530000000  0.5637510000000 1.0
C      1  0.5144980000000  0.4740390000000  0.4352550000000 1.0
C      1  0.5151390000000  0.5657190000000  0.5261860000000 1.0
C      1  0.5256290000000  0.5153850000000  0.5634610000000 1.0
C      1  0.5580860000000  0.5230470000000  0.5143730000000 1.0
C      1  0.4844130000000  0.5660310000000  0.4740550000000 1.0
C      1  0.5143910000000  0.4349340000000  0.4744510000000 1.0
C      1  0.4844120000000  0.4392490000000  0.5248330000000 1.0
C      1  0.4747000000000  0.5156240000000  0.4393030000000 1.0
C      1  0.5253310000000  0.4848590000000  0.4367100000000 1.0
C      1  0.4730270000000  0.4858810000000  0.5643640000000 1.0
C      1  0.4340600000000  0.5271580000000  0.4844810000000 1.0
C      1  0.5579680000000  0.4766510000000  0.4863680000000 1.0
C      1  0.4342130000000  0.4745280000000  0.5151670000000 1.0
C      1  0.5291290000000  0.4982450000000  0.4183020000000 1.0
C      1  0.4984020000000  0.4159570000000  0.5302750000000 1.0
C      1  0.4164680000000  0.5294600000000  0.4973460000000 1.0
C      1  0.4709940000000  0.4977260000000  0.5831040000000 1.0
C      1  0.4695520000000  0.5012740000000  0.4168630000000 1.0
C      1  0.5293340000000  0.5014130000000  0.5809290000000 1.0
C      1  0.5015820000000  0.4171550000000  0.4712620000000 1.0
C      1  0.5023410000000  0.5834870000000  0.5293950000000 1.0
C      1  0.4972990000000  0.5834240000000  0.4698970000000 1.0
C      1  0.5829120000000  0.5282780000000  0.5018940000000 1.0
C      1  0.5825750000000  0.4713150000000  0.4981370000000 1.0
C      1  0.4162520000000  0.4704130000000  0.5027080000000 1.0
C      1  0.4163830000000  0.4979860000000  0.5294850000000 1.0
C      1  0.5288670000000  0.4171390000000  0.4977740000000 1.0
C      1  0.4974600000000  0.5293360000000  0.4164260000000 1.0
C      1  0.5827310000000  0.4992050000000  0.4705050000000 1.0
C      1  0.4177540000000  0.5024140000000  0.4699260000000 1.0
C      1  0.5831050000000  0.5004370000000  0.5296850000000 1.0
C      1  0.4702590000000  0.4161910000000  0.5025200000000 1.0
C      1  0.5299050000000  0.5835310000000  0.5026370000000 1.0
C      1  0.4705490000000  0.5838450000000  0.4976070000000 1.0
C      1  0.5024090000000  0.5287260000000  0.5826260000000 1.0
C      1  0.4985610000000  0.4687780000000  0.5828130000000 1.0
C      1  0.5015470000000  0.4715520000000  0.4177350000000 1.0
C      1  0.5151100000000  0.5669680000000  0.5046140000000 1.0
C      1  0.5652890000000  0.5034530000000  0.5161390000000 1.0
C      1  0.5044840000000  0.5153340000000  0.5655760000000 1.0
C      1  0.4845900000000  0.5673400000000  0.4953150000000 1.0
C      1  0.4843620000000  0.4340830000000  0.5045790000000 1.0
C      1  0.5141660000000  0.4338440000000  0.4961590000000 1.0
C      1  0.4339120000000  0.5053980000000  0.4844360000000 1.0
C      1  0.4324830000000  0.4958660000000  0.5149960000000 1.0
C      1  0.5651500000000  0.4962770000000  0.4844500000000 1.0
C      1  0.4952020000000  0.5154890000000  0.4346140000000 1.0
C      1  0.4945200000000  0.4837440000000  0.5672400000000 1.0
C      1  0.5039410000000  0.4854820000000  0.4344270000000 1.0
C      1  0.5045000000000  0.5671830000000  0.5151080000000 1.0
C      1  0.5146270000000  0.5045730000000  0.5649620000000 1.0
C      1  0.5647380000000  0.5143750000000  0.5041660000000 1.0
C      1  0.4951200000000  0.5672350000000  0.4847940000000 1.0
C      1  0.5036630000000  0.4338230000000  0.4853840000000 1.0
C      1  0.4953870000000  0.4335220000000  0.5162120000000 1.0
C      1  0.4837860000000  0.5045300000000  0.4342100000000 1.0
C      1  0.5147550000000  0.4957770000000  0.4349010000000 1.0
C      1  0.4850660000000  0.4954100000000  0.5668800000000 1.0
C      1  0.4333250000000  0.5158180000000  0.4949870000000 1.0
C      1  0.5646260000000  0.4854410000000  0.4964830000000 1.0
C      1  0.4327110000000  0.4852120000000  0.5045480000000 1.0
C      1  0.5382510000000  0.5122350000000  0.5753770000000 1.0
C      1  0.5138120000000  0.5772560000000  0.5368860000000 1.0
C      1  0.5820080000000  0.5383050000000  0.5123890000000 1.0
C      1  0.4590260000000  0.5111400000000  0.4167310000000 1.0
C      1  0.4634170000000  0.4868380000000  0.5764790000000 1.0
C      1  0.5379230000000  0.4877210000000  0.4244840000000 1.0
C      1  0.4859370000000  0.5769730000000  0.4620450000000 1.0
C      1  0.4886020000000  0.4165080000000  0.5407580000000 1.0
C      1  0.5130500000000  0.4232390000000  0.4637700000000 1.0
C      1  0.4224070000000  0.5373080000000  0.4860390000000 1.0
C      1  0.4230800000000  0.4624680000000  0.5139490000000 1.0
C      1  0.5816590000000  0.4614550000000  0.4874890000000 1.0
C      1  0.5830450000000  0.5103580000000  0.5400660000000 1.0
C      1  0.5376950000000  0.5764100000000  0.5137760000000 1.0
C      1  0.5137820000000  0.5364840000000  0.5768500000000 1.0
C      1  0.4235570000000  0.5130910000000  0.4612040000000 1.0
C      1  0.5824610000000  0.4894210000000  0.4599980000000 1.0
C      1  0.4226020000000  0.4865380000000  0.5371050000000 1.0
C      1  0.4628230000000  0.5777920000000  0.4861840000000 1.0
C      1  0.5369200000000  0.4238050000000  0.4865740000000 1.0
C      1  0.4603330000000  0.4174110000000  0.5131540000000 1.0
C      1  0.4867910000000  0.5392410000000  0.4174370000000 1.0
C      1  0.5129540000000  0.4637590000000  0.4235800000000 1.0
C      1  0.4889180000000  0.4583320000000  0.5798160000000 1.0
C      1  0.4827520000000  0.5064880000000  0.4193500000000 1.0
C      1  0.5045260000000  0.4182920000000  0.4852210000000 1.0
C      1  0.4168580000000  0.4843970000000  0.5060780000000 1.0
C      1  0.5152410000000  0.5049660000000  0.5804440000000 1.0
C      1  0.5151860000000  0.4947860000000  0.4193040000000 1.0
C      1  0.4843510000000  0.4931220000000  0.5828710000000 1.0
C      1  0.4932370000000  0.4186830000000  0.5171040000000 1.0
C      1  0.4941130000000  0.5828700000000  0.4840570000000 1.0
C      1  0.5057430000000  0.5827470000000  0.5155630000000 1.0
C      1  0.5798490000000  0.4846770000000  0.4940660000000 1.0
C      1  0.5799440000000  0.5150500000000  0.5063440000000 1.0
C      1  0.4177930000000  0.5155660000000  0.4940630000000 1.0
C      1  0.4183610000000  0.5059770000000  0.4838780000000 1.0
C      1  0.4834310000000  0.4187920000000  0.5070690000000 1.0
C      1  0.5048010000000  0.4854880000000  0.4189370000000 1.0
C      1  0.5801500000000  0.5053180000000  0.5164780000000 1.0
C      1  0.4168870000000  0.4944310000000  0.5157000000000 1.0
C      1  0.5799500000000  0.4943220000000  0.4838040000000 1.0
C      1  0.5145920000000  0.4182230000000  0.4949280000000 1.0
C      1  0.4843570000000  0.5829650000000  0.4940930000000 1.0
C      1  0.5158550000000  0.5827380000000  0.5059500000000 1.0
C      1  0.4930950000000  0.4823020000000  0.5821890000000 1.0
C      1  0.5052250000000  0.5147450000000  0.5811040000000 1.0
C      1  0.4929120000000  0.5161950000000  0.4192660000000 1.0
C      1  0.5185810000000  0.4907140000000  0.5610950000000 1.0
C      1  0.4912180000000  0.5621160000000  0.5194130000000 1.0
C      1  0.5615620000000  0.5199530000000  0.4904470000000 1.0
C      1  0.4792910000000  0.4912280000000  0.4385450000000 1.0
C      1  0.4805990000000  0.5088230000000  0.5615420000000 1.0
C      1  0.5195610000000  0.5096340000000  0.4382620000000 1.0
C      1  0.5087850000000  0.5631060000000  0.4802950000000 1.0
C      1  0.5087820000000  0.4372220000000  0.5210700000000 1.0
C      1  0.4904040000000  0.4384360000000  0.4805040000000 1.0
C      1  0.4379410000000  0.5201150000000  0.5083850000000 1.0
C      1  0.4366560000000  0.4806670000000  0.4908790000000 1.0
C      1  0.5613540000000  0.4797530000000  0.5101430000000 1.0
C      1  0.5613730000000  0.4900660000000  0.5212300000000 1.0
C      1  0.5196680000000  0.5631780000000  0.4909890000000 1.0
C      1  0.4912480000000  0.5198650000000  0.5609850000000 1.0
C      1  0.4377040000000  0.4915320000000  0.4801750000000 1.0
C      1  0.5613500000000  0.5096390000000  0.4793580000000 1.0
C      1  0.4376340000000  0.5092160000000  0.5192060000000 1.0
C      1  0.4802590000000  0.5623100000000  0.5086280000000 1.0
C      1  0.5191320000000  0.4375830000000  0.5099320000000 1.0
C      1  0.4793590000000  0.4377550000000  0.4910540000000 1.0
C      1  0.5088230000000  0.5204590000000  0.4378300000000 1.0
C      1  0.4905610000000  0.4809150000000  0.4390840000000 1.0
C      1  0.5080480000000  0.4795740000000  0.5622350000000 1.0
C      1  0.4250120000000  0.4765550000000  0.4666830000000 1.0
C      1  0.4760340000000  0.4666750000000  0.4270830000000 1.0
C      1  0.4661010000000  0.4248690000000  0.4769950000000 1.0
C      1  0.5746830000000  0.4752550000000  0.5340010000000 1.0
C      1  0.5743530000000  0.5243430000000  0.4660760000000 1.0
C      1  0.4258070000000  0.5236940000000  0.5331940000000 1.0
C      1  0.5237510000000  0.4656330000000  0.5733480000000 1.0
C      1  0.5229790000000  0.5339080000000  0.4247950000000 1.0
C      1  0.4767510000000  0.5334140000000  0.5737470000000 1.0
C      1  0.5332210000000  0.4244820000000  0.5233850000000 1.0
C      1  0.5331490000000  0.5756930000000  0.4765920000000 1.0
C      1  0.4665300000000  0.5743220000000  0.5233040000000 1.0
C      1  0.4656460000000  0.4762790000000  0.4268300000000 1.0
C      1  0.4242890000000  0.4667660000000  0.4769150000000 1.0
C      1  0.4759430000000  0.4253290000000  0.4669300000000 1.0
C      1  0.5334050000000  0.4759410000000  0.5726240000000 1.0
C      1  0.4668620000000  0.5234040000000  0.5738420000000 1.0
C      1  0.5330360000000  0.5239450000000  0.4250980000000 1.0
C      1  0.5747520000000  0.4659720000000  0.5235260000000 1.0
C      1  0.4256740000000  0.5336720000000  0.5231330000000 1.0
C      1  0.5746600000000  0.5336210000000  0.4765620000000 1.0
C      1  0.5238580000000  0.4244260000000  0.5339430000000 1.0
C      1  0.4765930000000  0.5741640000000  0.5333360000000 1.0
C      1  0.5232210000000  0.5753740000000  0.4664710000000 1.0
C      1  0.4893550000000  0.4716710000000  0.4262860000000 1.0
C      1  0.4709240000000  0.4245560000000  0.4902340000000 1.0
C      1  0.4255920000000  0.4901310000000  0.4705560000000 1.0
C      1  0.5105900000000  0.4704420000000  0.5749110000000 1.0
C      1  0.5097840000000  0.5288600000000  0.4247040000000 1.0
C      1  0.4903400000000  0.5292650000000  0.5738420000000 1.0
C      1  0.5281310000000  0.4243470000000  0.5103030000000 1.0
C      1  0.5288730000000  0.5760690000000  0.4901130000000 1.0
C      1  0.4709510000000  0.5752220000000  0.5098250000000 1.0
C      1  0.5741020000000  0.4886950000000  0.5298210000000 1.0
C      1  0.5738550000000  0.5109700000000  0.4704390000000 1.0
C      1  0.4249590000000  0.5102260000000  0.5288660000000 1.0
C      1  0.4236880000000  0.4715150000000  0.4901600000000 1.0
C      1  0.4894290000000  0.4255770000000  0.4711500000000 1.0
C      1  0.4700300000000  0.4896410000000  0.4260700000000 1.0
C      1  0.5743550000000  0.4713620000000  0.5104590000000 1.0
C      1  0.4251750000000  0.5295130000000  0.5095130000000 1.0
C      1  0.5747060000000  0.5280330000000  0.4896150000000 1.0
C      1  0.5103270000000  0.4247070000000  0.5299980000000 1.0
C      1  0.4901140000000  0.5748930000000  0.5289750000000 1.0
C      1  0.5097000000000  0.5754980000000  0.4706820000000 1.0
C      1  0.5284780000000  0.4892220000000  0.5730830000000 1.0
C      1  0.4714510000000  0.5100180000000  0.5744290000000 1.0
C      1  0.5283020000000  0.5107550000000  0.4253470000000 1.0
C      1  0.5285350000000  0.4944440000000  0.4848710000000 1.0
C      1  0.4895860000000  0.4786220000000  0.5286600000000 1.0
C      1  0.4801180000000  0.5300280000000  0.4881200000000 1.0
C      1  0.4694580000000  0.4883280000000  0.5186670000000 1.0
C      1  0.4715220000000  0.5091220000000  0.4787710000000 1.0
C      1  0.5282450000000  0.5058110000000  0.5152760000000 1.0
C      1  0.5120890000000  0.4813410000000  0.4712810000000 1.0
C      1  0.5116280000000  0.5193000000000  0.5284420000000 1.0
C      1  0.4937340000000  0.5181990000000  0.4711760000000 1.0
C      1  0.5204550000000  0.5280150000000  0.5071930000000 1.0
C      1  0.5207010000000  0.4722460000000  0.4927620000000 1.0
C      1  0.4817570000000  0.4706720000000  0.5064960000000 1.0
C      1  0.4794220000000  0.4883420000000  0.5287500000000 1.0
C      1  0.5283560000000  0.4841430000000  0.4950320000000 1.0
C      1  0.4914370000000  0.5292080000000  0.4798190000000 1.0
C      1  0.5208350000000  0.4929000000000  0.4728130000000 1.0
C      1  0.4833230000000  0.5079250000000  0.4707850000000 1.0
C      1  0.5201560000000  0.5079050000000  0.5269790000000 1.0
C      1  0.4705930000000  0.4795300000000  0.5076440000000 1.0
C      1  0.5282040000000  0.5161050000000  0.5051110000000 1.0
C      1  0.4701630000000  0.5199290000000  0.4878390000000 1.0
C      1  0.5119930000000  0.5296290000000  0.5185710000000 1.0
C      1  0.4916510000000  0.4700930000000  0.5173860000000 1.0
C      1  0.5121200000000  0.4710410000000  0.4813100000000 1.0
C      1  0.4330110000000  0.5793810000000  0.5227570000000 1.0
C      1  0.5721320000000  0.5254120000000  0.4312180000000 1.0
C      1  0.5270850000000  0.4326010000000  0.5795130000000 1.0
C      1  0.5666610000000  0.5715990000000  0.4770410000000 1.0
C      1  0.5651440000000  0.4219670000000  0.5232760000000 1.0
C      1  0.4337500000000  0.4221790000000  0.4751910000000 1.0
C      1  0.4210350000000  0.5230090000000  0.5667950000000 1.0
C      1  0.4263000000000  0.4756140000000  0.4320500000000 1.0
C      1  0.5725700000000  0.4743320000000  0.5689900000000 1.0
C      1  0.4766530000000  0.4336800000000  0.4216600000000 1.0
C      1  0.4782670000000  0.5679060000000  0.5727090000000 1.0
C      1  0.5241480000000  0.5664180000000  0.4210950000000 1.0
C      1  0.5219430000000  0.5722950000000  0.4321330000000 1.0
C      1  0.4322570000000  0.5223250000000  0.5726960000000 1.0
C      1  0.5724740000000  0.4323000000000  0.5229320000000 1.0
C      1  0.4775030000000  0.5791130000000  0.5667970000000 1.0
C      1  0.5256290000000  0.4258150000000  0.5687990000000 1.0
C      1  0.4775040000000  0.4273950000000  0.4326490000000 1.0
C      1  0.5651490000000  0.5260180000000  0.4206100000000 1.0
C      1  0.4320280000000  0.4734120000000  0.4208580000000 1.0
C      1  0.5651120000000  0.4737350000000  0.5793410000000 1.0
C      1  0.4277110000000  0.4330690000000  0.4775100000000 1.0
C      1  0.5775050000000  0.5655190000000  0.4745980000000 1.0
C      1  0.4270060000000  0.5682250000000  0.5219270000000 1.0
C      1  0.4428620000000  0.5671360000000  0.5021560000000 1.0
C      1  0.5693100000000  0.5043090000000  0.4416500000000 1.0
C      1  0.5036740000000  0.4389070000000  0.5693710000000 1.0
C      1  0.5575130000000  0.5651370000000  0.4980910000000 1.0
C      1  0.5574080000000  0.4345900000000  0.5018030000000 1.0
C      1  0.4419530000000  0.4304360000000  0.4985850000000 1.0
C      1  0.4331920000000  0.5024820000000  0.5568600000000 1.0
C      1  0.4318530000000  0.4968080000000  0.4412770000000 1.0
C      1  0.5698520000000  0.4954750000000  0.5582880000000 1.0
C      1  0.4971930000000  0.4436120000000  0.4340050000000 1.0
C      1  0.4977490000000  0.5565120000000  0.5664110000000 1.0
C      1  0.5013350000000  0.5576010000000  0.4303920000000 1.0
C      1  0.5015030000000  0.5655940000000  0.4421680000000 1.0
C      1  0.4430890000000  0.5024580000000  0.5667030000000 1.0
C      1  0.5689990000000  0.4427940000000  0.5018700000000 1.0
C      1  0.4977860000000  0.5665280000000  0.5566530000000 1.0
C      1  0.5039810000000  0.4285810000000  0.5594090000000 1.0
C      1  0.4970010000000  0.4338320000000  0.4439750000000 1.0
C      1  0.5582280000000  0.5036540000000  0.4325780000000 1.0
C      1  0.4406700000000  0.4964810000000  0.4299170000000 1.0
C      1  0.5585390000000  0.4962050000000  0.5670630000000 1.0
C      1  0.4340200000000  0.4422420000000  0.4985410000000 1.0
C      1  0.5692130000000  0.5570910000000  0.4980300000000 1.0
C      1  0.4330260000000  0.5571750000000  0.5021400000000 1.0
C      1  0.4838570000000  0.4473180000000  0.5356960000000 1.0
C      1  0.4436240000000  0.5388210000000  0.4850740000000 1.0
C      1  0.5325220000000  0.4832480000000  0.4488290000000 1.0
C      1  0.5136970000000  0.4443160000000  0.4626570000000 1.0
C      1  0.5144660000000  0.5561840000000  0.5378360000000 1.0
C      1  0.4852950000000  0.5562450000000  0.4632630000000 1.0
C      1  0.5499470000000  0.5339780000000  0.5148440000000 1.0
C      1  0.5498340000000  0.4657330000000  0.4858940000000 1.0
C      1  0.4439130000000  0.4637080000000  0.5141990000000 1.0
C      1  0.4611870000000  0.4860910000000  0.5552970000000 1.0
C      1  0.4634510000000  0.5164080000000  0.4468470000000 1.0
C      1  0.5324350000000  0.5174700000000  0.5511710000000 1.0
C      1  0.5359150000000  0.4447280000000  0.4865680000000 1.0
C      1  0.4843710000000  0.5351800000000  0.4493580000000 1.0
C      1  0.4435630000000  0.4859770000000  0.5377250000000 1.0
C      1  0.4646800000000  0.4490430000000  0.5148680000000 1.0
C      1  0.5363490000000  0.5553560000000  0.5141490000000 1.0
C      1  0.4616010000000  0.5567580000000  0.4854340000000 1.0
C      1  0.5146510000000  0.5381650000000  0.5555840000000 1.0
C      1  0.4840710000000  0.4682490000000  0.5507570000000 1.0
C      1  0.5140440000000  0.4623940000000  0.4447870000000 1.0
C      1  0.5519780000000  0.4842490000000  0.4649490000000 1.0
C      1  0.4478140000000  0.5180550000000  0.4668010000000 1.0
C      1  0.5523710000000  0.5154850000000  0.5358780000000 1.0
C      1  0.4631920000000  0.4186100000000  0.5278470000000 1.0
C      1  0.4233140000000  0.5285540000000  0.4604470000000 1.0
C      1  0.5286850000000  0.4623490000000  0.4233320000000 1.0
C      1  0.5386330000000  0.4233520000000  0.4715240000000 1.0
C      1  0.5395040000000  0.5767570000000  0.5289020000000 1.0
C      1  0.4609190000000  0.5785830000000  0.4705840000000 1.0
C      1  0.5823080000000  0.5252300000000  0.5378280000000 1.0
C      1  0.5817950000000  0.4745310000000  0.4621280000000 1.0
C      1  0.4219880000000  0.4710430000000  0.5389400000000 1.0
C      1  0.4760550000000  0.4635250000000  0.5736100000000 1.0
C      1  0.4720830000000  0.5365410000000  0.4183780000000 1.0
C      1  0.5294880000000  0.5378450000000  0.5771190000000 1.0
C      1  0.5284810000000  0.4223560000000  0.4617300000000 1.0
C      1  0.4612550000000  0.5261020000000  0.4172610000000 1.0
C      1  0.4228310000000  0.4608820000000  0.5291170000000 1.0
C      1  0.4736980000000  0.4175370000000  0.5385670000000 1.0
C      1  0.5293890000000  0.5779380000000  0.5387890000000 1.0
C      1  0.4707530000000  0.5774240000000  0.4604070000000 1.0
C      1  0.5392910000000  0.5277210000000  0.5760270000000 1.0
C      1  0.4633490000000  0.4714380000000  0.5764600000000 1.0
C      1  0.5385830000000  0.4723400000000  0.4243320000000 1.0
C      1  0.5806750000000  0.4641210000000  0.4728560000000 1.0
C      1  0.4222680000000  0.5386680000000  0.4703090000000 1.0
C      1  0.5810850000000  0.5356130000000  0.5270330000000 1.0
C      1  0.4463870000000  0.5082620000000  0.4238810000000 1.0
C      1  0.5093600000000  0.4321560000000  0.4516390000000 1.0
C      1  0.4328810000000  0.4506500000000  0.5105100000000 1.0
C      1  0.5518050000000  0.5083470000000  0.5702210000000 1.0
C      1  0.5514750000000  0.4914760000000  0.4295610000000 1.0
C      1  0.4508300000000  0.4901130000000  0.5682590000000 1.0
C      1  0.4918040000000  0.4234770000000  0.5533660000000 1.0
C      1  0.4893310000000  0.5669320000000  0.4503710000000 1.0
C      1  0.5101350000000  0.5683060000000  0.5490490000000 1.0
C      1  0.5745270000000  0.4488350000000  0.4899440000000 1.0
C      1  0.5748820000000  0.5510060000000  0.5098980000000 1.0
C      1  0.4311460000000  0.5495860000000  0.4896830000000 1.0
C      1  0.4286630000000  0.5091530000000  0.4477270000000 1.0
C      1  0.4477650000000  0.4246800000000  0.5105830000000 1.0
C      1  0.5094340000000  0.4513810000000  0.4322100000000 1.0
C      1  0.5758690000000  0.5073890000000  0.5526620000000 1.0
C      1  0.4315820000000  0.4901220000000  0.5492510000000 1.0
C      1  0.5752490000000  0.4923990000000  0.4474290000000 1.0
C      1  0.5487750000000  0.4337290000000  0.4899840000000 1.0
C      1  0.4505170000000  0.5689740000000  0.4898180000000 1.0
C      1  0.5492710000000  0.5662620000000  0.5101850000000 1.0
C      1  0.4915990000000  0.4454450000000  0.5736910000000 1.0
C      1  0.5101440000000  0.5488150000000  0.5681470000000 1.0
C      1  0.4893380000000  0.5518530000000  0.4246350000000 1.0
C      1  0.5496220000000  0.5305350000000  0.5394730000000 1.0
C      1  0.5296490000000  0.5421880000000  0.5525580000000 1.0
C      1  0.5391980000000  0.5514860000000  0.5293130000000 1.0
C      1  0.4480250000000  0.5313900000000  0.4595400000000 1.0
C      1  0.4469310000000  0.4710960000000  0.5412030000000 1.0
C      1  0.5492150000000  0.4694260000000  0.4610840000000 1.0
C      1  0.4717010000000  0.5390090000000  0.4545500000000 1.0
C      1  0.4700100000000  0.4605410000000  0.5505880000000 1.0
C      1  0.5289780000000  0.4582570000000  0.4479410000000 1.0
C      1  0.4580290000000  0.5537350000000  0.4705760000000 1.0
C      1  0.4611890000000  0.4547970000000  0.5274070000000 1.0
C      1  0.5385640000000  0.4486220000000  0.4712640000000 1.0
C      1  0.5399940000000  0.5306040000000  0.5512790000000 1.0
C      1  0.5450270000000  0.5381140000000  0.5275630000000 1.0
C      1  0.5292870000000  0.5530760000000  0.5414090000000 1.0
C      1  0.4598040000000  0.5314360000000  0.4498260000000 1.0
C      1  0.5395700000000  0.4697320000000  0.4491450000000 1.0
C      1  0.4581480000000  0.4708010000000  0.5521960000000 1.0
C      1  0.4468220000000  0.5428840000000  0.4700980000000 1.0
C      1  0.5446480000000  0.4618280000000  0.4731340000000 1.0
C      1  0.4480430000000  0.4610230000000  0.5292820000000 1.0
C      1  0.4700530000000  0.5522870000000  0.4605940000000 1.0
C      1  0.5285800000000  0.4473250000000  0.4591300000000 1.0
C      1  0.4690650000000  0.4504510000000  0.5392780000000 1.0
C      1  0.5631920000000  0.4612970000000  0.4576170000000 1.0
C      1  0.4607820000000  0.4365020000000  0.5428730000000 1.0
C      1  0.4566790000000  0.5394900000000  0.4357350000000 1.0
C      1  0.5637710000000  0.5385380000000  0.5424940000000 1.0
END
