TITL C-1379268-1316-306 3.26027640407854e-07 1000000 -3294.17896016948 0 0 460 (Cs) n - 1
REM
REM in /nfs/bkarasulu/CARBON/AIRSS/Generating-Clusters/GAP-ML-2020/Higher-Symm/Selected-Sizes/TryA-Only_Ih-Symm/Larger-Clusters/Try2-MINAMP_6A
REM
REM
REM
REM
REM
REM ./C.cell (31579ac4e95a012ec27f3239692ae8a5)
REM
REM compiler GCC version 9.2.1 20190827 (Red Hat 9.2.1-1)
REM options -cpp -mtune=generic -march=x86-64 -g -O0 -fpre-include=/usr/include/finclude/math-vector-fortran.h
REM seed 1896743239 1779787912 -472476955 784641854 -1602731277 1944000865 -1320424760 -1435582887 35713089 1161311304 1825916519 1578412898 239202585 -15371577 -2036024006 1677639499 232777438 -243935871 1927047223 1724624055 -169155272 1734251178 1824885863 -587503706 2104589103 1458350075 929063387 357395375 1267029795 688787959 -1479732344 -914883166 -1517927171
REM
CELL 1.54180  100.00000  100.00000  100.00000   90.00000   90.00000   90.00000
LATT -1
SFAC C  
C      1  0.5419600000000  0.4388330000000  0.5513760000000 1.0
C      1  0.4378050000000  0.5517260000000  0.5412500000000 1.0
C      1  0.5521420000000  0.5410300000000  0.4388690000000 1.0
C      1  0.4577810000000  0.5619970000000  0.5519190000000 1.0
C      1  0.5420020000000  0.5614660000000  0.4485910000000 1.0
C      1  0.4576300000000  0.4379760000000  0.4477750000000 1.0
C      1  0.5619210000000  0.4491480000000  0.5406410000000 1.0
C      1  0.4375060000000  0.4480600000000  0.4582760000000 1.0
C      1  0.5619430000000  0.5511340000000  0.4593210000000 1.0
C      1  0.4473790000000  0.4583530000000  0.4379050000000 1.0
C      1  0.5521960000000  0.4592160000000  0.5611440000000 1.0
C      1  0.4475870000000  0.5415890000000  0.5617060000000 1.0
C      1  0.4378050000000  0.5413930000000  0.5515820000000 1.0
C      1  0.5521420000000  0.4390130000000  0.5408850000000 1.0
C      1  0.5419600000000  0.5515210000000  0.4386890000000 1.0
C      1  0.5619430000000  0.4594650000000  0.5509900000000 1.0
C      1  0.5619210000000  0.5407860000000  0.4490040000000 1.0
C      1  0.4375070000000  0.4584210000000  0.4479160000000 1.0
C      1  0.4475870000000  0.5618490000000  0.5414460000000 1.0
C      1  0.4473790000000  0.4380500000000  0.4582080000000 1.0
C      1  0.5521960000000  0.5612890000000  0.4590730000000 1.0
C      1  0.4576300000000  0.4479200000000  0.4378310000000 1.0
C      1  0.4577810000000  0.5520630000000  0.5618530000000 1.0
C      1  0.5420020000000  0.4487340000000  0.5613220000000 1.0
C      1  0.5693860000000  0.5442510000000  0.5094270000000 1.0
C      1  0.5437420000000  0.5092210000000  0.5698370000000 1.0
C      1  0.5083230000000  0.5706990000000  0.5444720000000 1.0
C      1  0.4301300000000  0.4560580000000  0.5090290000000 1.0
C      1  0.5691570000000  0.4562000000000  0.4905250000000 1.0
C      1  0.4306880000000  0.5441330000000  0.4910170000000 1.0
C      1  0.4561470000000  0.4913680000000  0.5700550000000 1.0
C      1  0.5435440000000  0.4910740000000  0.4303590000000 1.0
C      1  0.4558490000000  0.5089880000000  0.4299170000000 1.0
C      1  0.4913850000000  0.4301940000000  0.5440330000000 1.0
C      1  0.5081950000000  0.4295190000000  0.4555040000000 1.0
C      1  0.4915270000000  0.5702960000000  0.4558240000000 1.0
C      1  0.5437420000000  0.5699810000000  0.5090780000000 1.0
C      1  0.5083230000000  0.5446150000000  0.5705550000000 1.0
C      1  0.5693860000000  0.5095700000000  0.5441070000000 1.0
C      1  0.4558490000000  0.4300600000000  0.5088440000000 1.0
C      1  0.4561470000000  0.5701990000000  0.4912250000000 1.0
C      1  0.5435440000000  0.4305030000000  0.4909290000000 1.0
C      1  0.4915270000000  0.4559670000000  0.5701520000000 1.0
C      1  0.4913850000000  0.5441780000000  0.4300510000000 1.0
C      1  0.5081950000000  0.4556480000000  0.4293750000000 1.0
C      1  0.4306880000000  0.4911610000000  0.5439890000000 1.0
C      1  0.4301300000000  0.5091740000000  0.4559140000000 1.0
C      1  0.5691570000000  0.4906690000000  0.4560560000000 1.0
C      1  0.5196910000000  0.4527650000000  0.4415430000000 1.0
C      1  0.4525450000000  0.4413850000000  0.5193090000000 1.0
C      1  0.4414810000000  0.5194970000000  0.4524150000000 1.0
C      1  0.4799540000000  0.5470240000000  0.4419160000000 1.0
C      1  0.5199070000000  0.5475390000000  0.5584420000000 1.0
C      1  0.4797940000000  0.4530060000000  0.5579900000000 1.0
C      1  0.5465410000000  0.5580780000000  0.5202660000000 1.0
C      1  0.4534310000000  0.5579730000000  0.4796540000000 1.0
C      1  0.5462470000000  0.4424060000000  0.4796880000000 1.0
C      1  0.5573180000000  0.4797950000000  0.4534750000000 1.0
C      1  0.4424610000000  0.4799780000000  0.5466810000000 1.0
C      1  0.5577000000000  0.5203880000000  0.5468680000000 1.0
C      1  0.4525450000000  0.5194530000000  0.4412410000000 1.0
C      1  0.4414810000000  0.4525590000000  0.5193520000000 1.0
C      1  0.5196910000000  0.4416880000000  0.4526200000000 1.0
C      1  0.5462470000000  0.4798320000000  0.4422620000000 1.0
C      1  0.5465410000000  0.5204090000000  0.5579340000000 1.0
C      1  0.4534310000000  0.4797980000000  0.5578290000000 1.0
C      1  0.5577000000000  0.5470110000000  0.5202450000000 1.0
C      1  0.5573180000000  0.4536190000000  0.4796510000000 1.0
C      1  0.4424610000000  0.5468260000000  0.4798340000000 1.0
C      1  0.4797940000000  0.5581340000000  0.4528620000000 1.0
C      1  0.4799540000000  0.4420600000000  0.5468800000000 1.0
C      1  0.5199070000000  0.5585860000000  0.5473960000000 1.0
C      1  0.4761700000000  0.4421310000000  0.4853950000000 1.0
C      1  0.4423290000000  0.4859330000000  0.4763630000000 1.0
C      1  0.4855280000000  0.4760240000000  0.4419050000000 1.0
C      1  0.5230450000000  0.5573500000000  0.4863700000000 1.0
C      1  0.4765980000000  0.5578370000000  0.5142590000000 1.0
C      1  0.5228970000000  0.4432320000000  0.5136200000000 1.0
C      1  0.5561820000000  0.5129040000000  0.4779410000000 1.0
C      1  0.4436850000000  0.5133470000000  0.5226810000000 1.0
C      1  0.5562410000000  0.4876260000000  0.5221690000000 1.0
C      1  0.5136730000000  0.5234280000000  0.4429690000000 1.0
C      1  0.4858780000000  0.5240160000000  0.5578190000000 1.0
C      1  0.5137860000000  0.4768810000000  0.5573360000000 1.0
C      1  0.4423290000000  0.4765070000000  0.4857890000000 1.0
C      1  0.4855280000000  0.4420490000000  0.4758790000000 1.0
C      1  0.4761700000000  0.4855390000000  0.4419870000000 1.0
C      1  0.5562410000000  0.5223130000000  0.4874820000000 1.0
C      1  0.5561820000000  0.4780850000000  0.5127600000000 1.0
C      1  0.4436850000000  0.5228250000000  0.5132030000000 1.0
C      1  0.5137860000000  0.5574800000000  0.4767370000000 1.0
C      1  0.5136730000000  0.4431120000000  0.5232840000000 1.0
C      1  0.4858780000000  0.5579630000000  0.5238720000000 1.0
C      1  0.5228970000000  0.5137650000000  0.4430890000000 1.0
C      1  0.5230440000000  0.4865130000000  0.5572060000000 1.0
C      1  0.4765980000000  0.5144020000000  0.5576930000000 1.0
C      1  0.5648730000000  0.4846130000000  0.4748920000000 1.0
C      1  0.4844700000000  0.4748160000000  0.5645740000000 1.0
C      1  0.4751500000000  0.5646780000000  0.4843980000000 1.0
C      1  0.4373200000000  0.5160320000000  0.4746610000000 1.0
C      1  0.5649040000000  0.5157670000000  0.5251860000000 1.0
C      1  0.4367520000000  0.4847860000000  0.5249880000000 1.0
C      1  0.5153470000000  0.5256960000000  0.5646410000000 1.0
C      1  0.4844670000000  0.5252150000000  0.4361740000000 1.0
C      1  0.5151540000000  0.4745960000000  0.4354740000000 1.0
C      1  0.5244530000000  0.4359990000000  0.4842060000000 1.0
C      1  0.4747760000000  0.4370090000000  0.5156560000000 1.0
C      1  0.5246740000000  0.5644530000000  0.5158290000000 1.0
C      1  0.4844700000000  0.5647180000000  0.4746730000000 1.0
C      1  0.4751500000000  0.4845420000000  0.5645340000000 1.0
C      1  0.5648730000000  0.4750360000000  0.4844690000000 1.0
C      1  0.5151540000000  0.4356190000000  0.4744520000000 1.0
C      1  0.5153470000000  0.5647850000000  0.5255530000000 1.0
C      1  0.4844670000000  0.4363180000000  0.5250710000000 1.0
C      1  0.5246740000000  0.5159720000000  0.5643090000000 1.0
C      1  0.5244530000000  0.4843500000000  0.4358550000000 1.0
C      1  0.4747760000000  0.5158000000000  0.4368650000000 1.0
C      1  0.4367520000000  0.5251330000000  0.4846420000000 1.0
C      1  0.4373200000000  0.4748050000000  0.5158880000000 1.0
C      1  0.5649040000000  0.5253300000000  0.5156230000000 1.0
C      1  0.4996730000000  0.5847710000000  0.4773590000000 1.0
C      1  0.5844570000000  0.4767200000000  0.4997610000000 1.0
C      1  0.4774090000000  0.4997480000000  0.5846950000000 1.0
C      1  0.5002330000000  0.4153850000000  0.4773020000000 1.0
C      1  0.4995450000000  0.4159190000000  0.5227170000000 1.0
C      1  0.5003220000000  0.5849850000000  0.5227810000000 1.0
C      1  0.4161870000000  0.5237310000000  0.4999440000000 1.0
C      1  0.5844410000000  0.5235330000000  0.5002560000000 1.0
C      1  0.4166010000000  0.4780100000000  0.5011420000000 1.0
C      1  0.5226040000000  0.5007740000000  0.5844690000000 1.0
C      1  0.4774380000000  0.5008240000000  0.4160600000000 1.0
C      1  0.5225220000000  0.4996090000000  0.4157250000000 1.0
C      1  0.5844570000000  0.4999050000000  0.4765760000000 1.0
C      1  0.4774090000000  0.5848390000000  0.4996050000000 1.0
C      1  0.4996730000000  0.4775030000000  0.5846270000000 1.0
C      1  0.4166010000000  0.5012860000000  0.4778660000000 1.0
C      1  0.4161870000000  0.5000870000000  0.5235870000000 1.0
C      1  0.5844410000000  0.5003990000000  0.5233900000000 1.0
C      1  0.5225220000000  0.4158690000000  0.4994640000000 1.0
C      1  0.5226040000000  0.5846130000000  0.5006310000000 1.0
C      1  0.4774380000000  0.4162040000000  0.5006800000000 1.0
C      1  0.5003210000000  0.5229240000000  0.5848420000000 1.0
C      1  0.5002330000000  0.4774460000000  0.4152410000000 1.0
C      1  0.4995450000000  0.5228620000000  0.4157750000000 1.0
C      1  0.5377340000000  0.5011460000000  0.5487630000000 1.0
C      1  0.5000970000000  0.5498730000000  0.5391610000000 1.0
C      1  0.5480980000000  0.5380160000000  0.5013170000000 1.0
C      1  0.4620060000000  0.4996560000000  0.5492440000000 1.0
C      1  0.5375710000000  0.4991510000000  0.4514490000000 1.0
C      1  0.4611730000000  0.4997860000000  0.4503550000000 1.0
C      1  0.4995420000000  0.4511520000000  0.5386530000000 1.0
C      1  0.4998010000000  0.4503040000000  0.4607260000000 1.0
C      1  0.4995590000000  0.5494460000000  0.4614570000000 1.0
C      1  0.4506090000000  0.4612060000000  0.4997050000000 1.0
C      1  0.5480040000000  0.4624110000000  0.4989010000000 1.0
C      1  0.4517270000000  0.5385850000000  0.4994280000000 1.0
C      1  0.5000970000000  0.5393050000000  0.5497290000000 1.0
C      1  0.5480980000000  0.5014600000000  0.5378720000000 1.0
C      1  0.5377340000000  0.5489070000000  0.5010030000000 1.0
C      1  0.4995580000000  0.4616010000000  0.5493020000000 1.0
C      1  0.4995430000000  0.5387980000000  0.4510090000000 1.0
C      1  0.4998010000000  0.4608700000000  0.4501590000000 1.0
C      1  0.4517270000000  0.4995720000000  0.5384410000000 1.0
C      1  0.4506090000000  0.4998490000000  0.4610620000000 1.0
C      1  0.5480040000000  0.4990450000000  0.4622670000000 1.0
C      1  0.4611730000000  0.4504990000000  0.4996410000000 1.0
C      1  0.4620060000000  0.5493880000000  0.4995130000000 1.0
C      1  0.5375710000000  0.4515930000000  0.4990060000000 1.0
C      1  0.5368470000000  0.5269520000000  0.4276780000000 1.0
C      1  0.5274060000000  0.4276690000000  0.5365550000000 1.0
C      1  0.4277160000000  0.5362800000000  0.5264930000000 1.0
C      1  0.4624120000000  0.4725040000000  0.4265180000000 1.0
C      1  0.5370160000000  0.4732730000000  0.5725020000000 1.0
C      1  0.4627510000000  0.5275130000000  0.5730980000000 1.0
C      1  0.4722130000000  0.5733610000000  0.5371230000000 1.0
C      1  0.5275630000000  0.5727850000000  0.4633860000000 1.0
C      1  0.4719720000000  0.4265910000000  0.4626300000000 1.0
C      1  0.5721410000000  0.4645390000000  0.5259420000000 1.0
C      1  0.4265330000000  0.4631400000000  0.4726570000000 1.0
C      1  0.5721340000000  0.5357700000000  0.4740410000000 1.0
C      1  0.5274060000000  0.5367000000000  0.4275260000000 1.0
C      1  0.4277160000000  0.5266370000000  0.5361360000000 1.0
C      1  0.5368470000000  0.4278220000000  0.5268070000000 1.0
C      1  0.4719720000000  0.4627740000000  0.4264470000000 1.0
C      1  0.4722130000000  0.5372660000000  0.5732180000000 1.0
C      1  0.5275630000000  0.4635300000000  0.5726410000000 1.0
C      1  0.5721340000000  0.4741840000000  0.5356260000000 1.0
C      1  0.5721410000000  0.5260860000000  0.4643960000000 1.0
C      1  0.4265330000000  0.4728010000000  0.4629960000000 1.0
C      1  0.4627510000000  0.5732410000000  0.5273690000000 1.0
C      1  0.4624120000000  0.4266620000000  0.4723590000000 1.0
C      1  0.5370160000000  0.5726460000000  0.4731300000000 1.0
C      1  0.4490290000000  0.4652080000000  0.5143060000000 1.0
C      1  0.4652560000000  0.5143500000000  0.4486630000000 1.0
C      1  0.5134840000000  0.4465890000000  0.4649420000000 1.0
C      1  0.5518330000000  0.5333300000000  0.5156320000000 1.0
C      1  0.4478890000000  0.5344460000000  0.4858240000000 1.0
C      1  0.5515140000000  0.4674560000000  0.4847920000000 1.0
C      1  0.5335930000000  0.4855860000000  0.4471850000000 1.0
C      1  0.4659140000000  0.4859910000000  0.5532610000000 1.0
C      1  0.5338250000000  0.5147290000000  0.5529500000000 1.0
C      1  0.4858960000000  0.5535510000000  0.4653180000000 1.0
C      1  0.5137490000000  0.5537620000000  0.5350300000000 1.0
C      1  0.4859260000000  0.4473380000000  0.5345120000000 1.0
C      1  0.4652560000000  0.4488070000000  0.5142060000000 1.0
C      1  0.5134840000000  0.4650870000000  0.4464450000000 1.0
C      1  0.4490290000000  0.5144500000000  0.4650650000000 1.0
C      1  0.5338250000000  0.5530940000000  0.5145850000000 1.0
C      1  0.5335930000000  0.4473290000000  0.4854420000000 1.0
C      1  0.4659140000000  0.5534050000000  0.4858470000000 1.0
C      1  0.4859260000000  0.5346560000000  0.4471940000000 1.0
C      1  0.4858960000000  0.4654610000000  0.5534070000000 1.0
C      1  0.5137490000000  0.5351740000000  0.5536180000000 1.0
C      1  0.5515140000000  0.4849360000000  0.4673120000000 1.0
C      1  0.5518330000000  0.5157760000000  0.5331860000000 1.0
C      1  0.4478890000000  0.4859680000000  0.5343020000000 1.0
C      1  0.4366180000000  0.5433320000000  0.5045870000000 1.0
C      1  0.5429860000000  0.5045510000000  0.4363400000000 1.0
C      1  0.5050450000000  0.4360110000000  0.5435350000000 1.0
C      1  0.5628620000000  0.4576020000000  0.5038600000000 1.0
C      1  0.4355520000000  0.4565770000000  0.4951520000000 1.0
C      1  0.5629960000000  0.5427880000000  0.4961750000000 1.0
C      1  0.4562620000000  0.4951300000000  0.4354380000000 1.0
C      1  0.5431460000000  0.4957330000000  0.5638630000000 1.0
C      1  0.4565820000000  0.5050320000000  0.5644020000000 1.0
C      1  0.4946000000000  0.5650340000000  0.5440790000000 1.0
C      1  0.5051830000000  0.5645240000000  0.4564350000000 1.0
C      1  0.4944150000000  0.4350480000000  0.4557690000000 1.0
C      1  0.5429860000000  0.4364830000000  0.5044060000000 1.0
C      1  0.5050450000000  0.5436800000000  0.4358670000000 1.0
C      1  0.4366180000000  0.5047300000000  0.5431880000000 1.0
C      1  0.4565820000000  0.5645460000000  0.5048890000000 1.0
C      1  0.4562620000000  0.4355820000000  0.4949860000000 1.0
C      1  0.5431460000000  0.5640070000000  0.4955900000000 1.0
C      1  0.4944150000000  0.4559130000000  0.4349040000000 1.0
C      1  0.4946000000000  0.5442230000000  0.5648900000000 1.0
C      1  0.5051830000000  0.4565790000000  0.5643800000000 1.0
C      1  0.5629960000000  0.4963180000000  0.5426440000000 1.0
C      1  0.5628620000000  0.5040040000000  0.4574580000000 1.0
C      1  0.4355520000000  0.4952960000000  0.4564330000000 1.0
C      1  0.5799480000000  0.5233370000000  0.4871390000000 1.0
C      1  0.5229920000000  0.4875880000000  0.5803300000000 1.0
C      1  0.4870920000000  0.5809730000000  0.5231810000000 1.0
C      1  0.4195260000000  0.4774040000000  0.4876210000000 1.0
C      1  0.5799060000000  0.4769480000000  0.5128670000000 1.0
C      1  0.4201890000000  0.5236710000000  0.5132140000000 1.0
C      1  0.4769350000000  0.5129870000000  0.5807190000000 1.0
C      1  0.5228860000000  0.5127700000000  0.4199220000000 1.0
C      1  0.4767430000000  0.4873450000000  0.4191840000000 1.0
C      1  0.5127450000000  0.4200060000000  0.5229450000000 1.0
C      1  0.4869510000000  0.4191830000000  0.4768030000000 1.0
C      1  0.5128560000000  0.5805850000000  0.4771090000000 1.0
C      1  0.5229930000000  0.5804740000000  0.4874450000000 1.0
C      1  0.4870920000000  0.5233240000000  0.5808300000000 1.0
C      1  0.5799470000000  0.4872820000000  0.5231930000000 1.0
C      1  0.4767430000000  0.4193280000000  0.4872000000000 1.0
C      1  0.4769350000000  0.5808630000000  0.5128440000000 1.0
C      1  0.5228860000000  0.4200660000000  0.5126250000000 1.0
C      1  0.5128560000000  0.4772520000000  0.5804410000000 1.0
C      1  0.5127450000000  0.5230890000000  0.4198620000000 1.0
C      1  0.4869510000000  0.4769470000000  0.4190390000000 1.0
C      1  0.4201890000000  0.5133580000000  0.5235270000000 1.0
C      1  0.4195260000000  0.4877660000000  0.4772600000000 1.0
C      1  0.5799060000000  0.5130110000000  0.4768050000000 1.0
C      1  0.5264600000000  0.5077350000000  0.4546720000000 1.0
C      1  0.5078040000000  0.4545450000000  0.5273700000000 1.0
C      1  0.4551840000000  0.5272390000000  0.5076800000000 1.0
C      1  0.4723340000000  0.4912200000000  0.4535640000000 1.0
C      1  0.5266320000000  0.4925320000000  0.5456280000000 1.0
C      1  0.4730440000000  0.5083870000000  0.5461270000000 1.0
C      1  0.4917830000000  0.5465170000000  0.5279110000000 1.0
C      1  0.5078020000000  0.5460500000000  0.4727650000000 1.0
C      1  0.4913630000000  0.4535660000000  0.4719130000000 1.0
C      1  0.5446290000000  0.4734500000000  0.5076130000000 1.0
C      1  0.4539610000000  0.4723370000000  0.4911720000000 1.0
C      1  0.5446730000000  0.5268840000000  0.4927740000000 1.0
C      1  0.5078040000000  0.5275140000000  0.4544020000000 1.0
C      1  0.4551840000000  0.5078230000000  0.5270960000000 1.0
C      1  0.5264590000000  0.4548160000000  0.5075910000000 1.0
C      1  0.4913630000000  0.4720580000000  0.4534220000000 1.0
C      1  0.4917830000000  0.5280540000000  0.5463730000000 1.0
C      1  0.5078020000000  0.4729080000000  0.5459060000000 1.0
C      1  0.5446730000000  0.4929180000000  0.5267400000000 1.0
C      1  0.5446290000000  0.5077570000000  0.4733060000000 1.0
C      1  0.4539610000000  0.4913160000000  0.4721930000000 1.0
C      1  0.4730440000000  0.5462710000000  0.5082430000000 1.0
C      1  0.4723340000000  0.4537080000000  0.4910760000000 1.0
C      1  0.5266320000000  0.5457720000000  0.4923880000000 1.0
C      1  0.5304950000000  0.5763810000000  0.5105030000000 1.0
C      1  0.5764370000000  0.5106140000000  0.5312870000000 1.0
C      1  0.5099760000000  0.5312300000000  0.5766870000000 1.0
C      1  0.4694800000000  0.4248480000000  0.5102490000000 1.0
C      1  0.5303220000000  0.4240720000000  0.4895310000000 1.0
C      1  0.4694180000000  0.5766060000000  0.4898100000000 1.0
C      1  0.4244360000000  0.4898450000000  0.5307810000000 1.0
C      1  0.5764210000000  0.4896540000000  0.4687080000000 1.0
C      1  0.4250690000000  0.5107190000000  0.4695480000000 1.0
C      1  0.4899290000000  0.4692270000000  0.5765190000000 1.0
C      1  0.5098410000000  0.4690990000000  0.4233900000000 1.0
C      1  0.4897460000000  0.5308100000000  0.4239740000000 1.0
C      1  0.5764370000000  0.5314310000000  0.5104700000000 1.0
C      1  0.5099760000000  0.5768310000000  0.5310870000000 1.0
C      1  0.5304950000000  0.5106460000000  0.5762370000000 1.0
C      1  0.4250690000000  0.4696910000000  0.5105750000000 1.0
C      1  0.4244360000000  0.5309250000000  0.4897010000000 1.0
C      1  0.5764210000000  0.4688520000000  0.4895100000000 1.0
C      1  0.4897460000000  0.4241180000000  0.5306650000000 1.0
C      1  0.4899290000000  0.5766630000000  0.4690840000000 1.0
C      1  0.5098410000000  0.4235340000000  0.4689550000000 1.0
C      1  0.4694180000000  0.4899540000000  0.5764620000000 1.0
C      1  0.4694800000000  0.5103940000000  0.4247040000000 1.0
C      1  0.5303220000000  0.4896750000000  0.4239280000000 1.0
C      1  0.5103750000000  0.4997300000000  0.4084560000000 1.0
C      1  0.4995310000000  0.4087090000000  0.5105530000000 1.0
C      1  0.4095820000000  0.5113320000000  0.5002810000000 1.0
C      1  0.4895510000000  0.5008220000000  0.4087040000000 1.0
C      1  0.5104670000000  0.5007120000000  0.5917780000000 1.0
C      1  0.4896330000000  0.4996670000000  0.5918750000000 1.0
C      1  0.5004930000000  0.5920470000000  0.5104780000000 1.0
C      1  0.4995910000000  0.5919310000000  0.4895980000000 1.0
C      1  0.5003910000000  0.4085570000000  0.4897040000000 1.0
C      1  0.5902240000000  0.4896800000000  0.4995650000000 1.0
C      1  0.4099490000000  0.4905110000000  0.5012480000000 1.0
C      1  0.5902090000000  0.5105800000000  0.5004130000000 1.0
C      1  0.4995310000000  0.5106980000000  0.4085650000000 1.0
C      1  0.4095820000000  0.5004250000000  0.5111880000000 1.0
C      1  0.5103750000000  0.4086000000000  0.4995850000000 1.0
C      1  0.5003910000000  0.4898490000000  0.4084130000000 1.0
C      1  0.5004930000000  0.5106220000000  0.5919030000000 1.0
C      1  0.4995910000000  0.4897410000000  0.5917870000000 1.0
C      1  0.5902090000000  0.5005570000000  0.5104370000000 1.0
C      1  0.5902240000000  0.4997090000000  0.4895360000000 1.0
C      1  0.4099490000000  0.5013920000000  0.4903670000000 1.0
C      1  0.4896330000000  0.5920190000000  0.4995240000000 1.0
C      1  0.4895510000000  0.4088480000000  0.5006770000000 1.0
C      1  0.5104670000000  0.5919220000000  0.5005690000000 1.0
C      1  0.5291450000000  0.4510600000000  0.5674080000000 1.0
C      1  0.4502910000000  0.5678370000000  0.5286390000000 1.0
C      1  0.5674130000000  0.5277200000000  0.4516730000000 1.0
C      1  0.4706390000000  0.5497330000000  0.5679390000000 1.0
C      1  0.5290570000000  0.5491890000000  0.4326690000000 1.0
C      1  0.4704840000000  0.4503020000000  0.4317730000000 1.0
C      1  0.5493620000000  0.4330970000000  0.5280820000000 1.0
C      1  0.4499490000000  0.4320970000000  0.4710950000000 1.0
C      1  0.5494880000000  0.5672720000000  0.4718630000000 1.0
C      1  0.4317310000000  0.4713890000000  0.4504450000000 1.0
C      1  0.5674300000000  0.4725380000000  0.5483470000000 1.0
C      1  0.4323460000000  0.5283310000000  0.5488730000000 1.0
C      1  0.4502910000000  0.5287830000000  0.5676940000000 1.0
C      1  0.5674130000000  0.4518160000000  0.5275760000000 1.0
C      1  0.5291450000000  0.5675530000000  0.4509170000000 1.0
C      1  0.5494880000000  0.4720070000000  0.5671280000000 1.0
C      1  0.5493620000000  0.5282270000000  0.4329540000000 1.0
C      1  0.4499490000000  0.4712390000000  0.4319530000000 1.0
C      1  0.4323460000000  0.5490160000000  0.5281880000000 1.0
C      1  0.4317310000000  0.4505890000000  0.4712440000000 1.0
C      1  0.5674310000000  0.5484910000000  0.4723950000000 1.0
C      1  0.4704840000000  0.4319170000000  0.4501570000000 1.0
C      1  0.4706390000000  0.5680820000000  0.5495900000000 1.0
C      1  0.5290570000000  0.4328120000000  0.5490450000000 1.0
C      1  0.5348590000000  0.4543570000000  0.4437980000000 1.0
C      1  0.4548240000000  0.4442550000000  0.5347640000000 1.0
C      1  0.4443880000000  0.5349160000000  0.4546030000000 1.0
C      1  0.4646900000000  0.5451490000000  0.4440320000000 1.0
C      1  0.5350700000000  0.5458570000000  0.5560810000000 1.0
C      1  0.4646980000000  0.4544590000000  0.5556280000000 1.0
C      1  0.5450790000000  0.5559450000000  0.5354570000000 1.0
C      1  0.4547130000000  0.5556840000000  0.4645220000000 1.0
C      1  0.5449130000000  0.4442380000000  0.4644680000000 1.0
C      1  0.5555020000000  0.4643960000000  0.4541880000000 1.0
C      1  0.4444430000000  0.4646970000000  0.5449260000000 1.0
C      1  0.5557240000000  0.5358330000000  0.5457290000000 1.0
C      1  0.4548240000000  0.5349080000000  0.4441110000000 1.0
C      1  0.4443880000000  0.4547460000000  0.5347710000000 1.0
C      1  0.5348580000000  0.4439430000000  0.4542130000000 1.0
C      1  0.5449130000000  0.4646120000000  0.4440940000000 1.0
C      1  0.5450790000000  0.5356010000000  0.5558010000000 1.0
C      1  0.4547130000000  0.4646650000000  0.5555390000000 1.0
C      1  0.5557240000000  0.5458720000000  0.5356900000000 1.0
C      1  0.5555020000000  0.4543320000000  0.4642520000000 1.0
C      1  0.4444430000000  0.5450700000000  0.4645540000000 1.0
C      1  0.4646980000000  0.5557720000000  0.4543150000000 1.0
C      1  0.4646890000000  0.4441760000000  0.5450040000000 1.0
C      1  0.5350700000000  0.5562250000000  0.5457130000000 1.0
C      1  0.5226620000000  0.5334500000000  0.4869580000000 1.0
C      1  0.5323500000000  0.4873350000000  0.5230850000000 1.0
C      1  0.4868060000000  0.5240780000000  0.5339190000000 1.0
C      1  0.4763550000000  0.4661090000000  0.4859450000000 1.0
C      1  0.5225610000000  0.4671370000000  0.5131030000000 1.0
C      1  0.4770360000000  0.5339230000000  0.5136600000000 1.0
C      1  0.4674540000000  0.5135350000000  0.5234780000000 1.0
C      1  0.5323320000000  0.5131410000000  0.4771450000000 1.0
C      1  0.4664190000000  0.4861140000000  0.4759730000000 1.0
C      1  0.5128110000000  0.4769020000000  0.5334430000000 1.0
C      1  0.4862710000000  0.4759770000000  0.4658560000000 1.0
C      1  0.5127980000000  0.5235310000000  0.4668490000000 1.0
C      1  0.5323500000000  0.5232290000000  0.4871910000000 1.0
C      1  0.4868060000000  0.5340630000000  0.5239340000000 1.0
C      1  0.5226620000000  0.4871020000000  0.5333060000000 1.0
C      1  0.4664190000000  0.4761170000000  0.4859700000000 1.0
C      1  0.4674540000000  0.5236210000000  0.5133910000000 1.0
C      1  0.5323310000000  0.4772890000000  0.5129970000000 1.0
C      1  0.5127980000000  0.4669930000000  0.5233870000000 1.0
C      1  0.5128110000000  0.5335870000000  0.4767580000000 1.0
C      1  0.4862710000000  0.4660000000000  0.4758330000000 1.0
C      1  0.4770360000000  0.5138040000000  0.5337790000000 1.0
C      1  0.4763550000000  0.4860900000000  0.4659650000000 1.0
C      1  0.5225610000000  0.5132480000000  0.4669930000000 1.0
C      1  0.4304190000000  0.4680540000000  0.4859990000000 1.0
C      1  0.4675450000000  0.4858200000000  0.4302140000000 1.0
C      1  0.4854530000000  0.4301600000000  0.4674540000000 1.0
C      1  0.5676860000000  0.5310190000000  0.4872110000000 1.0
C      1  0.4322320000000  0.5315210000000  0.5133630000000 1.0
C      1  0.5675970000000  0.4693530000000  0.5128040000000 1.0
C      1  0.5315950000000  0.5136950000000  0.4314560000000 1.0
C      1  0.4679790000000  0.5141950000000  0.5694000000000 1.0
C      1  0.5317620000000  0.4865750000000  0.5688300000000 1.0
C      1  0.5140550000000  0.5692340000000  0.4681830000000 1.0
C      1  0.4857150000000  0.5698050000000  0.5323270000000 1.0
C      1  0.5139250000000  0.4313650000000  0.5318050000000 1.0
C      1  0.4675450000000  0.4303580000000  0.4856750000000 1.0
C      1  0.4854530000000  0.4675990000000  0.4300160000000 1.0
C      1  0.4304190000000  0.4861430000000  0.4679100000000 1.0
C      1  0.5317620000000  0.5689740000000  0.4864310000000 1.0
C      1  0.5315950000000  0.4316000000000  0.5135510000000 1.0
C      1  0.4679790000000  0.5695430000000  0.5140510000000 1.0
C      1  0.5139250000000  0.5319490000000  0.4312220000000 1.0
C      1  0.5140550000000  0.4683260000000  0.5690900000000 1.0
C      1  0.4857150000000  0.5324700000000  0.5696610000000 1.0
C      1  0.5675970000000  0.5129480000000  0.4692090000000 1.0
C      1  0.5676860000000  0.4873550000000  0.5308750000000 1.0
C      1  0.4322320000000  0.5135070000000  0.5313770000000 1.0
C      1  0.5159550000000  0.4465440000000  0.5632850000000 1.0
C      1  0.4462680000000  0.5634720000000  0.5154030000000 1.0
C      1  0.5627050000000  0.5147730000000  0.4472580000000 1.0
C      1  0.4838160000000  0.5542670000000  0.5637830000000 1.0
C      1  0.5158810000000  0.5537200000000  0.4368140000000 1.0
C      1  0.4836680000000  0.4458260000000  0.4360160000000 1.0
C      1  0.5533610000000  0.4374730000000  0.5148630000000 1.0
C      1  0.4458460000000  0.4365450000000  0.4843880000000 1.0
C      1  0.5534770000000  0.5629150000000  0.4851100000000 1.0
C      1  0.4362470000000  0.4846000000000  0.4461190000000 1.0
C      1  0.5627570000000  0.4855030000000  0.5527860000000 1.0
C      1  0.4369330000000  0.5153870000000  0.5533840000000 1.0
C      1  0.4462680000000  0.5155470000000  0.5633280000000 1.0
C      1  0.5627050000000  0.4474020000000  0.5146280000000 1.0
C      1  0.5159550000000  0.5634290000000  0.4464010000000 1.0
C      1  0.5534770000000  0.4852530000000  0.5627710000000 1.0
C      1  0.5533610000000  0.5150080000000  0.4373290000000 1.0
C      1  0.4458460000000  0.4845330000000  0.4364010000000 1.0
C      1  0.4369330000000  0.5535280000000  0.5152440000000 1.0
C      1  0.4362470000000  0.4462630000000  0.4844560000000 1.0
C      1  0.5627570000000  0.5529300000000  0.4853590000000 1.0
C      1  0.4836680000000  0.4361610000000  0.4456820000000 1.0
C      1  0.4838160000000  0.5639270000000  0.5541240000000 1.0
C      1  0.5158810000000  0.4369580000000  0.5535760000000 1.0
C      1  0.5442810000000  0.4766200000000  0.4764760000000 1.0
C      1  0.4618970000000  0.4616610000000  0.5206310000000 1.0
C      1  0.4618970000000  0.5207750000000  0.4615170000000 1.0
C      1  0.5446810000000  0.5258610000000  0.5257170000000 1.0
END
