TITL C-1379266-1300-5 4.07171460419429e-06 1000000 -3518.91026939392 0 0 500 (C3) n - 1
REM
REM in /nfs/bkarasulu/CARBON/AIRSS/Generating-Clusters/GAP-ML-2020/Higher-Symm/Selected-Sizes/TryA-Only_Ih-Symm/Larger-Clusters/Try2-MINAMP_6A
REM
REM
REM
REM
REM
REM ./C.cell (31579ac4e95a012ec27f3239692ae8a5)
REM
REM compiler GCC version 9.2.1 20190827 (Red Hat 9.2.1-1)
REM options -cpp -mtune=generic -march=x86-64 -g -O0 -fpre-include=/usr/include/finclude/math-vector-fortran.h
REM seed -805960525 666469950 -1736261308 1578644354 -254832580 1280366375 1729282038 2095816889 398823896 1523953660 -1428546885 -809906305 427652201 -433729428 197815599 -2055779546 1607229841 -1010655803 -991874338 -1244365157 -444857218 1389953902 705764684 632710235 1174226469 123616798 532473910 -1818447672 -230933095 -1209273508 -786063281 -315048371 -1509931010
REM
CELL 1.54180  100.00000  100.00000  100.00000   90.00000   90.00000   90.00000
LATT -1
SFAC C  
C      1  0.4478230000000  0.5207500000000  0.4925470000000 1.0
C      1  0.5206280000000  0.4927730000000  0.4481720000000 1.0
C      1  0.4930390000000  0.4479600000000  0.5199570000000 1.0
C      1  0.5516800000000  0.5204570000000  0.5069080000000 1.0
C      1  0.5514730000000  0.4792590000000  0.4925430000000 1.0
C      1  0.4481320000000  0.4797240000000  0.5068140000000 1.0
C      1  0.4798960000000  0.4928670000000  0.5517210000000 1.0
C      1  0.4794300000000  0.5071370000000  0.4483800000000 1.0
C      1  0.5209220000000  0.5071340000000  0.5520290000000 1.0
C      1  0.5073060000000  0.4476520000000  0.4789310000000 1.0
C      1  0.5073090000000  0.5513010000000  0.5204220000000 1.0
C      1  0.4929440000000  0.5515090000000  0.4792240000000 1.0
C      1  0.4481250000000  0.4793930000000  0.4924970000000 1.0
C      1  0.5209230000000  0.5071160000000  0.4481760000000 1.0
C      1  0.4930020000000  0.5513550000000  0.5201100000000 1.0
C      1  0.5515270000000  0.4795710000000  0.5068510000000 1.0
C      1  0.5516770000000  0.5207510000000  0.4925650000000 1.0
C      1  0.4478690000000  0.5204380000000  0.5069060000000 1.0
C      1  0.4795640000000  0.5071840000000  0.5517280000000 1.0
C      1  0.4797430000000  0.4928300000000  0.4483260000000 1.0
C      1  0.5206100000000  0.4927750000000  0.5519830000000 1.0
C      1  0.5072880000000  0.5515050000000  0.4789300000000 1.0
C      1  0.5073560000000  0.4479530000000  0.5202880000000 1.0
C      1  0.4929470000000  0.4476980000000  0.4792430000000 1.0
C      1  0.4729960000000  0.4427930000000  0.5063470000000 1.0
C      1  0.4415070000000  0.5071730000000  0.4727690000000 1.0
C      1  0.5072820000000  0.4723420000000  0.4416950000000 1.0
C      1  0.5270840000000  0.4413360000000  0.4925080000000 1.0
C      1  0.5267290000000  0.5570460000000  0.5064790000000 1.0
C      1  0.4725130000000  0.5579860000000  0.4925710000000 1.0
C      1  0.5581580000000  0.5071100000000  0.5273390000000 1.0
C      1  0.5572180000000  0.4932020000000  0.4731230000000 1.0
C      1  0.4429640000000  0.4933330000000  0.5268570000000 1.0
C      1  0.4935050000000  0.4728240000000  0.5568880000000 1.0
C      1  0.4933740000000  0.5265580000000  0.4426350000000 1.0
C      1  0.5073450000000  0.5269120000000  0.5583450000000 1.0
C      1  0.4729050000000  0.5568890000000  0.5064410000000 1.0
C      1  0.4427170000000  0.4932830000000  0.4731470000000 1.0
C      1  0.5072780000000  0.5269230000000  0.4414800000000 1.0
C      1  0.5270950000000  0.5582010000000  0.4925740000000 1.0
C      1  0.5267060000000  0.4425450000000  0.5063980000000 1.0
C      1  0.4725960000000  0.4416510000000  0.4924850000000 1.0
C      1  0.5570610000000  0.4932410000000  0.5269470000000 1.0
C      1  0.5583730000000  0.5071070000000  0.4727580000000 1.0
C      1  0.4418230000000  0.5071950000000  0.5272570000000 1.0
C      1  0.4934540000000  0.5265330000000  0.5571360000000 1.0
C      1  0.4934120000000  0.4727340000000  0.4427920000000 1.0
C      1  0.5073670000000  0.4724240000000  0.5580300000000 1.0
C      1  0.4260760000000  0.5482900000000  0.4935410000000 1.0
C      1  0.5483350000000  0.4918840000000  0.4264190000000 1.0
C      1  0.4921610000000  0.4257420000000  0.5465650000000 1.0
C      1  0.5734330000000  0.5481640000000  0.5077970000000 1.0
C      1  0.5734620000000  0.4526130000000  0.4936510000000 1.0
C      1  0.4259140000000  0.4531150000000  0.5076920000000 1.0
C      1  0.4532870000000  0.4919880000000  0.5739380000000 1.0
C      1  0.4527840000000  0.5060300000000  0.4263910000000 1.0
C      1  0.5484620000000  0.5061400000000  0.5737760000000 1.0
C      1  0.5063120000000  0.4259050000000  0.4513910000000 1.0
C      1  0.5062010000000  0.5732900000000  0.5470690000000 1.0
C      1  0.4920550000000  0.5732610000000  0.4515170000000 1.0
C      1  0.4260140000000  0.4528700000000  0.4935510000000 1.0
C      1  0.5485700000000  0.5060480000000  0.4265410000000 1.0
C      1  0.4920570000000  0.5734570000000  0.5468640000000 1.0
C      1  0.5736290000000  0.4528180000000  0.5077950000000 1.0
C      1  0.5733110000000  0.5483990000000  0.4936330000000 1.0
C      1  0.4260170000000  0.5480300000000  0.5077030000000 1.0
C      1  0.4530420000000  0.5061290000000  0.5738390000000 1.0
C      1  0.4529890000000  0.4918860000000  0.4262240000000 1.0
C      1  0.5482020000000  0.4919780000000  0.5738350000000 1.0
C      1  0.5062190000000  0.5731400000000  0.4512830000000 1.0
C      1  0.5063020000000  0.4258420000000  0.5468100000000 1.0
C      1  0.4921500000000  0.4258460000000  0.4516510000000 1.0
C      1  0.4861560000000  0.4843020000000  0.4138760000000 1.0
C      1  0.4849570000000  0.4129480000000  0.4844460000000 1.0
C      1  0.4136120000000  0.4859800000000  0.4847530000000 1.0
C      1  0.5154060000000  0.4847850000000  0.5867320000000 1.0
C      1  0.5157700000000  0.5140790000000  0.4132240000000 1.0
C      1  0.4861520000000  0.5149280000000  0.5862410000000 1.0
C      1  0.5151000000000  0.4134400000000  0.5137010000000 1.0
C      1  0.5142510000000  0.5864560000000  0.4840830000000 1.0
C      1  0.4844740000000  0.5858050000000  0.5136970000000 1.0
C      1  0.5859770000000  0.4859840000000  0.5153790000000 1.0
C      1  0.5866280000000  0.5155990000000  0.4856020000000 1.0
C      1  0.4131200000000  0.5152340000000  0.5148960000000 1.0
C      1  0.4858940000000  0.5147390000000  0.4137400000000 1.0
C      1  0.4849960000000  0.5863130000000  0.4843610000000 1.0
C      1  0.4129520000000  0.5154990000000  0.4855260000000 1.0
C      1  0.5156700000000  0.5141550000000  0.5869010000000 1.0
C      1  0.5154920000000  0.4848250000000  0.4133680000000 1.0
C      1  0.4864180000000  0.4841280000000  0.5860590000000 1.0
C      1  0.5149100000000  0.5859410000000  0.5139590000000 1.0
C      1  0.5143270000000  0.4127800000000  0.4841820000000 1.0
C      1  0.4843010000000  0.4136220000000  0.5134350000000 1.0
C      1  0.5864850000000  0.5153210000000  0.5148560000000 1.0
C      1  0.5861130000000  0.4857230000000  0.4849420000000 1.0
C      1  0.4137940000000  0.4862450000000  0.5155520000000 1.0
C      1  0.4222440000000  0.4846250000000  0.5420400000000 1.0
C      1  0.4842910000000  0.5410210000000  0.4219870000000 1.0
C      1  0.5406930000000  0.4189760000000  0.4812220000000 1.0
C      1  0.5778650000000  0.4841200000000  0.4586600000000 1.0
C      1  0.5806810000000  0.5186720000000  0.5412590000000 1.0
C      1  0.4191470000000  0.5184580000000  0.4591600000000 1.0
C      1  0.5186300000000  0.5405210000000  0.5807050000000 1.0
C      1  0.5188440000000  0.4584220000000  0.4191710000000 1.0
C      1  0.4847970000000  0.4576400000000  0.5776080000000 1.0
C      1  0.4578120000000  0.4220720000000  0.5150560000000 1.0
C      1  0.4585930000000  0.5805090000000  0.4810090000000 1.0
C      1  0.5411920000000  0.5776940000000  0.5155610000000 1.0
C      1  0.4192810000000  0.5183380000000  0.5413700000000 1.0
C      1  0.4845680000000  0.4578850000000  0.4219460000000 1.0
C      1  0.5405330000000  0.5805420000000  0.4809130000000 1.0
C      1  0.5807130000000  0.5187690000000  0.4593200000000 1.0
C      1  0.5779060000000  0.4843970000000  0.5417960000000 1.0
C      1  0.4221650000000  0.4843630000000  0.4583660000000 1.0
C      1  0.5185100000000  0.4583110000000  0.5805710000000 1.0
C      1  0.5189400000000  0.5403620000000  0.4191390000000 1.0
C      1  0.4845350000000  0.5413150000000  0.5776880000000 1.0
C      1  0.4580560000000  0.5777340000000  0.5152850000000 1.0
C      1  0.4584830000000  0.4191090000000  0.4813420000000 1.0
C      1  0.5414870000000  0.4219940000000  0.5153180000000 1.0
C      1  0.5345800000000  0.5069980000000  0.5470290000000 1.0
C      1  0.5071660000000  0.5465080000000  0.5342200000000 1.0
C      1  0.5465880000000  0.5339900000000  0.5071180000000 1.0
C      1  0.4656320000000  0.5069940000000  0.4531720000000 1.0
C      1  0.4663350000000  0.4926720000000  0.5467460000000 1.0
C      1  0.5341610000000  0.4925630000000  0.4532640000000 1.0
C      1  0.4927340000000  0.5464170000000  0.4656910000000 1.0
C      1  0.4928440000000  0.4529350000000  0.5335170000000 1.0
C      1  0.5071700000000  0.4526520000000  0.4652730000000 1.0
C      1  0.4528240000000  0.5344080000000  0.4926830000000 1.0
C      1  0.4531070000000  0.4661630000000  0.5070080000000 1.0
C      1  0.5466800000000  0.4654610000000  0.4926870000000 1.0
C      1  0.5340910000000  0.4926100000000  0.5468400000000 1.0
C      1  0.5072490000000  0.4527720000000  0.5340360000000 1.0
C      1  0.5465790000000  0.4659730000000  0.5070890000000 1.0
C      1  0.4661450000000  0.4925920000000  0.4532740000000 1.0
C      1  0.4658170000000  0.5070760000000  0.5469090000000 1.0
C      1  0.5346480000000  0.5069450000000  0.4531250000000 1.0
C      1  0.4927820000000  0.4528410000000  0.4657610000000 1.0
C      1  0.4927630000000  0.5464070000000  0.5337080000000 1.0
C      1  0.5071160000000  0.5465560000000  0.4652040000000 1.0
C      1  0.4529440000000  0.4656450000000  0.4926040000000 1.0
C      1  0.4530130000000  0.5339190000000  0.5070710000000 1.0
C      1  0.5467280000000  0.5344770000000  0.4927360000000 1.0
C      1  0.5556220000000  0.5100800000000  0.5617160000000 1.0
C      1  0.5100410000000  0.5614640000000  0.5548450000000 1.0
C      1  0.5612240000000  0.5545800000000  0.5121180000000 1.0
C      1  0.4450080000000  0.5098700000000  0.4382170000000 1.0
C      1  0.4461760000000  0.4877640000000  0.5619780000000 1.0
C      1  0.5547520000000  0.4875630000000  0.4386290000000 1.0
C      1  0.4877340000000  0.5610520000000  0.4451010000000 1.0
C      1  0.4879370000000  0.4377030000000  0.5536770000000 1.0
C      1  0.5102520000000  0.4379660000000  0.4442310000000 1.0
C      1  0.4381370000000  0.5554500000000  0.4896010000000 1.0
C      1  0.4378750000000  0.4460040000000  0.5119160000000 1.0
C      1  0.5616360000000  0.4448370000000  0.4898110000000 1.0
C      1  0.5546490000000  0.4877060000000  0.5616330000000 1.0
C      1  0.5101500000000  0.4376370000000  0.5546310000000 1.0
C      1  0.5616480000000  0.4457460000000  0.5120710000000 1.0
C      1  0.4459170000000  0.4876100000000  0.4382050000000 1.0
C      1  0.4452210000000  0.5099780000000  0.5620440000000 1.0
C      1  0.5556990000000  0.5099650000000  0.4386260000000 1.0
C      1  0.4878780000000  0.4380480000000  0.4452030000000 1.0
C      1  0.4877810000000  0.5614760000000  0.5539360000000 1.0
C      1  0.5101360000000  0.5610550000000  0.4441540000000 1.0
C      1  0.4378090000000  0.4450500000000  0.4897020000000 1.0
C      1  0.4382190000000  0.5544770000000  0.5119750000000 1.0
C      1  0.5612260000000  0.5555280000000  0.4897170000000 1.0
C      1  0.4210230000000  0.5368390000000  0.4872610000000 1.0
C      1  0.5368330000000  0.4859740000000  0.4211990000000 1.0
C      1  0.4861160000000  0.4206760000000  0.5349530000000 1.0
C      1  0.5786530000000  0.5366620000000  0.5137070000000 1.0
C      1  0.5784790000000  0.4641450000000  0.4872450000000 1.0
C      1  0.4208480000000  0.4647280000000  0.5137370000000 1.0
C      1  0.4649000000000  0.4859430000000  0.5790050000000 1.0
C      1  0.4643160000000  0.5124360000000  0.4213740000000 1.0
C      1  0.5370110000000  0.5124200000000  0.5788290000000 1.0
C      1  0.5125920000000  0.4208520000000  0.4628410000000 1.0
C      1  0.5126070000000  0.5783070000000  0.5355370000000 1.0
C      1  0.4861450000000  0.5784820000000  0.4630200000000 1.0
C      1  0.4210410000000  0.4644080000000  0.4871330000000 1.0
C      1  0.5371310000000  0.5123350000000  0.4214480000000 1.0
C      1  0.4860800000000  0.5786040000000  0.5352460000000 1.0
C      1  0.5787760000000  0.4644350000000  0.5137720000000 1.0
C      1  0.5784050000000  0.5369600000000  0.4873460000000 1.0
C      1  0.4208580000000  0.5365330000000  0.5136640000000 1.0
C      1  0.4645800000000  0.5125470000000  0.5788120000000 1.0
C      1  0.4646070000000  0.4859080000000  0.4210770000000 1.0
C      1  0.5367050000000  0.4860170000000  0.5789940000000 1.0
C      1  0.5125060000000  0.5782330000000  0.4627220000000 1.0
C      1  0.5127200000000  0.4208690000000  0.5352720000000 1.0
C      1  0.4861890000000  0.4206870000000  0.4631470000000 1.0
C      1  0.4448880000000  0.4487200000000  0.4561920000000 1.0
C      1  0.4491720000000  0.4560980000000  0.4452380000000 1.0
C      1  0.4561980000000  0.4447630000000  0.4492280000000 1.0
C      1  0.5546150000000  0.4490010000000  0.5435820000000 1.0
C      1  0.5549270000000  0.5511420000000  0.4560440000000 1.0
C      1  0.4449340000000  0.5504520000000  0.5436550000000 1.0
C      1  0.5506250000000  0.4560260000000  0.5549180000000 1.0
C      1  0.5513130000000  0.5436370000000  0.4449250000000 1.0
C      1  0.4488920000000  0.5434890000000  0.5549650000000 1.0
C      1  0.5436610000000  0.4447160000000  0.5509600000000 1.0
C      1  0.5438090000000  0.5547560000000  0.4485390000000 1.0
C      1  0.4562700000000  0.5544420000000  0.5506810000000 1.0
C      1  0.4446670000000  0.5509160000000  0.4560170000000 1.0
C      1  0.4486380000000  0.5434480000000  0.4450300000000 1.0
C      1  0.4560870000000  0.5545310000000  0.4490020000000 1.0
C      1  0.5547030000000  0.5506790000000  0.5437650000000 1.0
C      1  0.5548230000000  0.4484670000000  0.4562330000000 1.0
C      1  0.4451730000000  0.4493210000000  0.5434470000000 1.0
C      1  0.5510880000000  0.5436640000000  0.5551850000000 1.0
C      1  0.5508510000000  0.4559160000000  0.4451500000000 1.0
C      1  0.4494930000000  0.4562330000000  0.5546800000000 1.0
C      1  0.5436190000000  0.5546510000000  0.5512140000000 1.0
C      1  0.5438360000000  0.4444960000000  0.4487650000000 1.0
C      1  0.4564050000000  0.4450000000000  0.5503590000000 1.0
C      1  0.4369010000000  0.5151000000000  0.4845270000000 1.0
C      1  0.5151040000000  0.4843450000000  0.4373390000000 1.0
C      1  0.4847000000000  0.4374730000000  0.5139080000000 1.0
C      1  0.5625140000000  0.5149320000000  0.5153370000000 1.0
C      1  0.5622460000000  0.4855610000000  0.4847920000000 1.0
C      1  0.4376450000000  0.4857730000000  0.5151520000000 1.0
C      1  0.4859450000000  0.4845280000000  0.5622070000000 1.0
C      1  0.4857320000000  0.5148890000000  0.4376060000000 1.0
C      1  0.5152710000000  0.5151540000000  0.5629520000000 1.0
C      1  0.5153260000000  0.4367290000000  0.4845810000000 1.0
C      1  0.5150610000000  0.5620740000000  0.5141210000000 1.0
C      1  0.4845160000000  0.5623420000000  0.4847490000000 1.0
C      1  0.4374190000000  0.4856290000000  0.4846870000000 1.0
C      1  0.5151970000000  0.5150390000000  0.4371690000000 1.0
C      1  0.4847470000000  0.5619260000000  0.5139830000000 1.0
C      1  0.5620980000000  0.4856990000000  0.5151050000000 1.0
C      1  0.5626830000000  0.5150260000000  0.4846430000000 1.0
C      1  0.4371220000000  0.5150100000000  0.5154120000000 1.0
C      1  0.4858000000000  0.5149930000000  0.5624330000000 1.0
C      1  0.4858700000000  0.4845760000000  0.4377550000000 1.0
C      1  0.5151820000000  0.4842690000000  0.5627310000000 1.0
C      1  0.5152100000000  0.5625120000000  0.4846550000000 1.0
C      1  0.5151650000000  0.4372480000000  0.5140520000000 1.0
C      1  0.4844410000000  0.4369500000000  0.4846710000000 1.0
C      1  0.5280160000000  0.4185270000000  0.5176530000000 1.0
C      1  0.4178570000000  0.5196290000000  0.5276210000000 1.0
C      1  0.5204100000000  0.5267130000000  0.4177850000000 1.0
C      1  0.4722320000000  0.4176850000000  0.4800520000000 1.0
C      1  0.4716190000000  0.5805990000000  0.5174500000000 1.0
C      1  0.5268840000000  0.5818960000000  0.4794430000000 1.0
C      1  0.5820680000000  0.5202390000000  0.4729680000000 1.0
C      1  0.5807710000000  0.4822310000000  0.5282330000000 1.0
C      1  0.4186990000000  0.4820270000000  0.4718370000000 1.0
C      1  0.4821990000000  0.5278440000000  0.5811540000000 1.0
C      1  0.4824030000000  0.4714480000000  0.4190810000000 1.0
C      1  0.5198010000000  0.4720600000000  0.5819960000000 1.0
C      1  0.5277560000000  0.5808750000000  0.5179210000000 1.0
C      1  0.4190430000000  0.4824550000000  0.5284540000000 1.0
C      1  0.5199110000000  0.4721630000000  0.4181160000000 1.0
C      1  0.4723340000000  0.5815640000000  0.4799420000000 1.0
C      1  0.4713980000000  0.4188710000000  0.5172250000000 1.0
C      1  0.5270340000000  0.4173200000000  0.4795940000000 1.0
C      1  0.5810470000000  0.4817610000000  0.4720960000000 1.0
C      1  0.5817360000000  0.5197390000000  0.5275180000000 1.0
C      1  0.4174910000000  0.5200860000000  0.4728190000000 1.0
C      1  0.4826270000000  0.4712260000000  0.5808100000000 1.0
C      1  0.4819320000000  0.5275850000000  0.4188060000000 1.0
C      1  0.5202580000000  0.5268620000000  0.5823610000000 1.0
C      1  0.5422200000000  0.5314450000000  0.5520130000000 1.0
C      1  0.5314520000000  0.5511980000000  0.5423140000000 1.0
C      1  0.5509840000000  0.5412350000000  0.5320970000000 1.0
C      1  0.4575380000000  0.5312800000000  0.4484830000000 1.0
C      1  0.4588430000000  0.4680890000000  0.5510660000000 1.0
C      1  0.5414060000000  0.4675840000000  0.4488680000000 1.0
C      1  0.4677550000000  0.5508120000000  0.4584470000000 1.0
C      1  0.4682610000000  0.4486150000000  0.5410090000000 1.0
C      1  0.5316170000000  0.4476680000000  0.4576320000000 1.0
C      1  0.4478390000000  0.5420490000000  0.4682360000000 1.0
C      1  0.4487870000000  0.4586710000000  0.5315910000000 1.0
C      1  0.5513700000000  0.4573670000000  0.4684000000000 1.0
C      1  0.5412500000000  0.4677810000000  0.5513650000000 1.0
C      1  0.5314090000000  0.4479250000000  0.5420520000000 1.0
C      1  0.5507900000000  0.4583820000000  0.5318000000000 1.0
C      1  0.4585540000000  0.4678810000000  0.4490620000000 1.0
C      1  0.4578000000000  0.5312370000000  0.5517560000000 1.0
C      1  0.5423880000000  0.5315160000000  0.4482880000000 1.0
C      1  0.4679530000000  0.4483160000000  0.4586030000000 1.0
C      1  0.4680520000000  0.5506180000000  0.5412990000000 1.0
C      1  0.5316880000000  0.5513930000000  0.4574650000000 1.0
C      1  0.4480970000000  0.4576290000000  0.4684440000000 1.0
C      1  0.4484880000000  0.5410770000000  0.5319000000000 1.0
C      1  0.5515650000000  0.5422170000000  0.4681650000000 1.0
C      1  0.5155270000000  0.5386630000000  0.5563710000000 1.0
C      1  0.5379160000000  0.5544460000000  0.5154940000000 1.0
C      1  0.5564010000000  0.5154160000000  0.5391190000000 1.0
C      1  0.4843590000000  0.5377450000000  0.4452350000000 1.0
C      1  0.4849810000000  0.4612630000000  0.5544480000000 1.0
C      1  0.5155880000000  0.4605620000000  0.4434520000000 1.0
C      1  0.4607330000000  0.5562290000000  0.4842650000000 1.0
C      1  0.4614350000000  0.4452330000000  0.5148710000000 1.0
C      1  0.5388360000000  0.4433100000000  0.4843250000000 1.0
C      1  0.4434820000000  0.5153550000000  0.4610170000000 1.0
C      1  0.4454050000000  0.4848090000000  0.5384170000000 1.0
C      1  0.5546170000000  0.4841880000000  0.4619360000000 1.0
C      1  0.5153650000000  0.4604810000000  0.5562490000000 1.0
C      1  0.5380840000000  0.4451560000000  0.5150910000000 1.0
C      1  0.5546620000000  0.4843820000000  0.5383190000000 1.0
C      1  0.4845540000000  0.4613620000000  0.4451910000000 1.0
C      1  0.4847610000000  0.5379120000000  0.5545260000000 1.0
C      1  0.5157290000000  0.5385180000000  0.4434520000000 1.0
C      1  0.4606530000000  0.4434320000000  0.4844880000000 1.0
C      1  0.4615340000000  0.5544900000000  0.5152990000000 1.0
C      1  0.5386890000000  0.5562290000000  0.4841240000000 1.0
C      1  0.4453270000000  0.4845890000000  0.4617690000000 1.0
C      1  0.4436030000000  0.5151930000000  0.5392000000000 1.0
C      1  0.5564010000000  0.5155580000000  0.4611640000000 1.0
C      1  0.5279800000000  0.4771570000000  0.5708120000000 1.0
C      1  0.4773680000000  0.5701800000000  0.5267480000000 1.0
C      1  0.5706490000000  0.5282840000000  0.4780300000000 1.0
C      1  0.4731050000000  0.4771960000000  0.4295000000000 1.0
C      1  0.4727490000000  0.5220120000000  0.5708460000000 1.0
C      1  0.5284560000000  0.5216520000000  0.4292040000000 1.0
C      1  0.5218230000000  0.5704770000000  0.4713970000000 1.0
C      1  0.5221840000000  0.4288350000000  0.5271030000000 1.0
C      1  0.4773290000000  0.4288690000000  0.4718720000000 1.0
C      1  0.4290410000000  0.5278080000000  0.5225240000000 1.0
C      1  0.4290070000000  0.4725780000000  0.4776690000000 1.0
C      1  0.5703520000000  0.4729340000000  0.5224850000000 1.0
C      1  0.5284280000000  0.5218070000000  0.5710650000000 1.0
C      1  0.4772420000000  0.4290950000000  0.5266020000000 1.0
C      1  0.5705210000000  0.4724340000000  0.4778830000000 1.0
C      1  0.4726050000000  0.5217980000000  0.4293320000000 1.0
C      1  0.4732500000000  0.4770700000000  0.5705860000000 1.0
C      1  0.5279900000000  0.4772420000000  0.4293990000000 1.0
C      1  0.5219790000000  0.4286160000000  0.4714240000000 1.0
C      1  0.5219700000000  0.5703490000000  0.5272480000000 1.0
C      1  0.4774130000000  0.5702820000000  0.4718630000000 1.0
C      1  0.4292670000000  0.4730780000000  0.5226110000000 1.0
C      1  0.4287870000000  0.5282570000000  0.4778740000000 1.0
C      1  0.5704530000000  0.5278180000000  0.5224390000000 1.0
C      1  0.5323970000000  0.4662230000000  0.5627650000000 1.0
C      1  0.4670350000000  0.5615430000000  0.5315850000000 1.0
C      1  0.5626800000000  0.5327350000000  0.4670190000000 1.0
C      1  0.4682680000000  0.4668630000000  0.4381380000000 1.0
C      1  0.4676720000000  0.5323540000000  0.5624050000000 1.0
C      1  0.5329060000000  0.5326630000000  0.4371720000000 1.0
C      1  0.5328340000000  0.5625090000000  0.4669470000000 1.0
C      1  0.5325270000000  0.4372760000000  0.5321800000000 1.0
C      1  0.4663950000000  0.4369160000000  0.4674560000000 1.0
C      1  0.4370880000000  0.5322250000000  0.5334580000000 1.0
C      1  0.4374480000000  0.4675000000000  0.4673260000000 1.0
C      1  0.5617150000000  0.4680970000000  0.5328170000000 1.0
C      1  0.5329480000000  0.5327930000000  0.5631340000000 1.0
C      1  0.4669580000000  0.4376610000000  0.5315620000000 1.0
C      1  0.5620280000000  0.4674360000000  0.4674950000000 1.0
C      1  0.4676070000000  0.5321860000000  0.4378240000000 1.0
C      1  0.4682900000000  0.4667850000000  0.5620190000000 1.0
C      1  0.5322990000000  0.4662700000000  0.4374860000000 1.0
C      1  0.5329650000000  0.4365480000000  0.4669050000000 1.0
C      1  0.5323570000000  0.5618570000000  0.5322460000000 1.0
C      1  0.4664410000000  0.5621940000000  0.4675540000000 1.0
C      1  0.4378330000000  0.4681180000000  0.5328950000000 1.0
C      1  0.4367190000000  0.5327760000000  0.4668880000000 1.0
C      1  0.5623660000000  0.5321270000000  0.5334120000000 1.0
C      1  0.4925350000000  0.5873350000000  0.5258520000000 1.0
C      1  0.5876820000000  0.5277560000000  0.4934660000000 1.0
C      1  0.5276160000000  0.4924470000000  0.5880420000000 1.0
C      1  0.5063860000000  0.5875110000000  0.4719260000000 1.0
C      1  0.5066170000000  0.4120780000000  0.5256720000000 1.0
C      1  0.4926200000000  0.4116390000000  0.4722360000000 1.0
C      1  0.4118100000000  0.5274440000000  0.5072330000000 1.0
C      1  0.4122500000000  0.4740090000000  0.4932360000000 1.0
C      1  0.5875070000000  0.4738290000000  0.5073170000000 1.0
C      1  0.4740000000000  0.4923630000000  0.4123450000000 1.0
C      1  0.4741810000000  0.5064440000000  0.5876030000000 1.0
C      1  0.5279270000000  0.5062150000000  0.4121700000000 1.0
C      1  0.4925260000000  0.4120290000000  0.5255070000000 1.0
C      1  0.5874140000000  0.4736750000000  0.4933010000000 1.0
C      1  0.5277800000000  0.5062600000000  0.5880170000000 1.0
C      1  0.5064320000000  0.4116640000000  0.4720720000000 1.0
C      1  0.5065510000000  0.5872420000000  0.5260060000000 1.0
C      1  0.4926050000000  0.5875670000000  0.4720930000000 1.0
C      1  0.4122010000000  0.4741730000000  0.5073270000000 1.0
C      1  0.4118360000000  0.5276080000000  0.4934210000000 1.0
C      1  0.5877380000000  0.5275880000000  0.5072470000000 1.0
C      1  0.4738470000000  0.5063800000000  0.4124390000000 1.0
C      1  0.4743450000000  0.4923530000000  0.5876520000000 1.0
C      1  0.5277600000000  0.4924340000000  0.4121140000000 1.0
C      1  0.5077240000000  0.4244820000000  0.4915630000000 1.0
C      1  0.4250370000000  0.4930190000000  0.5080400000000 1.0
C      1  0.4930970000000  0.5076330000000  0.4249860000000 1.0
C      1  0.4918130000000  0.4248650000000  0.5066610000000 1.0
C      1  0.4918560000000  0.5747280000000  0.4916530000000 1.0
C      1  0.5078040000000  0.5746950000000  0.5067560000000 1.0
C      1  0.5748660000000  0.4929250000000  0.4920480000000 1.0
C      1  0.5749000000000  0.5080280000000  0.5079960000000 1.0
C      1  0.4246530000000  0.5081170000000  0.4921290000000 1.0
C      1  0.5082890000000  0.5075520000000  0.5751990000000 1.0
C      1  0.5081990000000  0.4916850000000  0.4249530000000 1.0
C      1  0.4931910000000  0.4916410000000  0.5748160000000 1.0
C      1  0.5076770000000  0.5748510000000  0.4916180000000 1.0
C      1  0.4247930000000  0.5080820000000  0.5080030000000 1.0
C      1  0.4930990000000  0.4916680000000  0.4251310000000 1.0
C      1  0.4918390000000  0.5745500000000  0.5067540000000 1.0
C      1  0.4918500000000  0.4246210000000  0.4915990000000 1.0
C      1  0.5078670000000  0.4246950000000  0.5066680000000 1.0
C      1  0.5750230000000  0.5080640000000  0.4921750000000 1.0
C      1  0.5747220000000  0.4929280000000  0.5080130000000 1.0
C      1  0.4248660000000  0.4930130000000  0.4919860000000 1.0
C      1  0.5082540000000  0.4916780000000  0.5750600000000 1.0
C      1  0.5082350000000  0.5075060000000  0.4248300000000 1.0
C      1  0.4931850000000  0.5076940000000  0.5749860000000 1.0
C      1  0.4832240000000  0.4503660000000  0.5449210000000 1.0
C      1  0.4499340000000  0.5464310000000  0.4834660000000 1.0
C      1  0.5453640000000  0.4827060000000  0.4508050000000 1.0
C      1  0.5163870000000  0.4497630000000  0.4532500000000 1.0
C      1  0.5162860000000  0.5493380000000  0.5464740000000 1.0
C      1  0.4828770000000  0.5488750000000  0.4544890000000 1.0
C      1  0.5490470000000  0.5451920000000  0.5169750000000 1.0
C      1  0.5495100000000  0.4532080000000  0.4835670000000 1.0
C      1  0.4505380000000  0.4547600000000  0.5166290000000 1.0
C      1  0.4549310000000  0.4830520000000  0.5493140000000 1.0
C      1  0.4533790000000  0.5161140000000  0.4503430000000 1.0
C      1  0.5466020000000  0.5162150000000  0.5499180000000 1.0
C      1  0.4830780000000  0.5488620000000  0.5450940000000 1.0
C      1  0.4500040000000  0.4533960000000  0.4835580000000 1.0
C      1  0.5466750000000  0.5162310000000  0.4503480000000 1.0
C      1  0.5164020000000  0.5493330000000  0.4531770000000 1.0
C      1  0.5162940000000  0.4498320000000  0.5462850000000 1.0
C      1  0.4830050000000  0.4502710000000  0.4545360000000 1.0
C      1  0.5490340000000  0.4545870000000  0.5167740000000 1.0
C      1  0.5495050000000  0.5465040000000  0.4834510000000 1.0
C      1  0.4504420000000  0.5451450000000  0.5168480000000 1.0
C      1  0.4535670000000  0.5161220000000  0.5498490000000 1.0
C      1  0.4547590000000  0.4829070000000  0.4508180000000 1.0
C      1  0.5453170000000  0.4828330000000  0.5494100000000 1.0
C      1  0.4968220000000  0.5498980000000  0.5760650000000 1.0
C      1  0.5475400000000  0.5840340000000  0.4919940000000 1.0
C      1  0.5765810000000  0.4968150000000  0.5501030000000 1.0
C      1  0.5078590000000  0.5473690000000  0.4156470000000 1.0
C      1  0.5079040000000  0.4506260000000  0.5840310000000 1.0
C      1  0.4969870000000  0.4495780000000  0.4232710000000 1.0
C      1  0.4497490000000  0.5764090000000  0.5028660000000 1.0
C      1  0.4507980000000  0.4156490000000  0.4919490000000 1.0
C      1  0.5500700000000  0.4236160000000  0.5030300000000 1.0
C      1  0.4237880000000  0.4966510000000  0.4497830000000 1.0
C      1  0.4158210000000  0.5077310000000  0.5490550000000 1.0
C      1  0.5842050000000  0.5076880000000  0.4523120000000 1.0
C      1  0.4970050000000  0.4489900000000  0.5759690000000 1.0
C      1  0.5481280000000  0.4157400000000  0.4920790000000 1.0
C      1  0.5844330000000  0.5078250000000  0.5484790000000 1.0
C      1  0.5079970000000  0.4512020000000  0.4154200000000 1.0
C      1  0.5077730000000  0.5479550000000  0.5839410000000 1.0
C      1  0.4967790000000  0.5492750000000  0.4232990000000 1.0
C      1  0.4491620000000  0.4237110000000  0.5028470000000 1.0
C      1  0.4513740000000  0.5842610000000  0.4918560000000 1.0
C      1  0.5494460000000  0.5763820000000  0.5030730000000 1.0
C      1  0.4159110000000  0.5076020000000  0.4517250000000 1.0
C      1  0.4238830000000  0.4968330000000  0.5506910000000 1.0
C      1  0.5765530000000  0.4966090000000  0.4504060000000 1.0
C      1  0.5426300000000  0.5657030000000  0.5234460000000 1.0
C      1  0.5670750000000  0.5239410000000  0.5438210000000 1.0
C      1  0.5241260000000  0.5429750000000  0.5670040000000 1.0
C      1  0.4560320000000  0.5669030000000  0.4757400000000 1.0
C      1  0.4565880000000  0.4340890000000  0.5228290000000 1.0
C      1  0.5431470000000  0.4326770000000  0.4757260000000 1.0
C      1  0.4328480000000  0.5239540000000  0.4567060000000 1.0
C      1  0.4342610000000  0.4768510000000  0.5432650000000 1.0
C      1  0.5658750000000  0.4762360000000  0.4572220000000 1.0
C      1  0.4764070000000  0.5424580000000  0.4339780000000 1.0
C      1  0.4770230000000  0.4564160000000  0.5655920000000 1.0
C      1  0.5241130000000  0.4558610000000  0.4327780000000 1.0
C      1  0.5427600000000  0.4340330000000  0.5231510000000 1.0
C      1  0.5659700000000  0.4765590000000  0.5432250000000 1.0
C      1  0.5238700000000  0.4559190000000  0.5668920000000 1.0
C      1  0.4560920000000  0.4327890000000  0.4759830000000 1.0
C      1  0.4566270000000  0.5657980000000  0.5231230000000 1.0
C      1  0.5430800000000  0.5668860000000  0.4755190000000 1.0
C      1  0.4342050000000  0.4765290000000  0.4570930000000 1.0
C      1  0.4329600000000  0.5236970000000  0.5437610000000 1.0
C      1  0.5670570000000  0.5241630000000  0.4567720000000 1.0
C      1  0.4767300000000  0.4564560000000  0.4338820000000 1.0
C      1  0.4767010000000  0.5425880000000  0.5656480000000 1.0
C      1  0.5243340000000  0.5429090000000  0.4327950000000 1.0
C      1  0.4983470000000  0.5573300000000  0.4359500000000 1.0
C      1  0.5582110000000  0.4364070000000  0.5015310000000 1.0
C      1  0.4367680000000  0.4982910000000  0.5586830000000 1.0
C      1  0.4984920000000  0.4416180000000  0.4359940000000 1.0
C      1  0.4984630000000  0.4409980000000  0.5630840000000 1.0
C      1  0.4417890000000  0.5636870000000  0.5013610000000 1.0
C      1  0.5639030000000  0.4981760000000  0.4423510000000 1.0
C      1  0.5638590000000  0.4983200000000  0.5580630000000 1.0
C      1  0.4365780000000  0.4981490000000  0.4416420000000 1.0
C      1  0.4983210000000  0.5580390000000  0.5632740000000 1.0
C      1  0.4411700000000  0.4365970000000  0.5013900000000 1.0
C      1  0.5575010000000  0.5637320000000  0.5015060000000 1.0
C      1  0.5373140000000  0.4615490000000  0.5381840000000 1.0
C      1  0.4616690000000  0.5371420000000  0.5381330000000 1.0
C      1  0.4611750000000  0.5375910000000  0.4621340000000 1.0
C      1  0.5377180000000  0.4610040000000  0.4620890000000 1.0
C      1  0.4617200000000  0.4614970000000  0.4625390000000 1.0
C      1  0.5381710000000  0.5380000000000  0.4616810000000 1.0
C      1  0.5377630000000  0.5375470000000  0.5386770000000 1.0
C      1  0.4622480000000  0.4620760000000  0.5376050000000 1.0
END
