TITL C-1379267-1329-31 4.97052828408631e-07 1000000 -1971.39941179267 0 0 280 (C2) n - 1
REM
REM in /nfs/bkarasulu/CARBON/AIRSS/Generating-Clusters/GAP-ML-2020/Higher-Symm/Selected-Sizes/TryA-Only_Ih-Symm/Larger-Clusters/Try2-MINAMP_6A
REM
REM
REM
REM
REM
REM ./C.cell (31579ac4e95a012ec27f3239692ae8a5)
REM
REM compiler GCC version 9.2.1 20190827 (Red Hat 9.2.1-1)
REM options -cpp -mtune=generic -march=x86-64 -g -O0 -fpre-include=/usr/include/finclude/math-vector-fortran.h
REM seed -206607855 -734537276 428014206 1660521978 -1087426316 -791022023 1852313328 -1360212612 1459229769 2091543348 -307723986 1975026279 126743288 1950815795 1705755910 2050814225 1855307668 -1889195498 -19349301 1516248558 -483405024 -1540933008 -1990660367 444015107 1382331939 483998455 61097347 1520986364 -1289141606 -1754941489 1670079685 -526027191 936569280
REM
CELL 1.54180  100.00000  100.00000  100.00000   90.00000   90.00000   90.00000
LATT -1
SFAC C  
C      1  0.4415410000000  0.4514880000000  0.5103820000000 1.0
C      1  0.4516980000000  0.5131320000000  0.4417130000000 1.0
C      1  0.5095350000000  0.4429240000000  0.4526880000000 1.0
C      1  0.5583540000000  0.5479500000000  0.5106440000000 1.0
C      1  0.4415340000000  0.5488050000000  0.4896370000000 1.0
C      1  0.5583600000000  0.4523700000000  0.4893680000000 1.0
C      1  0.5476240000000  0.4866620000000  0.4419740000000 1.0
C      1  0.4517030000000  0.4871640000000  0.5583070000000 1.0
C      1  0.5476230000000  0.5136550000000  0.5580420000000 1.0
C      1  0.4898690000000  0.5577910000000  0.4529220000000 1.0
C      1  0.5095280000000  0.5573810000000  0.5473270000000 1.0
C      1  0.4898810000000  0.4425130000000  0.5470950000000 1.0
C      1  0.4528840000000  0.4423350000000  0.5100580000000 1.0
C      1  0.5104790000000  0.4524950000000  0.4417610000000 1.0
C      1  0.4411790000000  0.5129650000000  0.4517120000000 1.0
C      1  0.5474950000000  0.5575910000000  0.5096730000000 1.0
C      1  0.5475030000000  0.4427270000000  0.4903400000000 1.0
C      1  0.4528750000000  0.5579600000000  0.4899610000000 1.0
C      1  0.4892470000000  0.5482530000000  0.4420550000000 1.0
C      1  0.4892580000000  0.4520500000000  0.5579620000000 1.0
C      1  0.5104750000000  0.5478130000000  0.5582550000000 1.0
C      1  0.5578110000000  0.4866730000000  0.4520970000000 1.0
C      1  0.5578090000000  0.5136450000000  0.5479170000000 1.0
C      1  0.4411840000000  0.4873290000000  0.5483070000000 1.0
C      1  0.4773860000000  0.5769090000000  0.4972310000000 1.0
C      1  0.5800910000000  0.4921570000000  0.4720570000000 1.0
C      1  0.4944590000000  0.4704350000000  0.5814630000000 1.0
C      1  0.5236970000000  0.4230820000000  0.4979400000000 1.0
C      1  0.4773990000000  0.4233910000000  0.5027860000000 1.0
C      1  0.5236840000000  0.5772320000000  0.5020740000000 1.0
C      1  0.4189970000000  0.5094800000000  0.4716660000000 1.0
C      1  0.5800860000000  0.5081600000000  0.5279530000000 1.0
C      1  0.4190000000000  0.4908100000000  0.5283550000000 1.0
C      1  0.5063290000000  0.5293610000000  0.5817300000000 1.0
C      1  0.4944490000000  0.5298670000000  0.4185570000000 1.0
C      1  0.5063270000000  0.4709530000000  0.4182900000000 1.0
C      1  0.5817950000000  0.4710560000000  0.4936290000000 1.0
C      1  0.4984520000000  0.5779990000000  0.4751390000000 1.0
C      1  0.4727250000000  0.4921790000000  0.5799790000000 1.0
C      1  0.4183480000000  0.5302590000000  0.4925340000000 1.0
C      1  0.4183520000000  0.4700300000000  0.5074870000000 1.0
C      1  0.5817930000000  0.5292670000000  0.5063780000000 1.0
C      1  0.5022630000000  0.4235000000000  0.4766300000000 1.0
C      1  0.5022500000000  0.5768030000000  0.5233850000000 1.0
C      1  0.4984670000000  0.4223080000000  0.5248760000000 1.0
C      1  0.5276620000000  0.5084430000000  0.5802550000000 1.0
C      1  0.5276570000000  0.4918740000000  0.4197640000000 1.0
C      1  0.4727220000000  0.5081210000000  0.4200420000000 1.0
C      1  0.4306730000000  0.5277600000000  0.4978660000000 1.0
C      1  0.5276210000000  0.4977880000000  0.4320950000000 1.0
C      1  0.5010340000000  0.4359610000000  0.5258170000000 1.0
C      1  0.5687620000000  0.4732120000000  0.4976790000000 1.0
C      1  0.4306770000000  0.4725310000000  0.5021540000000 1.0
C      1  0.5687590000000  0.5271120000000  0.5023290000000 1.0
C      1  0.4718630000000  0.5022120000000  0.4324550000000 1.0
C      1  0.5276240000000  0.5025250000000  0.5679260000000 1.0
C      1  0.4718650000000  0.4980880000000  0.5675660000000 1.0
C      1  0.4989090000000  0.5634590000000  0.5256490000000 1.0
C      1  0.5010230000000  0.5643460000000  0.4741980000000 1.0
C      1  0.4989190000000  0.4368430000000  0.4743660000000 1.0
C      1  0.5258550000000  0.4365360000000  0.5010510000000 1.0
C      1  0.4976920000000  0.5273060000000  0.4318040000000 1.0
C      1  0.4309230000000  0.4975620000000  0.5280120000000 1.0
C      1  0.4742940000000  0.5639320000000  0.5010020000000 1.0
C      1  0.4743030000000  0.4363660000000  0.4990140000000 1.0
C      1  0.5258450000000  0.5637780000000  0.4989630000000 1.0
C      1  0.5022580000000  0.4733510000000  0.4312540000000 1.0
C      1  0.5022590000000  0.5269560000000  0.5687680000000 1.0
C      1  0.4977010000000  0.4729970000000  0.5682150000000 1.0
C      1  0.5676750000000  0.5024350000000  0.5280030000000 1.0
C      1  0.5676800000000  0.4978840000000  0.4720090000000 1.0
C      1  0.4309210000000  0.5027300000000  0.4720080000000 1.0
C      1  0.5237930000000  0.4257160000000  0.4658990000000 1.0
C      1  0.4239880000000  0.4601280000000  0.5276440000000 1.0
C      1  0.4630880000000  0.5289780000000  0.4239630000000 1.0
C      1  0.4759360000000  0.5760390000000  0.4651460000000 1.0
C      1  0.5237810000000  0.5745940000000  0.5341150000000 1.0
C      1  0.4759520000000  0.4242620000000  0.5348710000000 1.0
C      1  0.5765890000000  0.5393410000000  0.5274100000000 1.0
C      1  0.4239800000000  0.5401630000000  0.4723770000000 1.0
C      1  0.5765950000000  0.4609770000000  0.4726010000000 1.0
C      1  0.5374210000000  0.4710280000000  0.4237800000000 1.0
C      1  0.4630960000000  0.4713200000000  0.5760550000000 1.0
C      1  0.5374220000000  0.5292890000000  0.5762350000000 1.0
C      1  0.4241900000000  0.5297680000000  0.4623420000000 1.0
C      1  0.4661240000000  0.4243020000000  0.5241490000000 1.0
C      1  0.5272270000000  0.4607960000000  0.4233440000000 1.0
C      1  0.5760950000000  0.4711880000000  0.4623780000000 1.0
C      1  0.5760910000000  0.5291300000000  0.5376320000000 1.0
C      1  0.4241970000000  0.4705240000000  0.5376780000000 1.0
C      1  0.5342290000000  0.5747220000000  0.5238970000000 1.0
C      1  0.5342410000000  0.4255920000000  0.4761170000000 1.0
C      1  0.4661100000000  0.5759970000000  0.4758690000000 1.0
C      1  0.4729740000000  0.5394740000000  0.4239120000000 1.0
C      1  0.4729840000000  0.4608260000000  0.5761050000000 1.0
C      1  0.5272270000000  0.5395200000000  0.5766720000000 1.0
C      1  0.4599370000000  0.5015490000000  0.4407650000000 1.0
C      1  0.4981590000000  0.4433680000000  0.4612420000000 1.0
C      1  0.4398600000000  0.4611970000000  0.4998460000000 1.0
C      1  0.5391560000000  0.4982390000000  0.4409360000000 1.0
C      1  0.4599390000000  0.4987490000000  0.5592550000000 1.0
C      1  0.5391570000000  0.5020760000000  0.5590820000000 1.0
C      1  0.5012630000000  0.5572700000000  0.4614770000000 1.0
C      1  0.4981520000000  0.5569340000000  0.5387730000000 1.0
C      1  0.5012740000000  0.4430370000000  0.5385380000000 1.0
C      1  0.5597510000000  0.5383770000000  0.5001190000000 1.0
C      1  0.4398550000000  0.5390960000000  0.5001730000000 1.0
C      1  0.5597550000000  0.4619460000000  0.4998910000000 1.0
C      1  0.4999950000000  0.4621320000000  0.4403570000000 1.0
C      1  0.4397380000000  0.5014380000000  0.4602310000000 1.0
C      1  0.4613770000000  0.4430540000000  0.4986890000000 1.0
C      1  0.4998190000000  0.5386270000000  0.4407230000000 1.0
C      1  0.4998280000000  0.4616780000000  0.5592940000000 1.0
C      1  0.4999940000000  0.5381720000000  0.5596600000000 1.0
C      1  0.5588760000000  0.4982650000000  0.4604800000000 1.0
C      1  0.5588730000000  0.5020530000000  0.5395340000000 1.0
C      1  0.4397400000000  0.4988560000000  0.5397890000000 1.0
C      1  0.5389840000000  0.5572170000000  0.4982790000000 1.0
C      1  0.5389920000000  0.4431010000000  0.5017340000000 1.0
C      1  0.4613690000000  0.5572420000000  0.5013280000000 1.0
C      1  0.5510860000000  0.5198080000000  0.4694140000000 1.0
C      1  0.5215650000000  0.4719080000000  0.5516670000000 1.0
C      1  0.4689800000000  0.5470460000000  0.5222070000000 1.0
C      1  0.4480110000000  0.4799800000000  0.4693650000000 1.0
C      1  0.5510850000000  0.4805120000000  0.5305990000000 1.0
C      1  0.4480110000000  0.5203150000000  0.5306540000000 1.0
C      1  0.4780630000000  0.5280700000000  0.5519310000000 1.0
C      1  0.5215600000000  0.5284030000000  0.4483490000000 1.0
C      1  0.4780620000000  0.4722280000000  0.4480880000000 1.0
C      1  0.5311610000000  0.4529590000000  0.5225310000000 1.0
C      1  0.4689840000000  0.4532490000000  0.4778090000000 1.0
C      1  0.5311550000000  0.5473590000000  0.4774810000000 1.0
C      1  0.5224090000000  0.5474980000000  0.4691000000000 1.0
C      1  0.4688920000000  0.5199990000000  0.5511190000000 1.0
C      1  0.5519240000000  0.4721970000000  0.5216520000000 1.0
C      1  0.4774540000000  0.4533680000000  0.4691380000000 1.0
C      1  0.4774520000000  0.5469260000000  0.5308770000000 1.0
C      1  0.5224170000000  0.4528170000000  0.5309130000000 1.0
C      1  0.5303700000000  0.4803920000000  0.5510970000000 1.0
C      1  0.5303670000000  0.5199210000000  0.4489210000000 1.0
C      1  0.4688910000000  0.4802990000000  0.4489000000000 1.0
C      1  0.4476040000000  0.5287440000000  0.5217900000000 1.0
C      1  0.4476060000000  0.4715500000000  0.4782290000000 1.0
C      1  0.5519230000000  0.5281250000000  0.4783590000000 1.0
C      1  0.5641500000000  0.5034870000000  0.5142640000000 1.0
C      1  0.5039040000000  0.5137540000000  0.5643350000000 1.0
C      1  0.5143050000000  0.5561460000000  0.5036070000000 1.0
C      1  0.4351810000000  0.4964350000000  0.5143350000000 1.0
C      1  0.5641570000000  0.4968390000000  0.4857490000000 1.0
C      1  0.4351800000000  0.5038570000000  0.4856860000000 1.0
C      1  0.4953860000000  0.4859740000000  0.5634660000000 1.0
C      1  0.5039050000000  0.4865520000000  0.4356920000000 1.0
C      1  0.4953810000000  0.5143290000000  0.4365550000000 1.0
C      1  0.4864200000000  0.4427690000000  0.5034650000000 1.0
C      1  0.5143120000000  0.4441640000000  0.4964070000000 1.0
C      1  0.4864120000000  0.5575320000000  0.4965510000000 1.0
C      1  0.5038370000000  0.5557690000000  0.5142140000000 1.0
C      1  0.5138660000000  0.5032220000000  0.5643480000000 1.0
C      1  0.5641300000000  0.5140410000000  0.5043130000000 1.0
C      1  0.4967780000000  0.4427060000000  0.5138960000000 1.0
C      1  0.4967690000000  0.5575990000000  0.4861190000000 1.0
C      1  0.5038430000000  0.4445370000000  0.4858000000000 1.0
C      1  0.4853540000000  0.4965520000000  0.5633900000000 1.0
C      1  0.4853510000000  0.5037480000000  0.4366330000000 1.0
C      1  0.5138640000000  0.4970850000000  0.4356780000000 1.0
C      1  0.4351550000000  0.4859870000000  0.5041150000000 1.0
C      1  0.4351530000000  0.5143050000000  0.4959050000000 1.0
C      1  0.5641350000000  0.4862850000000  0.4957000000000 1.0
C      1  0.5110400000000  0.5382250000000  0.4493640000000 1.0
C      1  0.5405850000000  0.4527240000000  0.5119280000000 1.0
C      1  0.4487500000000  0.5098090000000  0.5403930000000 1.0
C      1  0.4887010000000  0.4625490000000  0.4490500000000 1.0
C      1  0.5110480000000  0.4620830000000  0.5506520000000 1.0
C      1  0.4887000000000  0.5377500000000  0.5509660000000 1.0
C      1  0.4596150000000  0.5476290000000  0.5115940000000 1.0
C      1  0.5405790000000  0.5475950000000  0.4880830000000 1.0
C      1  0.4596200000000  0.4526650000000  0.4884230000000 1.0
C      1  0.5500130000000  0.4910580000000  0.5402340000000 1.0
C      1  0.4487490000000  0.4904860000000  0.4596270000000 1.0
C      1  0.5500140000000  0.5092590000000  0.4597810000000 1.0
C      1  0.5399130000000  0.5092590000000  0.4497950000000 1.0
C      1  0.4487420000000  0.5384580000000  0.5112090000000 1.0
C      1  0.5115800000000  0.4525590000000  0.5400660000000 1.0
C      1  0.4589670000000  0.4905750000000  0.4496980000000 1.0
C      1  0.4589680000000  0.5097220000000  0.5503220000000 1.0
C      1  0.5399140000000  0.4910560000000  0.5502220000000 1.0
C      1  0.5510720000000  0.4623390000000  0.5111750000000 1.0
C      1  0.5510680000000  0.5379830000000  0.4888350000000 1.0
C      1  0.4487460000000  0.4618360000000  0.4888090000000 1.0
C      1  0.4880000000000  0.5472520000000  0.5403640000000 1.0
C      1  0.4880030000000  0.4530460000000  0.4596510000000 1.0
C      1  0.5115720000000  0.5477510000000  0.4599480000000 1.0
C      1  0.4649640000000  0.4422190000000  0.5455950000000 1.0
C      1  0.4454080000000  0.5483990000000  0.4659020000000 1.0
C      1  0.5464210000000  0.4618630000000  0.4434470000000 1.0
C      1  0.5334840000000  0.5556790000000  0.5451100000000 1.0
C      1  0.4649520000000  0.5580800000000  0.4544230000000 1.0
C      1  0.5334910000000  0.4446330000000  0.4549020000000 1.0
C      1  0.5567120000000  0.4523070000000  0.4644240000000 1.0
C      1  0.4454180000000  0.4518950000000  0.5341170000000 1.0
C      1  0.5567070000000  0.5480100000000  0.5355890000000 1.0
C      1  0.4543830000000  0.5379130000000  0.4434710000000 1.0
C      1  0.5464190000000  0.5384530000000  0.5565670000000 1.0
C      1  0.4543920000000  0.4623840000000  0.5565480000000 1.0
C      1  0.4455780000000  0.4637630000000  0.5457160000000 1.0
C      1  0.5451790000000  0.4445430000000  0.4664100000000 1.0
C      1  0.4643910000000  0.5484520000000  0.4439130000000 1.0
C      1  0.5564630000000  0.5384370000000  0.5465650000000 1.0
C      1  0.5564660000000  0.4618800000000  0.4534480000000 1.0
C      1  0.4455700000000  0.5365330000000  0.4543030000000 1.0
C      1  0.4550940000000  0.5585810000000  0.4651560000000 1.0
C      1  0.4551060000000  0.4417150000000  0.5348630000000 1.0
C      1  0.5451730000000  0.5557740000000  0.5336030000000 1.0
C      1  0.5354290000000  0.4523100000000  0.4433070000000 1.0
C      1  0.5354240000000  0.5480040000000  0.5567070000000 1.0
C      1  0.4644020000000  0.4518470000000  0.5561060000000 1.0
C      1  0.4138760000000  0.4675230000000  0.5194160000000 1.0
C      1  0.4717400000000  0.5203710000000  0.4157940000000 1.0
C      1  0.5143890000000  0.4187800000000  0.4751560000000 1.0
C      1  0.5850210000000  0.5310200000000  0.5188550000000 1.0
C      1  0.4138700000000  0.5327670000000  0.4806060000000 1.0
C      1  0.5850280000000  0.4692970000000  0.4811550000000 1.0
C      1  0.5293300000000  0.4798060000000  0.4152420000000 1.0
C      1  0.4717480000000  0.4799280000000  0.5842250000000 1.0
C      1  0.5293330000000  0.5205110000000  0.5847760000000 1.0
C      1  0.4860570000000  0.5820400000000  0.4741300000000 1.0
C      1  0.5143750000000  0.5815270000000  0.5248580000000 1.0
C      1  0.4860730000000  0.4182630000000  0.5258870000000 1.0
C      1  0.4760370000000  0.4186240000000  0.5148790000000 1.0
C      1  0.5186780000000  0.4689570000000  0.4147560000000 1.0
C      1  0.4143320000000  0.5214870000000  0.4697990000000 1.0
C      1  0.5250870000000  0.5816530000000  0.5143470000000 1.0
C      1  0.5251000000000  0.4186590000000  0.4856670000000 1.0
C      1  0.4760220000000  0.5816760000000  0.4851390000000 1.0
C      1  0.4819370000000  0.5315150000000  0.4153980000000 1.0
C      1  0.4819460000000  0.4687870000000  0.5846190000000 1.0
C      1  0.5186800000000  0.5313600000000  0.5852630000000 1.0
C      1  0.5845080000000  0.4800390000000  0.4705560000000 1.0
C      1  0.5845010000000  0.5202790000000  0.5294520000000 1.0
C      1  0.4143380000000  0.4788020000000  0.5302220000000 1.0
C      1  0.5645910000000  0.5264330000000  0.5450720000000 1.0
C      1  0.5238050000000  0.5462890000000  0.5649230000000 1.0
C      1  0.5432270000000  0.5643000000000  0.5219650000000 1.0
C      1  0.4354760000000  0.4742890000000  0.5448780000000 1.0
C      1  0.5645950000000  0.4738850000000  0.4549400000000 1.0
C      1  0.4354690000000  0.5260050000000  0.4551420000000 1.0
C      1  0.4761460000000  0.4537290000000  0.5644750000000 1.0
C      1  0.5238080000000  0.4540230000000  0.4350920000000 1.0
C      1  0.4761350000000  0.5465720000000  0.4355420000000 1.0
C      1  0.4571230000000  0.4349030000000  0.5224690000000 1.0
C      1  0.5432350000000  0.4360160000000  0.4780490000000 1.0
C      1  0.4571110000000  0.5653940000000  0.4775500000000 1.0
C      1  0.5218130000000  0.5641470000000  0.5430890000000 1.0
C      1  0.5448450000000  0.5264870000000  0.5647520000000 1.0
C      1  0.5649380000000  0.5462650000000  0.5239920000000 1.0
C      1  0.4775120000000  0.4352240000000  0.5434850000000 1.0
C      1  0.4774990000000  0.5650780000000  0.4565330000000 1.0
C      1  0.5218220000000  0.4361610000000  0.4569240000000 1.0
C      1  0.4554830000000  0.4741150000000  0.5647160000000 1.0
C      1  0.4554760000000  0.5261820000000  0.4353030000000 1.0
C      1  0.5448450000000  0.4738300000000  0.4352630000000 1.0
C      1  0.4354000000000  0.4532690000000  0.5235630000000 1.0
C      1  0.4353910000000  0.5470240000000  0.4764570000000 1.0
C      1  0.5649440000000  0.4540530000000  0.4760200000000 1.0
C      1  0.5049550000000  0.4945190000000  0.5571150000000 1.0
C      1  0.5049520000000  0.5057870000000  0.4429090000000 1.0
C      1  0.4946410000000  0.5054960000000  0.5570770000000 1.0
C      1  0.5053150000000  0.5496410000000  0.4944660000000 1.0
C      1  0.5573610000000  0.4946710000000  0.5051520000000 1.0
C      1  0.4947920000000  0.4508470000000  0.4950190000000 1.0
C      1  0.5053200000000  0.4506660000000  0.5055480000000 1.0
C      1  0.4947870000000  0.5494560000000  0.5049960000000 1.0
C      1  0.4417040000000  0.5055410000000  0.5052640000000 1.0
C      1  0.5573610000000  0.5056540000000  0.4948580000000 1.0
C      1  0.4417040000000  0.4947520000000  0.4947560000000 1.0
C      1  0.4946400000000  0.4948080000000  0.4429490000000 1.0
C      1  0.4527460000000  0.4643700000000  0.5331350000000 1.0
C      1  0.4527390000000  0.5359260000000  0.4668840000000 1.0
C      1  0.5343220000000  0.4545500000000  0.4658320000000 1.0
C      1  0.5343200000000  0.5457630000000  0.5341800000000 1.0
END
