TITL C-1379266-1300-6 -2.52734111762041e-07 1000000 -4156.54713320924 0 0 580 (Cs) n - 1
REM
REM in /nfs/bkarasulu/CARBON/AIRSS/Generating-Clusters/GAP-ML-2020/Higher-Symm/Selected-Sizes/TryA-Only_Ih-Symm/Larger-Clusters/Try2-MINAMP_6A
REM
REM
REM
REM
REM
REM ./C.cell (31579ac4e95a012ec27f3239692ae8a5)
REM
REM compiler GCC version 9.2.1 20190827 (Red Hat 9.2.1-1)
REM options -cpp -mtune=generic -march=x86-64 -g -O0 -fpre-include=/usr/include/finclude/math-vector-fortran.h
REM seed 1127542189 -2136859351 -159287200 538808751 195273653 1921509568 753963131 -1127938783 -631289582 -1557084891 354954636 -1762561476 -231269950 1651741734 -1827551889 -2119087543 -632626358 92322216 -1082716708 106703917 1496636597 1685168780 412890941 1463463815 414988973 -687482969 1158218102 1769676616 -422276061 526784142 503906512 -1230207706 534206544
REM
CELL 1.54180  100.00000  100.00000  100.00000   90.00000   90.00000   90.00000
LATT -1
SFAC C  
C      1  0.4853390000000  0.5253510000000  0.5352110000000 1.0
C      1  0.5263970000000  0.5363810000000  0.4853100000000 1.0
C      1  0.5356420000000  0.4854370000000  0.5250550000000 1.0
C      1  0.4852580000000  0.4737250000000  0.4638520000000 1.0
C      1  0.5151810000000  0.5255770000000  0.4643390000000 1.0
C      1  0.5146690000000  0.4746560000000  0.5351710000000 1.0
C      1  0.5254540000000  0.4641720000000  0.5142140000000 1.0
C      1  0.4745370000000  0.5358510000000  0.5142470000000 1.0
C      1  0.4739210000000  0.4636720000000  0.4855310000000 1.0
C      1  0.5362910000000  0.5145700000000  0.4740550000000 1.0
C      1  0.4641800000000  0.4847440000000  0.4745340000000 1.0
C      1  0.4644050000000  0.5146350000000  0.5250890000000 1.0
C      1  0.4853800000000  0.5356100000000  0.5250890000000 1.0
C      1  0.5253590000000  0.4853460000000  0.5351710000000 1.0
C      1  0.5363430000000  0.5260940000000  0.4855310000000 1.0
C      1  0.4854450000000  0.4637240000000  0.4740550000000 1.0
C      1  0.5145780000000  0.4643730000000  0.5250550000000 1.0
C      1  0.5152710000000  0.5358350000000  0.4745340000000 1.0
C      1  0.5262900000000  0.5147560000000  0.4638520000000 1.0
C      1  0.4746630000000  0.5146760000000  0.5352110000000 1.0
C      1  0.4744380000000  0.4848340000000  0.4643390000000 1.0
C      1  0.5358430000000  0.4745610000000  0.5142140000000 1.0
C      1  0.4636340000000  0.4736180000000  0.4853100000000 1.0
C      1  0.4641640000000  0.5254780000000  0.5142470000000 1.0
C      1  0.5288910000000  0.4501590000000  0.5690670000000 1.0
C      1  0.4499570000000  0.5697530000000  0.5290440000000 1.0
C      1  0.5698410000000  0.5291180000000  0.4501500000000 1.0
C      1  0.5287900000000  0.5500720000000  0.4309860000000 1.0
C      1  0.4712180000000  0.4507870000000  0.4314460000000 1.0
C      1  0.4710860000000  0.5499060000000  0.5689840000000 1.0
C      1  0.4500440000000  0.4301370000000  0.4709700000000 1.0
C      1  0.5493780000000  0.5688190000000  0.4712710000000 1.0
C      1  0.5500550000000  0.4302740000000  0.5291650000000 1.0
C      1  0.5692270000000  0.4710880000000  0.5500490000000 1.0
C      1  0.4307570000000  0.5289500000000  0.5499500000000 1.0
C      1  0.4307700000000  0.4711410000000  0.4500470000000 1.0
C      1  0.5288740000000  0.5692450000000  0.4500470000000 1.0
C      1  0.4501090000000  0.5289280000000  0.5689840000000 1.0
C      1  0.5697410000000  0.4499600000000  0.5291650000000 1.0
C      1  0.5289270000000  0.4307880000000  0.5500490000000 1.0
C      1  0.4708970000000  0.4301740000000  0.4501500000000 1.0
C      1  0.4710650000000  0.5692580000000  0.5499500000000 1.0
C      1  0.4499430000000  0.4712250000000  0.4309860000000 1.0
C      1  0.5498560000000  0.4711240000000  0.5690670000000 1.0
C      1  0.5492280000000  0.5287970000000  0.4314460000000 1.0
C      1  0.5698780000000  0.5499710000000  0.4709700000000 1.0
C      1  0.4302620000000  0.5500570000000  0.5290440000000 1.0
C      1  0.4311960000000  0.4506370000000  0.4712710000000 1.0
C      1  0.4627870000000  0.5274210000000  0.5748360000000 1.0
C      1  0.5271810000000  0.5755790000000  0.4624340000000 1.0
C      1  0.5753320000000  0.4628470000000  0.5276900000000 1.0
C      1  0.4623590000000  0.4729900000000  0.4247320000000 1.0
C      1  0.5367940000000  0.5277720000000  0.4246680000000 1.0
C      1  0.5371750000000  0.4726430000000  0.5749030000000 1.0
C      1  0.5272810000000  0.4248070000000  0.5374830000000 1.0
C      1  0.4727290000000  0.5752160000000  0.5373750000000 1.0
C      1  0.4723990000000  0.4235560000000  0.4626280000000 1.0
C      1  0.5764840000000  0.5374850000000  0.4724690000000 1.0
C      1  0.4243630000000  0.4630430000000  0.4723040000000 1.0
C      1  0.4246910000000  0.5371580000000  0.5275770000000 1.0
C      1  0.4628570000000  0.5753240000000  0.5275770000000 1.0
C      1  0.5273710000000  0.4628400000000  0.5749030000000 1.0
C      1  0.5764590000000  0.5276150000000  0.4626280000000 1.0
C      1  0.4625300000000  0.4235310000000  0.4724690000000 1.0
C      1  0.5371680000000  0.4246830000000  0.5276900000000 1.0
C      1  0.5369720000000  0.5756520000000  0.4723040000000 1.0
C      1  0.5270250000000  0.5376560000000  0.4247320000000 1.0
C      1  0.4725940000000  0.5372270000000  0.5748360000000 1.0
C      1  0.4722430000000  0.4632210000000  0.4246680000000 1.0
C      1  0.5752080000000  0.4727340000000  0.5374830000000 1.0
C      1  0.4244360000000  0.4728340000000  0.4624340000000 1.0
C      1  0.4247990000000  0.5272850000000  0.5373750000000 1.0
C      1  0.5107690000000  0.4998580000000  0.5692790000000 1.0
C      1  0.5000230000000  0.5702060000000  0.5108760000000 1.0
C      1  0.5705420000000  0.5108990000000  0.5000770000000 1.0
C      1  0.5104030000000  0.5005360000000  0.4300830000000 1.0
C      1  0.4888070000000  0.5002630000000  0.4300660000000 1.0
C      1  0.4892150000000  0.5001890000000  0.5692700000000 1.0
C      1  0.4997900000000  0.4294910000000  0.4893890000000 1.0
C      1  0.5001610000000  0.5702570000000  0.4890390000000 1.0
C      1  0.4999760000000  0.4295930000000  0.5111130000000 1.0
C      1  0.5704130000000  0.4893760000000  0.5004430000000 1.0
C      1  0.4298050000000  0.5105940000000  0.5001800000000 1.0
C      1  0.4297610000000  0.4892460000000  0.4997640000000 1.0
C      1  0.5107690000000  0.5702540000000  0.4997640000000 1.0
C      1  0.4998260000000  0.5108000000000  0.5692700000000 1.0
C      1  0.5704220000000  0.5000380000000  0.5111130000000 1.0
C      1  0.5106390000000  0.4296020000000  0.5004430000000 1.0
C      1  0.4891160000000  0.4294730000000  0.5000770000000 1.0
C      1  0.4894210000000  0.5702100000000  0.5001800000000 1.0
C      1  0.4994790000000  0.4896120000000  0.4300830000000 1.0
C      1  0.5001570000000  0.4892460000000  0.5692790000000 1.0
C      1  0.4997520000000  0.5112070000000  0.4300660000000 1.0
C      1  0.5705230000000  0.5002250000000  0.4893890000000 1.0
C      1  0.4298090000000  0.4999920000000  0.5108760000000 1.0
C      1  0.4297580000000  0.4998540000000  0.4890390000000 1.0
C      1  0.4842420000000  0.4739400000000  0.5353130000000 1.0
C      1  0.4742470000000  0.5355760000000  0.4845980000000 1.0
C      1  0.5356000000000  0.4845880000000  0.4741910000000 1.0
C      1  0.4843850000000  0.5259110000000  0.4644240000000 1.0
C      1  0.5153080000000  0.4744490000000  0.4646320000000 1.0
C      1  0.5158100000000  0.5260210000000  0.5353280000000 1.0
C      1  0.4738660000000  0.4640590000000  0.5152720000000 1.0
C      1  0.5261020000000  0.5358430000000  0.5152270000000 1.0
C      1  0.5256120000000  0.4645560000000  0.4845290000000 1.0
C      1  0.5357590000000  0.5158010000000  0.5254600000000 1.0
C      1  0.4643770000000  0.4842390000000  0.5254220000000 1.0
C      1  0.4644510000000  0.5155640000000  0.4742870000000 1.0
C      1  0.4844510000000  0.5355640000000  0.4742870000000 1.0
C      1  0.4739940000000  0.4842050000000  0.5353280000000 1.0
C      1  0.5354590000000  0.4744020000000  0.4845290000000 1.0
C      1  0.4842140000000  0.4642560000000  0.5254600000000 1.0
C      1  0.5154270000000  0.4644150000000  0.4741910000000 1.0
C      1  0.5157750000000  0.5356370000000  0.5254220000000 1.0
C      1  0.4741040000000  0.5156300000000  0.4644240000000 1.0
C      1  0.5260750000000  0.5157730000000  0.5353130000000 1.0
C      1  0.5255660000000  0.4847070000000  0.4646320000000 1.0
C      1  0.5359560000000  0.5261490000000  0.5152720000000 1.0
C      1  0.4644390000000  0.5257680000000  0.4845980000000 1.0
C      1  0.4641720000000  0.4739120000000  0.5152270000000 1.0
C      1  0.5169010000000  0.5062550000000  0.5441230000000 1.0
C      1  0.5062920000000  0.5447650000000  0.5166380000000 1.0
C      1  0.5451510000000  0.5170270000000  0.5059180000000 1.0
C      1  0.5165550000000  0.4941010000000  0.4554310000000 1.0
C      1  0.4831960000000  0.5061140000000  0.4555920000000 1.0
C      1  0.4831310000000  0.4937410000000  0.5441210000000 1.0
C      1  0.5059620000000  0.4550300000000  0.4830540000000 1.0
C      1  0.4940350000000  0.5446920000000  0.4830850000000 1.0
C      1  0.4936570000000  0.4550910000000  0.5166100000000 1.0
C      1  0.5448720000000  0.4834700000000  0.4937790000000 1.0
C      1  0.4552250000000  0.5164930000000  0.4938420000000 1.0
C      1  0.4550090000000  0.4831750000000  0.5059190000000 1.0
C      1  0.5168400000000  0.5450060000000  0.5059190000000 1.0
C      1  0.5062740000000  0.5168830000000  0.5441210000000 1.0
C      1  0.5449240000000  0.5063580000000  0.5166100000000 1.0
C      1  0.5165450000000  0.4551430000000  0.4937790000000 1.0
C      1  0.4829880000000  0.4548640000000  0.5059180000000 1.0
C      1  0.4835220000000  0.5447900000000  0.4938420000000 1.0
C      1  0.5059140000000  0.4834590000000  0.4554310000000 1.0
C      1  0.4937590000000  0.4831140000000  0.5441230000000 1.0
C      1  0.4939010000000  0.5168190000000  0.4555920000000 1.0
C      1  0.5449840000000  0.4940530000000  0.4830540000000 1.0
C      1  0.4552500000000  0.4937230000000  0.5166380000000 1.0
C      1  0.4553230000000  0.5059800000000  0.4830850000000 1.0
C      1  0.5494680000000  0.5697990000000  0.4963990000000 1.0
C      1  0.5700770000000  0.4963700000000  0.5496770000000 1.0
C      1  0.4963530000000  0.5495060000000  0.5698190000000 1.0
C      1  0.5498070000000  0.4297640000000  0.5039690000000 1.0
C      1  0.4502060000000  0.5702580000000  0.5038430000000 1.0
C      1  0.4505990000000  0.4299960000000  0.4963330000000 1.0
C      1  0.5699290000000  0.5037450000000  0.4508160000000 1.0
C      1  0.4296720000000  0.4964880000000  0.4503710000000 1.0
C      1  0.4299070000000  0.5036610000000  0.5495430000000 1.0
C      1  0.4963300000000  0.4507630000000  0.4305110000000 1.0
C      1  0.5034610000000  0.5498690000000  0.4299490000000 1.0
C      1  0.5036240000000  0.4505740000000  0.5698630000000 1.0
C      1  0.5494410000000  0.4963910000000  0.5698630000000 1.0
C      1  0.5700190000000  0.5494160000000  0.4963330000000 1.0
C      1  0.4963540000000  0.5701080000000  0.5495430000000 1.0
C      1  0.5492520000000  0.5036850000000  0.4305110000000 1.0
C      1  0.4505090000000  0.5036620000000  0.5698190000000 1.0
C      1  0.4501460000000  0.4965540000000  0.4299490000000 1.0
C      1  0.5702500000000  0.4502080000000  0.5039690000000 1.0
C      1  0.4302160000000  0.4505470000000  0.4963990000000 1.0
C      1  0.4297570000000  0.5498090000000  0.5038430000000 1.0
C      1  0.4962690000000  0.4300860000000  0.4508160000000 1.0
C      1  0.5036450000000  0.4299380000000  0.5496770000000 1.0
C      1  0.5035270000000  0.5703430000000  0.4503710000000 1.0
C      1  0.4674100000000  0.4863510000000  0.4263240000000 1.0
C      1  0.4856710000000  0.4249340000000  0.4682090000000 1.0
C      1  0.4250770000000  0.4689460000000  0.4852240000000 1.0
C      1  0.4681370000000  0.5143030000000  0.5731120000000 1.0
C      1  0.5318330000000  0.4857570000000  0.5731370000000 1.0
C      1  0.5308640000000  0.5148750000000  0.4253910000000 1.0
C      1  0.4860830000000  0.5737860000000  0.5323040000000 1.0
C      1  0.5139330000000  0.4262110000000  0.5324150000000 1.0
C      1  0.5138330000000  0.5739720000000  0.4675140000000 1.0
C      1  0.4258100000000  0.5314020000000  0.5145860000000 1.0
C      1  0.5742150000000  0.4685650000000  0.5146900000000 1.0
C      1  0.5751440000000  0.5319240000000  0.4857440000000 1.0
C      1  0.4680910000000  0.4248710000000  0.4857440000000 1.0
C      1  0.4851400000000  0.4691510000000  0.4253910000000 1.0
C      1  0.4260430000000  0.4861820000000  0.4675140000000 1.0
C      1  0.4686120000000  0.5742050000000  0.5145860000000 1.0
C      1  0.5310690000000  0.5749380000000  0.4852240000000 1.0
C      1  0.5314500000000  0.4258000000000  0.5146900000000 1.0
C      1  0.4857120000000  0.5318780000000  0.5731120000000 1.0
C      1  0.5136640000000  0.5326050000000  0.4263240000000 1.0
C      1  0.5142580000000  0.4681820000000  0.5731370000000 1.0
C      1  0.4262290000000  0.5139320000000  0.5323040000000 1.0
C      1  0.5750810000000  0.5143440000000  0.4682090000000 1.0
C      1  0.5738040000000  0.4860820000000  0.5324150000000 1.0
C      1  0.5364250000000  0.5148280000000  0.4950400000000 1.0
C      1  0.5143820000000  0.4953590000000  0.5355140000000 1.0
C      1  0.4953620000000  0.5361460000000  0.5142900000000 1.0
C      1  0.5358770000000  0.4857850000000  0.5044190000000 1.0
C      1  0.4642020000000  0.5142370000000  0.5044690000000 1.0
C      1  0.4638320000000  0.4851950000000  0.4950960000000 1.0
C      1  0.5147160000000  0.5049750000000  0.4642320000000 1.0
C      1  0.4852990000000  0.4949430000000  0.4640260000000 1.0
C      1  0.4856420000000  0.5046470000000  0.5355210000000 1.0
C      1  0.4950100000000  0.4636970000000  0.4852590000000 1.0
C      1  0.5051700000000  0.5362340000000  0.4853610000000 1.0
C      1  0.5046120000000  0.4637020000000  0.5142320000000 1.0
C      1  0.5363120000000  0.4954030000000  0.5142320000000 1.0
C      1  0.5148200000000  0.5361830000000  0.4950960000000 1.0
C      1  0.4953680000000  0.5143720000000  0.5355210000000 1.0
C      1  0.5363180000000  0.5050050000000  0.4852590000000 1.0
C      1  0.4638690000000  0.5046530000000  0.5142900000000 1.0
C      1  0.4637810000000  0.4948450000000  0.4853610000000 1.0
C      1  0.5142300000000  0.4641380000000  0.5044190000000 1.0
C      1  0.4851870000000  0.4635900000000  0.4950400000000 1.0
C      1  0.4857780000000  0.5358130000000  0.5044690000000 1.0
C      1  0.4950400000000  0.4852990000000  0.4642320000000 1.0
C      1  0.5046560000000  0.4856330000000  0.5355140000000 1.0
C      1  0.5050720000000  0.5147160000000  0.4640260000000 1.0
C      1  0.5164130000000  0.4385030000000  0.4734890000000 1.0
C      1  0.4386980000000  0.4732500000000  0.5164980000000 1.0
C      1  0.4728790000000  0.5168350000000  0.4391410000000 1.0
C      1  0.5165540000000  0.5612620000000  0.5268400000000 1.0
C      1  0.4833760000000  0.4386680000000  0.5269400000000 1.0
C      1  0.4834730000000  0.5612370000000  0.4731640000000 1.0
C      1  0.4387560000000  0.5266510000000  0.4836530000000 1.0
C      1  0.5613500000000  0.4734090000000  0.4838800000000 1.0
C      1  0.5615940000000  0.5268860000000  0.5166220000000 1.0
C      1  0.4731870000000  0.4835400000000  0.5606470000000 1.0
C      1  0.5268000000000  0.5165100000000  0.5606530000000 1.0
C      1  0.5264460000000  0.4838080000000  0.4389650000000 1.0
C      1  0.5162070000000  0.4735690000000  0.4389650000000 1.0
C      1  0.4387780000000  0.5165410000000  0.4731640000000 1.0
C      1  0.4731290000000  0.4384200000000  0.5166220000000 1.0
C      1  0.5164750000000  0.5268280000000  0.5606470000000 1.0
C      1  0.4831800000000  0.5271360000000  0.4391410000000 1.0
C      1  0.4835050000000  0.4732150000000  0.5606530000000 1.0
C      1  0.4387530000000  0.4834610000000  0.5268400000000 1.0
C      1  0.5615120000000  0.4836020000000  0.4734890000000 1.0
C      1  0.5613470000000  0.5166390000000  0.5269400000000 1.0
C      1  0.4733640000000  0.5612590000000  0.4836530000000 1.0
C      1  0.5267650000000  0.5613170000000  0.5164980000000 1.0
C      1  0.5266060000000  0.4386650000000  0.4838800000000 1.0
C      1  0.5158320000000  0.5832630000000  0.5056320000000 1.0
C      1  0.5834610000000  0.5058940000000  0.5161740000000 1.0
C      1  0.5054630000000  0.5156180000000  0.5825070000000 1.0
C      1  0.5158790000000  0.4166840000000  0.4945400000000 1.0
C      1  0.4842310000000  0.5832250000000  0.4944280000000 1.0
C      1  0.4840330000000  0.4164730000000  0.5060240000000 1.0
C      1  0.5834520000000  0.4941750000000  0.4843200000000 1.0
C      1  0.4166920000000  0.5057910000000  0.4841480000000 1.0
C      1  0.4167350000000  0.4942000000000  0.5158800000000 1.0
C      1  0.5053950000000  0.4844930000000  0.4171240000000 1.0
C      1  0.4939470000000  0.5161910000000  0.4169460000000 1.0
C      1  0.4944940000000  0.4844520000000  0.5825160000000 1.0
C      1  0.5155630000000  0.5055210000000  0.5825160000000 1.0
C      1  0.5835420000000  0.5159820000000  0.5060240000000 1.0
C      1  0.5058150000000  0.5832800000000  0.5158800000000 1.0
C      1  0.5155220000000  0.4946200000000  0.4171240000000 1.0
C      1  0.4843970000000  0.4945520000000  0.5825070000000 1.0
C      1  0.4838230000000  0.5060680000000  0.4169460000000 1.0
C      1  0.5833300000000  0.4841360000000  0.4945400000000 1.0
C      1  0.4167520000000  0.4841830000000  0.5056320000000 1.0
C      1  0.4167890000000  0.5157840000000  0.4944280000000 1.0
C      1  0.5058390000000  0.4165630000000  0.4843200000000 1.0
C      1  0.4941210000000  0.4165540000000  0.5161740000000 1.0
C      1  0.4942240000000  0.5833220000000  0.4841480000000 1.0
C      1  0.4144730000000  0.4923960000000  0.5299830000000 1.0
C      1  0.4921390000000  0.5303060000000  0.4146510000000 1.0
C      1  0.5300350000000  0.4146840000000  0.4928570000000 1.0
C      1  0.4143540000000  0.5077050000000  0.4700600000000 1.0
C      1  0.5855770000000  0.4923420000000  0.4701800000000 1.0
C      1  0.5856290000000  0.5076400000000  0.5303000000000 1.0
C      1  0.4926670000000  0.4703920000000  0.5849570000000 1.0
C      1  0.5072840000000  0.5296840000000  0.5849330000000 1.0
C      1  0.5072290000000  0.4703620000000  0.4151380000000 1.0
C      1  0.5299710000000  0.5852370000000  0.5073540000000 1.0
C      1  0.4698830000000  0.4143610000000  0.5077720000000 1.0
C      1  0.4700710000000  0.5852940000000  0.4927900000000 1.0
C      1  0.4147210000000  0.5299440000000  0.4927900000000 1.0
C      1  0.4923750000000  0.4143860000000  0.5303000000000 1.0
C      1  0.5296530000000  0.4927860000000  0.4151380000000 1.0
C      1  0.4147780000000  0.4700430000000  0.5073540000000 1.0
C      1  0.5853310000000  0.4699800000000  0.4928570000000 1.0
C      1  0.5856540000000  0.5301320000000  0.5077720000000 1.0
C      1  0.4923100000000  0.5856610000000  0.4700600000000 1.0
C      1  0.5076190000000  0.5855420000000  0.5299830000000 1.0
C      1  0.5076730000000  0.4144380000000  0.4701800000000 1.0
C      1  0.5296230000000  0.5073470000000  0.5849570000000 1.0
C      1  0.4697090000000  0.5078760000000  0.4146510000000 1.0
C      1  0.4703300000000  0.4927310000000  0.5849330000000 1.0
C      1  0.5067460000000  0.4497160000000  0.4400490000000 1.0
C      1  0.4495790000000  0.4396140000000  0.5067150000000 1.0
C      1  0.4393100000000  0.5069090000000  0.4493950000000 1.0
C      1  0.5067650000000  0.5506020000000  0.5602570000000 1.0
C      1  0.4932070000000  0.4494530000000  0.5603070000000 1.0
C      1  0.4930730000000  0.5508630000000  0.4396050000000 1.0
C      1  0.4494140000000  0.5604770000000  0.4935390000000 1.0
C      1  0.5505880000000  0.4395490000000  0.4936650000000 1.0
C      1  0.5505500000000  0.5603410000000  0.5068830000000 1.0
C      1  0.4395200000000  0.4932440000000  0.5505170000000 1.0
C      1  0.5604770000000  0.5068050000000  0.5505950000000 1.0
C      1  0.5602240000000  0.4934260000000  0.4498940000000 1.0
C      1  0.5065890000000  0.4397910000000  0.4498940000000 1.0
C      1  0.4491520000000  0.5069420000000  0.4396050000000 1.0
C      1  0.4396740000000  0.4494650000000  0.5068830000000 1.0
C      1  0.5067710000000  0.5604950000000  0.5505170000000 1.0
C      1  0.4931060000000  0.5607050000000  0.4493950000000 1.0
C      1  0.4932090000000  0.4395380000000  0.5505950000000 1.0
C      1  0.4494130000000  0.4932500000000  0.5602570000000 1.0
C      1  0.5502990000000  0.4932690000000  0.4400490000000 1.0
C      1  0.5505620000000  0.5068080000000  0.5603070000000 1.0
C      1  0.4395370000000  0.5506010000000  0.4935390000000 1.0
C      1  0.5604010000000  0.5504360000000  0.5067150000000 1.0
C      1  0.5604660000000  0.4494270000000  0.4936650000000 1.0
C      1  0.5360340000000  0.4848350000000  0.5460420000000 1.0
C      1  0.4849610000000  0.5463240000000  0.5358580000000 1.0
C      1  0.5493590000000  0.5331980000000  0.4825860000000 1.0
C      1  0.5328040000000  0.5151690000000  0.4510120000000 1.0
C      1  0.4637650000000  0.4851390000000  0.4535610000000 1.0
C      1  0.4639680000000  0.5151840000000  0.5460550000000 1.0
C      1  0.4825490000000  0.4507260000000  0.4669230000000 1.0
C      1  0.5149520000000  0.5465880000000  0.4638280000000 1.0
C      1  0.5150430000000  0.4536840000000  0.5358680000000 1.0
C      1  0.5485820000000  0.4673360000000  0.5153270000000 1.0
C      1  0.4514190000000  0.5326870000000  0.5152690000000 1.0
C      1  0.4507920000000  0.4670440000000  0.4848160000000 1.0
C      1  0.5329710000000  0.5492220000000  0.4848160000000 1.0
C      1  0.4848310000000  0.5360470000000  0.5460550000000 1.0
C      1  0.5463310000000  0.4849720000000  0.5358680000000 1.0
C      1  0.5326780000000  0.4514330000000  0.5153270000000 1.0
C      1  0.4668170000000  0.4506550000000  0.4825860000000 1.0
C      1  0.4673280000000  0.5485960000000  0.5152690000000 1.0
C      1  0.4848460000000  0.4672110000000  0.4510120000000 1.0
C      1  0.5151800000000  0.4639810000000  0.5460420000000 1.0
C      1  0.5148760000000  0.5362500000000  0.4535610000000 1.0
C      1  0.5492880000000  0.5174660000000  0.4669230000000 1.0
C      1  0.4536900000000  0.5150540000000  0.5358580000000 1.0
C      1  0.4534270000000  0.4850630000000  0.4638280000000 1.0
C      1  0.5408760000000  0.5511540000000  0.4390080000000 1.0
C      1  0.5517590000000  0.4381420000000  0.5412630000000 1.0
C      1  0.4384420000000  0.5412340000000  0.5513330000000 1.0
C      1  0.5410800000000  0.4486230000000  0.5613700000000 1.0
C      1  0.4589020000000  0.5514260000000  0.5612730000000 1.0
C      1  0.4591520000000  0.4487420000000  0.4390840000000 1.0
C      1  0.5513530000000  0.5611070000000  0.4592280000000 1.0
C      1  0.4485220000000  0.4380740000000  0.4589630000000 1.0
C      1  0.4482350000000  0.5618960000000  0.5411500000000 1.0
C      1  0.4388440000000  0.4590950000000  0.4489650000000 1.0
C      1  0.5619140000000  0.5411390000000  0.4486400000000 1.0
C      1  0.5615440000000  0.4588080000000  0.5514370000000 1.0
C      1  0.5412070000000  0.4384710000000  0.5514370000000 1.0
C      1  0.5512730000000  0.5408630000000  0.4390840000000 1.0
C      1  0.4381190000000  0.5517800000000  0.5411500000000 1.0
C      1  0.5409200000000  0.5611710000000  0.4489650000000 1.0
C      1  0.4587810000000  0.5615730000000  0.5513330000000 1.0
C      1  0.4588760000000  0.4381010000000  0.4486400000000 1.0
C      1  0.5513920000000  0.4589350000000  0.5613700000000 1.0
C      1  0.4488610000000  0.4591390000000  0.4390080000000 1.0
C      1  0.4485890000000  0.5411120000000  0.5612730000000 1.0
C      1  0.4389080000000  0.4486620000000  0.4592280000000 1.0
C      1  0.5618730000000  0.4482560000000  0.5412630000000 1.0
C      1  0.5619410000000  0.5514930000000  0.4589630000000 1.0
C      1  0.4311400000000  0.5292990000000  0.4528170000000 1.0
C      1  0.5288870000000  0.4529540000000  0.4318280000000 1.0
C      1  0.4525950000000  0.4312290000000  0.5292180000000 1.0
C      1  0.4312610000000  0.4708800000000  0.5473280000000 1.0
C      1  0.5687360000000  0.5291680000000  0.5475390000000 1.0
C      1  0.5686350000000  0.4709600000000  0.4530130000000 1.0
C      1  0.5289660000000  0.5472980000000  0.5684800000000 1.0
C      1  0.4709750000000  0.4527800000000  0.5685080000000 1.0
C      1  0.4706550000000  0.5476690000000  0.4315300000000 1.0
C      1  0.4526530000000  0.5685760000000  0.4713720000000 1.0
C      1  0.5472760000000  0.4316040000000  0.4714080000000 1.0
C      1  0.5473710000000  0.5686190000000  0.5290730000000 1.0
C      1  0.4313960000000  0.4526440000000  0.5290730000000 1.0
C      1  0.5290550000000  0.4313800000000  0.4530130000000 1.0
C      1  0.4523460000000  0.5293600000000  0.4315300000000 1.0
C      1  0.4314390000000  0.5473620000000  0.4713720000000 1.0
C      1  0.5687860000000  0.5474200000000  0.5292180000000 1.0
C      1  0.5684110000000  0.4527380000000  0.4714080000000 1.0
C      1  0.5291350000000  0.5687540000000  0.5473280000000 1.0
C      1  0.4707160000000  0.5688750000000  0.4528170000000 1.0
C      1  0.4708470000000  0.4312790000000  0.5475390000000 1.0
C      1  0.4527170000000  0.4710490000000  0.5684800000000 1.0
C      1  0.5470610000000  0.4711280000000  0.4318280000000 1.0
C      1  0.5472340000000  0.5290400000000  0.5685080000000 1.0
C      1  0.4116830000000  0.5218520000000  0.4682090000000 1.0
C      1  0.5213210000000  0.4682300000000  0.4123020000000 1.0
C      1  0.4678190000000  0.4116440000000  0.5219120000000 1.0
C      1  0.4117750000000  0.4782540000000  0.5319120000000 1.0
C      1  0.5883610000000  0.5217640000000  0.5323460000000 1.0
C      1  0.5882520000000  0.4781810000000  0.4682570000000 1.0
C      1  0.5213160000000  0.5318110000000  0.5878210000000 1.0
C      1  0.4786270000000  0.4682740000000  0.5878340000000 1.0
C      1  0.4780420000000  0.5323870000000  0.4119820000000 1.0
C      1  0.4678390000000  0.5882040000000  0.4787490000000 1.0
C      1  0.5322090000000  0.4118470000000  0.4787700000000 1.0
C      1  0.5321780000000  0.5881240000000  0.5214290000000 1.0
C      1  0.4118910000000  0.4678370000000  0.5214290000000 1.0
C      1  0.5218340000000  0.4117630000000  0.4682570000000 1.0
C      1  0.4676270000000  0.5219730000000  0.4119820000000 1.0
C      1  0.4118110000000  0.5321760000000  0.4787490000000 1.0
C      1  0.5883710000000  0.5321960000000  0.5219120000000 1.0
C      1  0.5881680000000  0.4678060000000  0.4787700000000 1.0
C      1  0.5217610000000  0.5882400000000  0.5319120000000 1.0
C      1  0.4781630000000  0.5883320000000  0.4682090000000 1.0
C      1  0.4782510000000  0.4116540000000  0.5323460000000 1.0
C      1  0.4682040000000  0.4786990000000  0.5878210000000 1.0
C      1  0.5317850000000  0.4786940000000  0.4123020000000 1.0
C      1  0.5317410000000  0.5213880000000  0.5878340000000 1.0
C      1  0.4797050000000  0.5589140000000  0.4979370000000 1.0
C      1  0.5592890000000  0.4979050000000  0.4793770000000 1.0
C      1  0.4979670000000  0.4791410000000  0.5581010000000 1.0
C      1  0.4791220000000  0.4406390000000  0.5022780000000 1.0
C      1  0.5206530000000  0.5590340000000  0.5020050000000 1.0
C      1  0.5203090000000  0.4410130000000  0.4981100000000 1.0
C      1  0.5589460000000  0.5024110000000  0.5209790000000 1.0
C      1  0.4411850000000  0.4976670000000  0.5208770000000 1.0
C      1  0.4411570000000  0.5022400000000  0.4789800000000 1.0
C      1  0.4974600000000  0.5211470000000  0.4414580000000 1.0
C      1  0.5018080000000  0.4796920000000  0.4413500000000 1.0
C      1  0.5020330000000  0.5208870000000  0.5580880000000 1.0
C      1  0.4791280000000  0.4979820000000  0.5580880000000 1.0
C      1  0.5590020000000  0.4797060000000  0.4981100000000 1.0
C      1  0.4977750000000  0.5588580000000  0.4789800000000 1.0
C      1  0.4788680000000  0.5025540000000  0.4414580000000 1.0
C      1  0.5208740000000  0.5020470000000  0.5581010000000 1.0
C      1  0.5203230000000  0.4982070000000  0.4413500000000 1.0
C      1  0.5593760000000  0.5208930000000  0.5022780000000 1.0
C      1  0.4411010000000  0.5203100000000  0.4979370000000 1.0
C      1  0.4409810000000  0.4793620000000  0.5020050000000 1.0
C      1  0.4976040000000  0.4410690000000  0.5209790000000 1.0
C      1  0.5021100000000  0.4407250000000  0.4793770000000 1.0
C      1  0.5023480000000  0.5588300000000  0.5208770000000 1.0
C      1  0.5161540000000  0.4337570000000  0.5563660000000 1.0
C      1  0.4331830000000  0.5566760000000  0.5163910000000 1.0
C      1  0.5555630000000  0.5162150000000  0.4345980000000 1.0
C      1  0.5160580000000  0.5664850000000  0.4436850000000 1.0
C      1  0.4836800000000  0.4339560000000  0.4442990000000 1.0
C      1  0.4838410000000  0.5663050000000  0.5562700000000 1.0
C      1  0.4343680000000  0.4443050000000  0.4838530000000 1.0
C      1  0.5661380000000  0.5558780000000  0.4837330000000 1.0
C      1  0.5668260000000  0.4433390000000  0.5165160000000 1.0
C      1  0.5562380000000  0.4838880000000  0.5662760000000 1.0
C      1  0.4437190000000  0.5161590000000  0.5662030000000 1.0
C      1  0.4435090000000  0.4839950000000  0.4337570000000 1.0
C      1  0.5160200000000  0.5565060000000  0.4337570000000 1.0
C      1  0.4337100000000  0.5161740000000  0.5562700000000 1.0
C      1  0.5566760000000  0.4331890000000  0.5165160000000 1.0
C      1  0.5161270000000  0.4437770000000  0.5662760000000 1.0
C      1  0.4838000000000  0.4444520000000  0.4345980000000 1.0
C      1  0.4838560000000  0.5562960000000  0.5662030000000 1.0
C      1  0.4335300000000  0.4839570000000  0.4436850000000 1.0
C      1  0.5662580000000  0.4838610000000  0.5563660000000 1.0
C      1  0.5660590000000  0.5163350000000  0.4442990000000 1.0
C      1  0.5557100000000  0.5656470000000  0.4838530000000 1.0
C      1  0.4433390000000  0.5668320000000  0.5163910000000 1.0
C      1  0.4441370000000  0.4338770000000  0.4837330000000 1.0
C      1  0.4969640000000  0.4625020000000  0.4214610000000 1.0
C      1  0.4617970000000  0.4203290000000  0.4975740000000 1.0
C      1  0.4204050000000  0.4977630000000  0.4617860000000 1.0
C      1  0.4972990000000  0.5377520000000  0.5786080000000 1.0
C      1  0.5026630000000  0.4623260000000  0.5786430000000 1.0
C      1  0.5021460000000  0.5384630000000  0.4207130000000 1.0
C      1  0.4621640000000  0.5789300000000  0.5029320000000 1.0
C      1  0.5378920000000  0.4210610000000  0.5030290000000 1.0
C      1  0.5377590000000  0.5788820000000  0.4970320000000 1.0
C      1  0.4205920000000  0.5023780000000  0.5381630000000 1.0
C      1  0.5794250000000  0.4976130000000  0.5383550000000 1.0
C      1  0.5796320000000  0.5024780000000  0.4620030000000 1.0
C      1  0.4975370000000  0.4203830000000  0.4620030000000 1.0
C      1  0.4615510000000  0.4978690000000  0.4207130000000 1.0
C      1  0.4211330000000  0.4622560000000  0.4970320000000 1.0
C      1  0.4976370000000  0.5794230000000  0.5381630000000 1.0
C      1  0.5022520000000  0.5796090000000  0.4617860000000 1.0
C      1  0.5024020000000  0.4205900000000  0.5383550000000 1.0
C      1  0.4622630000000  0.5027160000000  0.5786080000000 1.0
C      1  0.5375130000000  0.5030510000000  0.4214610000000 1.0
C      1  0.5376890000000  0.4973520000000  0.5786430000000 1.0
C      1  0.4210850000000  0.5378500000000  0.5029320000000 1.0
C      1  0.5796860000000  0.5382170000000  0.4975740000000 1.0
C      1  0.5789540000000  0.4621220000000  0.5030290000000 1.0
C      1  0.5307340000000  0.4590740000000  0.4190360000000 1.0
C      1  0.4586640000000  0.4184410000000  0.5313050000000 1.0
C      1  0.4184680000000  0.5312800000000  0.4591090000000 1.0
C      1  0.5307360000000  0.5410330000000  0.5811930000000 1.0
C      1  0.4692010000000  0.4590540000000  0.5812120000000 1.0
C      1  0.4686790000000  0.5415600000000  0.4187800000000 1.0
C      1  0.4586410000000  0.5813920000000  0.4694470000000 1.0
C      1  0.5413430000000  0.4187590000000  0.4694740000000 1.0
C      1  0.5413280000000  0.5814270000000  0.5308890000000 1.0
C      1  0.4185330000000  0.4688990000000  0.5411060000000 1.0
C      1  0.5815390000000  0.5311250000000  0.5415070000000 1.0
C      1  0.5813710000000  0.4687940000000  0.4591790000000 1.0
C      1  0.5312210000000  0.4186440000000  0.4591790000000 1.0
C      1  0.4584550000000  0.5313360000000  0.4187800000000 1.0
C      1  0.4185880000000  0.4586870000000  0.5308890000000 1.0
C      1  0.5311160000000  0.5814820000000  0.5411060000000 1.0
C      1  0.4687350000000  0.5815470000000  0.4591090000000 1.0
C      1  0.4688900000000  0.4184760000000  0.5415070000000 1.0
C      1  0.4589820000000  0.4692780000000  0.5811930000000 1.0
C      1  0.5409410000000  0.4692810000000  0.4190360000000 1.0
C      1  0.5409610000000  0.5308130000000  0.5812120000000 1.0
C      1  0.4186230000000  0.5413740000000  0.4694470000000 1.0
C      1  0.5815740000000  0.5413510000000  0.5313050000000 1.0
C      1  0.5812560000000  0.4586720000000  0.4694740000000 1.0
C      1  0.4819800000000  0.5620160000000  0.4587380000000 1.0
C      1  0.5616260000000  0.4588710000000  0.4826210000000 1.0
C      1  0.4587610000000  0.4821480000000  0.5614570000000 1.0
C      1  0.4820200000000  0.4380880000000  0.5413810000000 1.0
C      1  0.5179440000000  0.5619050000000  0.5412750000000 1.0
C      1  0.5178140000000  0.4381230000000  0.4590420000000 1.0
C      1  0.5620490000000  0.5413310000000  0.5179840000000 1.0
C      1  0.4382410000000  0.4587650000000  0.5179350000000 1.0
C      1  0.4383480000000  0.5411660000000  0.4824830000000 1.0
C      1  0.4584320000000  0.5181440000000  0.4383540000000 1.0
C      1  0.5409530000000  0.4822700000000  0.4386520000000 1.0
C      1  0.5412200000000  0.5179180000000  0.5614910000000 1.0
C      1  0.4820970000000  0.4587950000000  0.5614910000000 1.0
C      1  0.5618920000000  0.4822010000000  0.4590420000000 1.0
C      1  0.4588490000000  0.5616670000000  0.4824830000000 1.0
C      1  0.4818710000000  0.5415820000000  0.4383540000000 1.0
C      1  0.5178670000000  0.5412540000000  0.5614570000000 1.0
C      1  0.5177450000000  0.4590620000000  0.4386520000000 1.0
C      1  0.5619270000000  0.5179950000000  0.5413810000000 1.0
C      1  0.4379980000000  0.5180350000000  0.4587380000000 1.0
C      1  0.4381100000000  0.4820710000000  0.5412750000000 1.0
C      1  0.4586840000000  0.4379660000000  0.5179840000000 1.0
C      1  0.5411440000000  0.4383890000000  0.4826210000000 1.0
C      1  0.5412500000000  0.5617740000000  0.5179350000000 1.0
C      1  0.5123250000000  0.4403560000000  0.5262580000000 1.0
C      1  0.4397950000000  0.5242740000000  0.5136330000000 1.0
C      1  0.5241360000000  0.5139800000000  0.4399920000000 1.0
C      1  0.5122970000000  0.5596870000000  0.4734390000000 1.0
C      1  0.4872200000000  0.4387370000000  0.4752580000000 1.0
C      1  0.4876700000000  0.5596400000000  0.5261770000000 1.0
C      1  0.4397180000000  0.4756270000000  0.4860970000000 1.0
C      1  0.5613440000000  0.5249170000000  0.4873170000000 1.0
C      1  0.5602180000000  0.4757380000000  0.5137310000000 1.0
C      1  0.5260050000000  0.4867380000000  0.5585090000000 1.0
C      1  0.4739870000000  0.5132810000000  0.5585000000000 1.0
C      1  0.4733550000000  0.4879510000000  0.4405650000000 1.0
C      1  0.5120640000000  0.5266600000000  0.4405650000000 1.0
C      1  0.4403750000000  0.5123450000000  0.5261770000000 1.0
C      1  0.5242770000000  0.4397970000000  0.5137310000000 1.0
C      1  0.5132770000000  0.4740100000000  0.5585090000000 1.0
C      1  0.4860350000000  0.4758790000000  0.4399920000000 1.0
C      1  0.4867330000000  0.5260280000000  0.5585000000000 1.0
C      1  0.4403280000000  0.4877180000000  0.4734390000000 1.0
C      1  0.5596590000000  0.4876900000000  0.5262580000000 1.0
C      1  0.5612780000000  0.5127940000000  0.4752580000000 1.0
C      1  0.5243880000000  0.5602970000000  0.4860970000000 1.0
C      1  0.4757410000000  0.5602200000000  0.5136330000000 1.0
C      1  0.4750980000000  0.4386710000000  0.4873170000000 1.0
C      1  0.4490950000000  0.5609750000000  0.4596220000000 1.0
C      1  0.5608030000000  0.4593410000000  0.4495220000000 1.0
C      1  0.4591960000000  0.4492010000000  0.5609380000000 1.0
C      1  0.4490950000000  0.4390240000000  0.5408770000000 1.0
C      1  0.5508880000000  0.5609610000000  0.5408120000000 1.0
C      1  0.5506990000000  0.4392750000000  0.4596470000000 1.0
C      1  0.5609740000000  0.5408690000000  0.5509750000000 1.0
C      1  0.4390200000000  0.4592100000000  0.5508750000000 1.0
C      1  0.4388940000000  0.5409960000000  0.4494050000000 1.0
C      1  0.4589730000000  0.5511140000000  0.4392950000000 1.0
C      1  0.5405990000000  0.4493460000000  0.4395020000000 1.0
C      1  0.5407380000000  0.5508870000000  0.5609100000000 1.0
C      1  0.4491280000000  0.4592770000000  0.5609100000000 1.0
C      1  0.5607400000000  0.4493150000000  0.4596470000000 1.0
C      1  0.4590190000000  0.5611210000000  0.4494050000000 1.0
C      1  0.4489010000000  0.5410420000000  0.4392950000000 1.0
C      1  0.5508140000000  0.5408190000000  0.5609380000000 1.0
C      1  0.5506690000000  0.4594150000000  0.4395020000000 1.0
C      1  0.5609910000000  0.5509200000000  0.5408770000000 1.0
C      1  0.4390400000000  0.5509200000000  0.4596220000000 1.0
C      1  0.4390540000000  0.4491270000000  0.5408120000000 1.0
C      1  0.4591460000000  0.4390410000000  0.5509750000000 1.0
C      1  0.5406740000000  0.4392120000000  0.4495220000000 1.0
C      1  0.5408040000000  0.5609950000000  0.5508750000000 1.0
C      1  0.5487120000000  0.5314100000000  0.4686460000000 1.0
C      1  0.4549320000000  0.5450830000000  0.5189090000000 1.0
C      1  0.5450730000000  0.4549420000000  0.5189610000000 1.0
C      1  0.4686050000000  0.4513030000000  0.4686460000000 1.0
END
