TITL C-1379267-1329-145 -2.70467068497347e-06 1000000 -3382.94832781016 0 0 480 (Td) n - 1
REM
REM in /nfs/bkarasulu/CARBON/AIRSS/Generating-Clusters/GAP-ML-2020/Higher-Symm/Selected-Sizes/TryA-Only_Ih-Symm/Larger-Clusters/Try2-MINAMP_6A
REM
REM
REM
REM
REM
REM ./C.cell (31579ac4e95a012ec27f3239692ae8a5)
REM
REM compiler GCC version 9.2.1 20190827 (Red Hat 9.2.1-1)
REM options -cpp -mtune=generic -march=x86-64 -g -O0 -fpre-include=/usr/include/finclude/math-vector-fortran.h
REM seed 774012613 1417208818 1119127182 1869120148 928464253 -1426969992 -315034283 -1809222680 -856169908 -1718237917 -1643902219 1873781526 -304336893 465380992 -852022474 -870543816 46179242 589152259 -619665130 2143238803 1429605381 -2049922551 -854042882 -956707817 -1906953344 -1925677360 -18498073 1888902266 1663742307 1852674425 1993080174 -396410809 674556181
REM
CELL 1.54180  100.00000  100.00000  100.00000   90.00000   90.00000   90.00000
LATT -1
SFAC C  
C      1  0.5202550000000  0.4605020000000  0.4393560000000 1.0
C      1  0.4605020000000  0.4393560000000  0.5202550000000 1.0
C      1  0.4393560000000  0.5202550000000  0.4605020000000 1.0
C      1  0.5202550000000  0.5394980000000  0.5606440000000 1.0
C      1  0.4797450000000  0.4605020000000  0.5606440000000 1.0
C      1  0.4797450000000  0.5394980000000  0.4393560000000 1.0
C      1  0.4605020000000  0.5606440000000  0.4797450000000 1.0
C      1  0.5394980000000  0.4393560000000  0.4797450000000 1.0
C      1  0.5394980000000  0.5606440000000  0.5202550000000 1.0
C      1  0.4393560000000  0.4797450000000  0.5394980000000 1.0
C      1  0.5606440000000  0.5202550000000  0.5394980000000 1.0
C      1  0.5606440000000  0.4797450000000  0.4605020000000 1.0
C      1  0.5202550000000  0.4393560000000  0.4605020000000 1.0
C      1  0.4605020000000  0.5202550000000  0.4393560000000 1.0
C      1  0.4393560000000  0.4605020000000  0.5202550000000 1.0
C      1  0.5202550000000  0.5606440000000  0.5394980000000 1.0
C      1  0.4797450000000  0.5606440000000  0.4605020000000 1.0
C      1  0.4797450000000  0.4393560000000  0.5394980000000 1.0
C      1  0.4605020000000  0.4797450000000  0.5606440000000 1.0
C      1  0.5394980000000  0.4797450000000  0.4393560000000 1.0
C      1  0.5394980000000  0.5202550000000  0.5606440000000 1.0
C      1  0.4393560000000  0.5394980000000  0.4797450000000 1.0
C      1  0.5606440000000  0.5394980000000  0.5202550000000 1.0
C      1  0.5606440000000  0.4605020000000  0.4797450000000 1.0
C      1  0.4473590000000  0.4369690000000  0.4958780000000 1.0
C      1  0.4369690000000  0.4958780000000  0.4473590000000 1.0
C      1  0.4958780000000  0.4473590000000  0.4369690000000 1.0
C      1  0.4473590000000  0.5630310000000  0.5041220000000 1.0
C      1  0.5526410000000  0.4369690000000  0.5041220000000 1.0
C      1  0.5526410000000  0.5630310000000  0.4958780000000 1.0
C      1  0.4369690000000  0.5041220000000  0.5526410000000 1.0
C      1  0.5630310000000  0.4958780000000  0.5526410000000 1.0
C      1  0.5630310000000  0.5041220000000  0.4473590000000 1.0
C      1  0.4958780000000  0.5526410000000  0.5630310000000 1.0
C      1  0.5041220000000  0.4473590000000  0.5630310000000 1.0
C      1  0.5041220000000  0.5526410000000  0.4369690000000 1.0
C      1  0.4473590000000  0.4958780000000  0.4369690000000 1.0
C      1  0.4369690000000  0.4473590000000  0.4958780000000 1.0
C      1  0.4958780000000  0.4369690000000  0.4473590000000 1.0
C      1  0.4473590000000  0.5041220000000  0.5630310000000 1.0
C      1  0.5526410000000  0.5041220000000  0.4369690000000 1.0
C      1  0.5526410000000  0.4958780000000  0.5630310000000 1.0
C      1  0.4369690000000  0.5526410000000  0.5041220000000 1.0
C      1  0.5630310000000  0.5526410000000  0.4958780000000 1.0
C      1  0.5630310000000  0.4473590000000  0.5041220000000 1.0
C      1  0.4958780000000  0.5630310000000  0.5526410000000 1.0
C      1  0.5041220000000  0.5630310000000  0.4473590000000 1.0
C      1  0.5041220000000  0.4369690000000  0.5526410000000 1.0
C      1  0.5260510000000  0.5365260000000  0.5154270000000 1.0
C      1  0.5365260000000  0.5154270000000  0.5260510000000 1.0
C      1  0.5154270000000  0.5260510000000  0.5365260000000 1.0
C      1  0.5260510000000  0.4634740000000  0.4845730000000 1.0
C      1  0.4739490000000  0.5365260000000  0.4845730000000 1.0
C      1  0.4739490000000  0.4634740000000  0.5154270000000 1.0
C      1  0.5365260000000  0.4845730000000  0.4739490000000 1.0
C      1  0.4634740000000  0.5154270000000  0.4739490000000 1.0
C      1  0.4634740000000  0.4845730000000  0.5260510000000 1.0
C      1  0.5154270000000  0.4739490000000  0.4634740000000 1.0
C      1  0.4845730000000  0.5260510000000  0.4634740000000 1.0
C      1  0.4845730000000  0.4739490000000  0.5365260000000 1.0
C      1  0.5260510000000  0.5154270000000  0.5365260000000 1.0
C      1  0.5365260000000  0.5260510000000  0.5154270000000 1.0
C      1  0.5154270000000  0.5365260000000  0.5260510000000 1.0
C      1  0.5260510000000  0.4845730000000  0.4634740000000 1.0
C      1  0.4739490000000  0.4845730000000  0.5365260000000 1.0
C      1  0.4739490000000  0.5154270000000  0.4634740000000 1.0
C      1  0.5365260000000  0.4739490000000  0.4845730000000 1.0
C      1  0.4634740000000  0.4739490000000  0.5154270000000 1.0
C      1  0.4634740000000  0.5260510000000  0.4845730000000 1.0
C      1  0.5154270000000  0.4634740000000  0.4739490000000 1.0
C      1  0.4845730000000  0.4634740000000  0.5260510000000 1.0
C      1  0.4845730000000  0.5365260000000  0.4739490000000 1.0
C      1  0.5732620000000  0.5213670000000  0.5313960000000 1.0
C      1  0.5213670000000  0.5313960000000  0.5732620000000 1.0
C      1  0.5313960000000  0.5732620000000  0.5213670000000 1.0
C      1  0.5732620000000  0.4786330000000  0.4686040000000 1.0
C      1  0.4267380000000  0.5213670000000  0.4686040000000 1.0
C      1  0.4267380000000  0.4786330000000  0.5313960000000 1.0
C      1  0.5213670000000  0.4686040000000  0.4267380000000 1.0
C      1  0.4786330000000  0.5313960000000  0.4267380000000 1.0
C      1  0.4786330000000  0.4686040000000  0.5732620000000 1.0
C      1  0.5313960000000  0.4267380000000  0.4786330000000 1.0
C      1  0.4686040000000  0.5732620000000  0.4786330000000 1.0
C      1  0.4686040000000  0.4267380000000  0.5213670000000 1.0
C      1  0.5732620000000  0.5313960000000  0.5213670000000 1.0
C      1  0.5213670000000  0.5732620000000  0.5313960000000 1.0
C      1  0.5313960000000  0.5213670000000  0.5732620000000 1.0
C      1  0.5732620000000  0.4686040000000  0.4786330000000 1.0
C      1  0.4267380000000  0.4686040000000  0.5213670000000 1.0
C      1  0.4267380000000  0.5313960000000  0.4786330000000 1.0
C      1  0.5213670000000  0.4267380000000  0.4686040000000 1.0
C      1  0.4786330000000  0.4267380000000  0.5313960000000 1.0
C      1  0.4786330000000  0.5732620000000  0.4686040000000 1.0
C      1  0.5313960000000  0.4786330000000  0.4267380000000 1.0
C      1  0.4686040000000  0.4786330000000  0.5732620000000 1.0
C      1  0.4686040000000  0.5213670000000  0.4267380000000 1.0
C      1  0.4682790000000  0.5420560000000  0.5219740000000 1.0
C      1  0.5420560000000  0.5219740000000  0.4682790000000 1.0
C      1  0.5219740000000  0.4682790000000  0.5420560000000 1.0
C      1  0.4682790000000  0.4579440000000  0.4780260000000 1.0
C      1  0.5317210000000  0.5420560000000  0.4780260000000 1.0
C      1  0.5317210000000  0.4579440000000  0.5219740000000 1.0
C      1  0.5420560000000  0.4780260000000  0.5317210000000 1.0
C      1  0.4579440000000  0.5219740000000  0.5317210000000 1.0
C      1  0.4579440000000  0.4780260000000  0.4682790000000 1.0
C      1  0.5219740000000  0.5317210000000  0.4579440000000 1.0
C      1  0.4780260000000  0.4682790000000  0.4579440000000 1.0
C      1  0.4780260000000  0.5317210000000  0.5420560000000 1.0
C      1  0.4682790000000  0.5219740000000  0.5420560000000 1.0
C      1  0.5420560000000  0.4682790000000  0.5219740000000 1.0
C      1  0.5219740000000  0.5420560000000  0.4682790000000 1.0
C      1  0.4682790000000  0.4780260000000  0.4579440000000 1.0
C      1  0.5317210000000  0.4780260000000  0.5420560000000 1.0
C      1  0.5317210000000  0.5219740000000  0.4579440000000 1.0
C      1  0.5420560000000  0.5317210000000  0.4780260000000 1.0
C      1  0.4579440000000  0.5317210000000  0.5219740000000 1.0
C      1  0.4579440000000  0.4682790000000  0.4780260000000 1.0
C      1  0.5219740000000  0.4579440000000  0.5317210000000 1.0
C      1  0.4780260000000  0.4579440000000  0.4682790000000 1.0
C      1  0.4780260000000  0.5420560000000  0.5317210000000 1.0
C      1  0.5207500000000  0.5403440000000  0.5025000000000 1.0
C      1  0.5403440000000  0.5025000000000  0.5207500000000 1.0
C      1  0.5025000000000  0.5207500000000  0.5403440000000 1.0
C      1  0.5207500000000  0.4596560000000  0.4975000000000 1.0
C      1  0.4792500000000  0.5403440000000  0.4975000000000 1.0
C      1  0.4792500000000  0.4596560000000  0.5025000000000 1.0
C      1  0.5403440000000  0.4975000000000  0.4792500000000 1.0
C      1  0.4596560000000  0.5025000000000  0.4792500000000 1.0
C      1  0.4596560000000  0.4975000000000  0.5207500000000 1.0
C      1  0.5025000000000  0.4792500000000  0.4596560000000 1.0
C      1  0.4975000000000  0.5207500000000  0.4596560000000 1.0
C      1  0.4975000000000  0.4792500000000  0.5403440000000 1.0
C      1  0.5207500000000  0.5025000000000  0.5403440000000 1.0
C      1  0.5403440000000  0.5207500000000  0.5025000000000 1.0
C      1  0.5025000000000  0.5403440000000  0.5207500000000 1.0
C      1  0.5207500000000  0.4975000000000  0.4596560000000 1.0
C      1  0.4792500000000  0.4975000000000  0.5403440000000 1.0
C      1  0.4792500000000  0.5025000000000  0.4596560000000 1.0
C      1  0.5403440000000  0.4792500000000  0.4975000000000 1.0
C      1  0.4596560000000  0.4792500000000  0.5025000000000 1.0
C      1  0.4596560000000  0.5207500000000  0.4975000000000 1.0
C      1  0.5025000000000  0.4596560000000  0.4792500000000 1.0
C      1  0.4975000000000  0.4596560000000  0.5207500000000 1.0
C      1  0.4975000000000  0.5403440000000  0.4792500000000 1.0
C      1  0.4823500000000  0.4397900000000  0.4921810000000 1.0
C      1  0.4397900000000  0.4921810000000  0.4823500000000 1.0
C      1  0.4921810000000  0.4823500000000  0.4397900000000 1.0
C      1  0.4823500000000  0.5602100000000  0.5078190000000 1.0
C      1  0.5176500000000  0.4397900000000  0.5078190000000 1.0
C      1  0.5176500000000  0.5602100000000  0.4921810000000 1.0
C      1  0.4397900000000  0.5078190000000  0.5176500000000 1.0
C      1  0.5602100000000  0.4921810000000  0.5176500000000 1.0
C      1  0.5602100000000  0.5078190000000  0.4823500000000 1.0
C      1  0.4921810000000  0.5176500000000  0.5602100000000 1.0
C      1  0.5078190000000  0.4823500000000  0.5602100000000 1.0
C      1  0.5078190000000  0.5176500000000  0.4397900000000 1.0
C      1  0.4823500000000  0.4921810000000  0.4397900000000 1.0
C      1  0.4397900000000  0.4823500000000  0.4921810000000 1.0
C      1  0.4921810000000  0.4397900000000  0.4823500000000 1.0
C      1  0.4823500000000  0.5078190000000  0.5602100000000 1.0
C      1  0.5176500000000  0.5078190000000  0.4397900000000 1.0
C      1  0.5176500000000  0.4921810000000  0.5602100000000 1.0
C      1  0.4397900000000  0.5176500000000  0.5078190000000 1.0
C      1  0.5602100000000  0.5176500000000  0.4921810000000 1.0
C      1  0.5602100000000  0.4823500000000  0.5078190000000 1.0
C      1  0.4921810000000  0.5602100000000  0.5176500000000 1.0
C      1  0.5078190000000  0.5602100000000  0.4823500000000 1.0
C      1  0.5078190000000  0.4397900000000  0.5176500000000 1.0
C      1  0.5101150000000  0.4393660000000  0.4494260000000 1.0
C      1  0.4393660000000  0.4494260000000  0.5101150000000 1.0
C      1  0.4494260000000  0.5101150000000  0.4393660000000 1.0
C      1  0.5101150000000  0.5606340000000  0.5505740000000 1.0
C      1  0.4898850000000  0.4393660000000  0.5505740000000 1.0
C      1  0.4898850000000  0.5606340000000  0.4494260000000 1.0
C      1  0.4393660000000  0.5505740000000  0.4898850000000 1.0
C      1  0.5606340000000  0.4494260000000  0.4898850000000 1.0
C      1  0.5606340000000  0.5505740000000  0.5101150000000 1.0
C      1  0.4494260000000  0.4898850000000  0.5606340000000 1.0
C      1  0.5505740000000  0.5101150000000  0.5606340000000 1.0
C      1  0.5505740000000  0.4898850000000  0.4393660000000 1.0
C      1  0.5101150000000  0.4494260000000  0.4393660000000 1.0
C      1  0.4393660000000  0.5101150000000  0.4494260000000 1.0
C      1  0.4494260000000  0.4393660000000  0.5101150000000 1.0
C      1  0.5101150000000  0.5505740000000  0.5606340000000 1.0
C      1  0.4898850000000  0.5505740000000  0.4393660000000 1.0
C      1  0.4898850000000  0.4494260000000  0.5606340000000 1.0
C      1  0.4393660000000  0.4898850000000  0.5505740000000 1.0
C      1  0.5606340000000  0.4898850000000  0.4494260000000 1.0
C      1  0.5606340000000  0.5101150000000  0.5505740000000 1.0
C      1  0.4494260000000  0.5606340000000  0.4898850000000 1.0
C      1  0.5505740000000  0.5606340000000  0.5101150000000 1.0
C      1  0.5505740000000  0.4393660000000  0.4898850000000 1.0
C      1  0.4781900000000  0.5770680000000  0.5321990000000 1.0
C      1  0.5770680000000  0.5321990000000  0.4781900000000 1.0
C      1  0.5321990000000  0.4781900000000  0.5770680000000 1.0
C      1  0.4781900000000  0.4229320000000  0.4678010000000 1.0
C      1  0.5218100000000  0.5770680000000  0.4678010000000 1.0
C      1  0.5218100000000  0.4229320000000  0.5321990000000 1.0
C      1  0.5770680000000  0.4678010000000  0.5218100000000 1.0
C      1  0.4229320000000  0.5321990000000  0.5218100000000 1.0
C      1  0.4229320000000  0.4678010000000  0.4781900000000 1.0
C      1  0.5321990000000  0.5218100000000  0.4229320000000 1.0
C      1  0.4678010000000  0.4781900000000  0.4229320000000 1.0
C      1  0.4678010000000  0.5218100000000  0.5770680000000 1.0
C      1  0.4781900000000  0.5321990000000  0.5770680000000 1.0
C      1  0.5770680000000  0.4781900000000  0.5321990000000 1.0
C      1  0.5321990000000  0.5770680000000  0.4781900000000 1.0
C      1  0.4781900000000  0.4678010000000  0.4229320000000 1.0
C      1  0.5218100000000  0.4678010000000  0.5770680000000 1.0
C      1  0.5218100000000  0.5321990000000  0.4229320000000 1.0
C      1  0.5770680000000  0.5218100000000  0.4678010000000 1.0
C      1  0.4229320000000  0.5218100000000  0.5321990000000 1.0
C      1  0.4229320000000  0.4781900000000  0.4678010000000 1.0
C      1  0.5321990000000  0.4229320000000  0.5218100000000 1.0
C      1  0.4678010000000  0.4229320000000  0.4781900000000 1.0
C      1  0.4678010000000  0.5770680000000  0.5218100000000 1.0
C      1  0.5242530000000  0.4864550000000  0.5861260000000 1.0
C      1  0.4864550000000  0.5861260000000  0.5242530000000 1.0
C      1  0.5861260000000  0.5242530000000  0.4864550000000 1.0
C      1  0.5242530000000  0.5135450000000  0.4138740000000 1.0
C      1  0.4757470000000  0.4864550000000  0.4138740000000 1.0
C      1  0.4757470000000  0.5135450000000  0.5861260000000 1.0
C      1  0.4864550000000  0.4138740000000  0.4757470000000 1.0
C      1  0.5135450000000  0.5861260000000  0.4757470000000 1.0
C      1  0.5135450000000  0.4138740000000  0.5242530000000 1.0
C      1  0.5861260000000  0.4757470000000  0.5135450000000 1.0
C      1  0.4138740000000  0.5242530000000  0.5135450000000 1.0
C      1  0.4138740000000  0.4757470000000  0.4864550000000 1.0
C      1  0.5242530000000  0.5861260000000  0.4864550000000 1.0
C      1  0.4864550000000  0.5242530000000  0.5861260000000 1.0
C      1  0.5861260000000  0.4864550000000  0.5242530000000 1.0
C      1  0.5242530000000  0.4138740000000  0.5135450000000 1.0
C      1  0.4757470000000  0.4138740000000  0.4864550000000 1.0
C      1  0.4757470000000  0.5861260000000  0.5135450000000 1.0
C      1  0.4864550000000  0.4757470000000  0.4138740000000 1.0
C      1  0.5135450000000  0.4757470000000  0.5861260000000 1.0
C      1  0.5135450000000  0.5242530000000  0.4138740000000 1.0
C      1  0.5861260000000  0.5135450000000  0.4757470000000 1.0
C      1  0.4138740000000  0.5135450000000  0.5242530000000 1.0
C      1  0.4138740000000  0.4864550000000  0.4757470000000 1.0
C      1  0.4754320000000  0.4131910000000  0.4999030000000 1.0
C      1  0.4131910000000  0.4999030000000  0.4754320000000 1.0
C      1  0.4999030000000  0.4754320000000  0.4131910000000 1.0
C      1  0.4754320000000  0.5868090000000  0.5000970000000 1.0
C      1  0.5245680000000  0.4131910000000  0.5000970000000 1.0
C      1  0.5245680000000  0.5868090000000  0.4999030000000 1.0
C      1  0.4131910000000  0.5000970000000  0.5245680000000 1.0
C      1  0.5868090000000  0.4999030000000  0.5245680000000 1.0
C      1  0.5868090000000  0.5000970000000  0.4754320000000 1.0
C      1  0.4999030000000  0.5245680000000  0.5868090000000 1.0
C      1  0.5000970000000  0.4754320000000  0.5868090000000 1.0
C      1  0.5000970000000  0.5245680000000  0.4131910000000 1.0
C      1  0.4754320000000  0.4999030000000  0.4131910000000 1.0
C      1  0.4131910000000  0.4754320000000  0.4999030000000 1.0
C      1  0.4999030000000  0.4131910000000  0.4754320000000 1.0
C      1  0.4754320000000  0.5000970000000  0.5868090000000 1.0
C      1  0.5245680000000  0.5000970000000  0.4131910000000 1.0
C      1  0.5245680000000  0.4999030000000  0.5868090000000 1.0
C      1  0.4131910000000  0.5245680000000  0.5000970000000 1.0
C      1  0.5868090000000  0.5245680000000  0.4999030000000 1.0
C      1  0.5868090000000  0.4754320000000  0.5000970000000 1.0
C      1  0.4999030000000  0.5868090000000  0.5245680000000 1.0
C      1  0.5000970000000  0.5868090000000  0.4754320000000 1.0
C      1  0.5000970000000  0.4131910000000  0.5245680000000 1.0
C      1  0.5167980000000  0.4729710000000  0.4473910000000 1.0
C      1  0.4729710000000  0.4473910000000  0.5167980000000 1.0
C      1  0.4473910000000  0.5167980000000  0.4729710000000 1.0
C      1  0.5167980000000  0.5270290000000  0.5526090000000 1.0
C      1  0.4832020000000  0.4729710000000  0.5526090000000 1.0
C      1  0.4832020000000  0.5270290000000  0.4473910000000 1.0
C      1  0.4729710000000  0.5526090000000  0.4832020000000 1.0
C      1  0.5270290000000  0.4473910000000  0.4832020000000 1.0
C      1  0.5270290000000  0.5526090000000  0.5167980000000 1.0
C      1  0.4473910000000  0.4832020000000  0.5270290000000 1.0
C      1  0.5526090000000  0.5167980000000  0.5270290000000 1.0
C      1  0.5526090000000  0.4832020000000  0.4729710000000 1.0
C      1  0.5167980000000  0.4473910000000  0.4729710000000 1.0
C      1  0.4729710000000  0.5167980000000  0.4473910000000 1.0
C      1  0.4473910000000  0.4729710000000  0.5167980000000 1.0
C      1  0.5167980000000  0.5526090000000  0.5270290000000 1.0
C      1  0.4832020000000  0.5526090000000  0.4729710000000 1.0
C      1  0.4832020000000  0.4473910000000  0.5270290000000 1.0
C      1  0.4729710000000  0.4832020000000  0.5526090000000 1.0
C      1  0.5270290000000  0.4832020000000  0.4473910000000 1.0
C      1  0.5270290000000  0.5167980000000  0.5526090000000 1.0
C      1  0.4473910000000  0.5270290000000  0.4832020000000 1.0
C      1  0.5526090000000  0.5270290000000  0.5167980000000 1.0
C      1  0.5526090000000  0.4729710000000  0.4832020000000 1.0
C      1  0.4685030000000  0.5067360000000  0.5418160000000 1.0
C      1  0.5067360000000  0.5418160000000  0.4685030000000 1.0
C      1  0.5418160000000  0.4685030000000  0.5067360000000 1.0
C      1  0.4685030000000  0.4932640000000  0.4581840000000 1.0
C      1  0.5314970000000  0.5067360000000  0.4581840000000 1.0
C      1  0.5314970000000  0.4932640000000  0.5418160000000 1.0
C      1  0.5067360000000  0.4581840000000  0.5314970000000 1.0
C      1  0.4932640000000  0.5418160000000  0.5314970000000 1.0
C      1  0.4932640000000  0.4581840000000  0.4685030000000 1.0
C      1  0.5418160000000  0.5314970000000  0.4932640000000 1.0
C      1  0.4581840000000  0.4685030000000  0.4932640000000 1.0
C      1  0.4581840000000  0.5314970000000  0.5067360000000 1.0
C      1  0.4685030000000  0.5418160000000  0.5067360000000 1.0
C      1  0.5067360000000  0.4685030000000  0.5418160000000 1.0
C      1  0.5418160000000  0.5067360000000  0.4685030000000 1.0
C      1  0.4685030000000  0.4581840000000  0.4932640000000 1.0
C      1  0.5314970000000  0.4581840000000  0.5067360000000 1.0
C      1  0.5314970000000  0.5418160000000  0.4932640000000 1.0
C      1  0.5067360000000  0.5314970000000  0.4581840000000 1.0
C      1  0.4932640000000  0.5314970000000  0.5418160000000 1.0
C      1  0.4932640000000  0.4685030000000  0.4581840000000 1.0
C      1  0.5418160000000  0.4932640000000  0.5314970000000 1.0
C      1  0.4581840000000  0.4932640000000  0.4685030000000 1.0
C      1  0.4581840000000  0.5067360000000  0.5314970000000 1.0
C      1  0.5608060000000  0.5405450000000  0.4494740000000 1.0
C      1  0.5405450000000  0.4494740000000  0.5608060000000 1.0
C      1  0.4494740000000  0.5608060000000  0.5405450000000 1.0
C      1  0.5608060000000  0.4594550000000  0.5505260000000 1.0
C      1  0.4391940000000  0.5405450000000  0.5505260000000 1.0
C      1  0.4391940000000  0.4594550000000  0.4494740000000 1.0
C      1  0.5405450000000  0.5505260000000  0.4391940000000 1.0
C      1  0.4594550000000  0.4494740000000  0.4391940000000 1.0
C      1  0.4594550000000  0.5505260000000  0.5608060000000 1.0
C      1  0.4494740000000  0.4391940000000  0.4594550000000 1.0
C      1  0.5505260000000  0.5608060000000  0.4594550000000 1.0
C      1  0.5505260000000  0.4391940000000  0.5405450000000 1.0
C      1  0.5608060000000  0.4494740000000  0.5405450000000 1.0
C      1  0.5405450000000  0.5608060000000  0.4494740000000 1.0
C      1  0.4494740000000  0.5405450000000  0.5608060000000 1.0
C      1  0.5608060000000  0.5505260000000  0.4594550000000 1.0
C      1  0.4391940000000  0.5505260000000  0.5405450000000 1.0
C      1  0.4391940000000  0.4494740000000  0.4594550000000 1.0
C      1  0.5405450000000  0.4391940000000  0.5505260000000 1.0
C      1  0.4594550000000  0.4391940000000  0.4494740000000 1.0
C      1  0.4594550000000  0.5608060000000  0.5505260000000 1.0
C      1  0.4494740000000  0.4594550000000  0.4391940000000 1.0
C      1  0.5505260000000  0.4594550000000  0.5608060000000 1.0
C      1  0.5505260000000  0.5405450000000  0.4391940000000 1.0
C      1  0.5422140000000  0.4343030000000  0.5155180000000 1.0
C      1  0.4343030000000  0.5155180000000  0.5422140000000 1.0
C      1  0.5155180000000  0.5422140000000  0.4343030000000 1.0
C      1  0.5422140000000  0.5656970000000  0.4844820000000 1.0
C      1  0.4577860000000  0.4343030000000  0.4844820000000 1.0
C      1  0.4577860000000  0.5656970000000  0.5155180000000 1.0
C      1  0.4343030000000  0.4844820000000  0.4577860000000 1.0
C      1  0.5656970000000  0.5155180000000  0.4577860000000 1.0
C      1  0.5656970000000  0.4844820000000  0.5422140000000 1.0
C      1  0.5155180000000  0.4577860000000  0.5656970000000 1.0
C      1  0.4844820000000  0.5422140000000  0.5656970000000 1.0
C      1  0.4844820000000  0.4577860000000  0.4343030000000 1.0
C      1  0.5422140000000  0.5155180000000  0.4343030000000 1.0
C      1  0.4343030000000  0.5422140000000  0.5155180000000 1.0
C      1  0.5155180000000  0.4343030000000  0.5422140000000 1.0
C      1  0.5422140000000  0.4844820000000  0.5656970000000 1.0
C      1  0.4577860000000  0.4844820000000  0.4343030000000 1.0
C      1  0.4577860000000  0.5155180000000  0.5656970000000 1.0
C      1  0.4343030000000  0.4577860000000  0.4844820000000 1.0
C      1  0.5656970000000  0.4577860000000  0.5155180000000 1.0
C      1  0.5656970000000  0.5422140000000  0.4844820000000 1.0
C      1  0.5155180000000  0.5656970000000  0.4577860000000 1.0
C      1  0.4844820000000  0.5656970000000  0.5422140000000 1.0
C      1  0.4844820000000  0.4343030000000  0.4577860000000 1.0
C      1  0.5515510000000  0.5261160000000  0.4383220000000 1.0
C      1  0.5261160000000  0.4383220000000  0.5515510000000 1.0
C      1  0.4383220000000  0.5515510000000  0.5261160000000 1.0
C      1  0.5515510000000  0.4738840000000  0.5616780000000 1.0
C      1  0.4484490000000  0.5261160000000  0.5616780000000 1.0
C      1  0.4484490000000  0.4738840000000  0.4383220000000 1.0
C      1  0.5261160000000  0.5616780000000  0.4484490000000 1.0
C      1  0.4738840000000  0.4383220000000  0.4484490000000 1.0
C      1  0.4738840000000  0.5616780000000  0.5515510000000 1.0
C      1  0.4383220000000  0.4484490000000  0.4738840000000 1.0
C      1  0.5616780000000  0.5515510000000  0.4738840000000 1.0
C      1  0.5616780000000  0.4484490000000  0.5261160000000 1.0
C      1  0.5515510000000  0.4383220000000  0.5261160000000 1.0
C      1  0.5261160000000  0.5515510000000  0.4383220000000 1.0
C      1  0.4383220000000  0.5261160000000  0.5515510000000 1.0
C      1  0.5515510000000  0.5616780000000  0.4738840000000 1.0
C      1  0.4484490000000  0.5616780000000  0.5261160000000 1.0
C      1  0.4484490000000  0.4383220000000  0.4738840000000 1.0
C      1  0.5261160000000  0.4484490000000  0.5616780000000 1.0
C      1  0.4738840000000  0.4484490000000  0.4383220000000 1.0
C      1  0.4738840000000  0.5515510000000  0.5616780000000 1.0
C      1  0.4383220000000  0.4738840000000  0.4484490000000 1.0
C      1  0.5616780000000  0.4738840000000  0.5515510000000 1.0
C      1  0.5616780000000  0.5261160000000  0.4484490000000 1.0
C      1  0.4689220000000  0.5554780000000  0.5126900000000 1.0
C      1  0.5554780000000  0.5126900000000  0.4689220000000 1.0
C      1  0.5126900000000  0.4689220000000  0.5554780000000 1.0
C      1  0.4689220000000  0.4445220000000  0.4873100000000 1.0
C      1  0.5310780000000  0.5554780000000  0.4873100000000 1.0
C      1  0.5310780000000  0.4445220000000  0.5126900000000 1.0
C      1  0.5554780000000  0.4873100000000  0.5310780000000 1.0
C      1  0.4445220000000  0.5126900000000  0.5310780000000 1.0
C      1  0.4445220000000  0.4873100000000  0.4689220000000 1.0
C      1  0.5126900000000  0.5310780000000  0.4445220000000 1.0
C      1  0.4873100000000  0.4689220000000  0.4445220000000 1.0
C      1  0.4873100000000  0.5310780000000  0.5554780000000 1.0
C      1  0.4689220000000  0.5126900000000  0.5554780000000 1.0
C      1  0.5554780000000  0.4689220000000  0.5126900000000 1.0
C      1  0.5126900000000  0.5554780000000  0.4689220000000 1.0
C      1  0.4689220000000  0.4873100000000  0.4445220000000 1.0
C      1  0.5310780000000  0.4873100000000  0.5554780000000 1.0
C      1  0.5310780000000  0.5126900000000  0.4445220000000 1.0
C      1  0.5554780000000  0.5310780000000  0.4873100000000 1.0
C      1  0.4445220000000  0.5310780000000  0.5126900000000 1.0
C      1  0.4445220000000  0.4689220000000  0.4873100000000 1.0
C      1  0.5126900000000  0.4445220000000  0.5310780000000 1.0
C      1  0.4873100000000  0.4445220000000  0.4689220000000 1.0
C      1  0.4873100000000  0.5554780000000  0.5310780000000 1.0
C      1  0.4469160000000  0.4668020000000  0.5430490000000 1.0
C      1  0.4668020000000  0.5430490000000  0.4469160000000 1.0
C      1  0.5430490000000  0.4469160000000  0.4668020000000 1.0
C      1  0.4469160000000  0.5331980000000  0.4569510000000 1.0
C      1  0.5530840000000  0.4668020000000  0.4569510000000 1.0
C      1  0.5530840000000  0.5331980000000  0.5430490000000 1.0
C      1  0.4668020000000  0.4569510000000  0.5530840000000 1.0
C      1  0.5331980000000  0.5430490000000  0.5530840000000 1.0
C      1  0.5331980000000  0.4569510000000  0.4469160000000 1.0
C      1  0.5430490000000  0.5530840000000  0.5331980000000 1.0
C      1  0.4569510000000  0.4469160000000  0.5331980000000 1.0
C      1  0.4569510000000  0.5530840000000  0.4668020000000 1.0
C      1  0.4469160000000  0.5430490000000  0.4668020000000 1.0
C      1  0.4668020000000  0.4469160000000  0.5430490000000 1.0
C      1  0.5430490000000  0.4668020000000  0.4469160000000 1.0
C      1  0.4469160000000  0.4569510000000  0.5331980000000 1.0
C      1  0.5530840000000  0.4569510000000  0.4668020000000 1.0
C      1  0.5530840000000  0.5430490000000  0.5331980000000 1.0
C      1  0.4668020000000  0.5530840000000  0.4569510000000 1.0
C      1  0.5331980000000  0.5530840000000  0.5430490000000 1.0
C      1  0.5331980000000  0.4469160000000  0.4569510000000 1.0
C      1  0.5430490000000  0.5331980000000  0.5530840000000 1.0
C      1  0.4569510000000  0.5331980000000  0.4469160000000 1.0
C      1  0.4569510000000  0.4668020000000  0.5530840000000 1.0
C      1  0.5157000000000  0.5052270000000  0.5539470000000 1.0
C      1  0.5052270000000  0.5539470000000  0.5157000000000 1.0
C      1  0.5539470000000  0.5157000000000  0.5052270000000 1.0
C      1  0.5157000000000  0.4947730000000  0.4460530000000 1.0
C      1  0.4843000000000  0.5052270000000  0.4460530000000 1.0
C      1  0.4843000000000  0.4947730000000  0.5539470000000 1.0
C      1  0.5052270000000  0.4460530000000  0.4843000000000 1.0
C      1  0.4947730000000  0.5539470000000  0.4843000000000 1.0
C      1  0.4947730000000  0.4460530000000  0.5157000000000 1.0
C      1  0.5539470000000  0.4843000000000  0.4947730000000 1.0
C      1  0.4460530000000  0.5157000000000  0.4947730000000 1.0
C      1  0.4460530000000  0.4843000000000  0.5052270000000 1.0
C      1  0.5157000000000  0.5539470000000  0.5052270000000 1.0
C      1  0.5052270000000  0.5157000000000  0.5539470000000 1.0
C      1  0.5539470000000  0.5052270000000  0.5157000000000 1.0
C      1  0.5157000000000  0.4460530000000  0.4947730000000 1.0
C      1  0.4843000000000  0.4460530000000  0.5052270000000 1.0
C      1  0.4843000000000  0.5539470000000  0.4947730000000 1.0
C      1  0.5052270000000  0.4843000000000  0.4460530000000 1.0
C      1  0.4947730000000  0.4843000000000  0.5539470000000 1.0
C      1  0.4947730000000  0.5157000000000  0.4460530000000 1.0
C      1  0.5539470000000  0.4947730000000  0.4843000000000 1.0
C      1  0.4460530000000  0.4947730000000  0.5157000000000 1.0
C      1  0.4460530000000  0.5052270000000  0.4843000000000 1.0
C      1  0.5818940000000  0.5236030000000  0.5124410000000 1.0
C      1  0.5236030000000  0.5124410000000  0.5818940000000 1.0
C      1  0.5124410000000  0.5818940000000  0.5236030000000 1.0
C      1  0.5818940000000  0.4763970000000  0.4875590000000 1.0
C      1  0.4181060000000  0.5236030000000  0.4875590000000 1.0
C      1  0.4181060000000  0.4763970000000  0.5124410000000 1.0
C      1  0.5236030000000  0.4875590000000  0.4181060000000 1.0
C      1  0.4763970000000  0.5124410000000  0.4181060000000 1.0
C      1  0.4763970000000  0.4875590000000  0.5818940000000 1.0
C      1  0.5124410000000  0.4181060000000  0.4763970000000 1.0
C      1  0.4875590000000  0.5818940000000  0.4763970000000 1.0
C      1  0.4875590000000  0.4181060000000  0.5236030000000 1.0
C      1  0.5818940000000  0.5124410000000  0.5236030000000 1.0
C      1  0.5236030000000  0.5818940000000  0.5124410000000 1.0
C      1  0.5124410000000  0.5236030000000  0.5818940000000 1.0
C      1  0.5818940000000  0.4875590000000  0.4763970000000 1.0
C      1  0.4181060000000  0.4875590000000  0.5236030000000 1.0
C      1  0.4181060000000  0.5124410000000  0.4763970000000 1.0
C      1  0.5236030000000  0.4181060000000  0.4875590000000 1.0
C      1  0.4763970000000  0.4181060000000  0.5124410000000 1.0
C      1  0.4763970000000  0.5818940000000  0.4875590000000 1.0
C      1  0.5124410000000  0.4763970000000  0.4181060000000 1.0
C      1  0.4875590000000  0.4763970000000  0.5818940000000 1.0
C      1  0.4875590000000  0.5236030000000  0.4181060000000 1.0
END
