TITL C-1379265-1223-63 8.47383120891372e-07 1000000 -3667.31992032863 0 0 520 (Td) n - 1
REM
REM in /nfs/bkarasulu/CARBON/AIRSS/Generating-Clusters/GAP-ML-2020/Higher-Symm/Selected-Sizes/TryA-Only_Ih-Symm/Larger-Clusters/Try2-MINAMP_6A
REM
REM
REM
REM
REM
REM ./C.cell (31579ac4e95a012ec27f3239692ae8a5)
REM
REM compiler GCC version 9.2.1 20190827 (Red Hat 9.2.1-1)
REM options -cpp -mtune=generic -march=x86-64 -g -O0 -fpre-include=/usr/include/finclude/math-vector-fortran.h
REM seed -696361035 -592822887 -1367991326 1982607695 1343888836 803037735 -76862284 160140744 2129484286 -1976434577 1101566247 400993526 1119232638 233974065 -1373889992 -1650998469 818684103 1869341526 1869684584 664298927 79814807 597411691 -1171104250 1717224409 1428356100 11219796 -1006443991 774645229 1396914470 -1330212700 -1140686141 -1882383487 -1795127937
REM
CELL 1.54180  100.00000  100.00000  100.00000   90.00000   90.00000   90.00000
LATT -1
SFAC C  
C      1  0.5637320000000  0.4945340000000  0.4765940000000 1.0
C      1  0.4765440000000  0.5636090000000  0.4947070000000 1.0
C      1  0.4946560000000  0.4764210000000  0.5637820000000 1.0
C      1  0.5637320000000  0.5053660000000  0.5236510000000 1.0
C      1  0.4364130000000  0.5053660000000  0.4765940000000 1.0
C      1  0.4364130000000  0.4945340000000  0.5236510000000 1.0
C      1  0.4765440000000  0.4362900000000  0.5055390000000 1.0
C      1  0.5236010000000  0.4362900000000  0.4947070000000 1.0
C      1  0.5236010000000  0.5636090000000  0.5055390000000 1.0
C      1  0.4946560000000  0.5234780000000  0.4364630000000 1.0
C      1  0.5054890000000  0.5234780000000  0.5637820000000 1.0
C      1  0.5054880000000  0.4764210000000  0.4364630000000 1.0
C      1  0.5637320000000  0.4764210000000  0.4947070000000 1.0
C      1  0.4765440000000  0.4945340000000  0.5637820000000 1.0
C      1  0.4946560000000  0.5636090000000  0.4765940000000 1.0
C      1  0.5637320000000  0.5234780000000  0.5055390000000 1.0
C      1  0.4364130000000  0.4764210000000  0.5055390000000 1.0
C      1  0.4364130000000  0.5234780000000  0.4947070000000 1.0
C      1  0.4765440000000  0.5053660000000  0.4364630000000 1.0
C      1  0.5236010000000  0.4945340000000  0.4364630000000 1.0
C      1  0.5236010000000  0.5053660000000  0.5637820000000 1.0
C      1  0.4946560000000  0.4362900000000  0.5236510000000 1.0
C      1  0.5054890000000  0.5636090000000  0.5236510000000 1.0
C      1  0.5054880000000  0.4362900000000  0.4765940000000 1.0
C      1  0.4734650000000  0.5653330000000  0.4538200000000 1.0
C      1  0.4537690000000  0.4733420000000  0.5655060000000 1.0
C      1  0.5654560000000  0.4536460000000  0.4735160000000 1.0
C      1  0.4734650000000  0.4345670000000  0.5464260000000 1.0
C      1  0.5266800000000  0.4345670000000  0.4538200000000 1.0
C      1  0.5266800000000  0.5653330000000  0.5464260000000 1.0
C      1  0.4537690000000  0.5265570000000  0.4347400000000 1.0
C      1  0.5463760000000  0.5265570000000  0.5655060000000 1.0
C      1  0.5463760000000  0.4733420000000  0.4347400000000 1.0
C      1  0.5654560000000  0.5462530000000  0.5267300000000 1.0
C      1  0.4346890000000  0.5462530000000  0.4735160000000 1.0
C      1  0.4346890000000  0.4536460000000  0.5267300000000 1.0
C      1  0.4734650000000  0.4536470000000  0.5655060000000 1.0
C      1  0.4537690000000  0.5653330000000  0.4735160000000 1.0
C      1  0.5654560000000  0.4733420000000  0.4538200000000 1.0
C      1  0.4734650000000  0.5462530000000  0.4347400000000 1.0
C      1  0.5266800000000  0.4536470000000  0.4347400000000 1.0
C      1  0.5266800000000  0.5462530000000  0.5655060000000 1.0
C      1  0.4537690000000  0.4345670000000  0.5267300000000 1.0
C      1  0.5463760000000  0.5653330000000  0.5267300000000 1.0
C      1  0.5463760000000  0.4345670000000  0.4735160000000 1.0
C      1  0.5654560000000  0.5265570000000  0.5464260000000 1.0
C      1  0.4346890000000  0.4733420000000  0.5464260000000 1.0
C      1  0.4346890000000  0.5265570000000  0.4538200000000 1.0
C      1  0.5306020000000  0.5408640000000  0.4487100000000 1.0
C      1  0.4486600000000  0.5304790000000  0.5410370000000 1.0
C      1  0.5409870000000  0.4485370000000  0.5306520000000 1.0
C      1  0.5306020000000  0.4590350000000  0.5515350000000 1.0
C      1  0.4695430000000  0.4590350000000  0.4487100000000 1.0
C      1  0.4695430000000  0.5408640000000  0.5515350000000 1.0
C      1  0.4486600000000  0.4694200000000  0.4592080000000 1.0
C      1  0.5514850000000  0.4694200000000  0.5410370000000 1.0
C      1  0.5514850000000  0.5304790000000  0.4592090000000 1.0
C      1  0.5409870000000  0.5513620000000  0.4695930000000 1.0
C      1  0.4591580000000  0.5513620000000  0.5306520000000 1.0
C      1  0.4591580000000  0.4485370000000  0.4695930000000 1.0
C      1  0.5306020000000  0.4485370000000  0.5410370000000 1.0
C      1  0.4486600000000  0.5408640000000  0.5306520000000 1.0
C      1  0.5409870000000  0.5304790000000  0.4487100000000 1.0
C      1  0.5306020000000  0.5513620000000  0.4592090000000 1.0
C      1  0.4695430000000  0.4485370000000  0.4592090000000 1.0
C      1  0.4695430000000  0.5513620000000  0.5410370000000 1.0
C      1  0.4486600000000  0.4590350000000  0.4695930000000 1.0
C      1  0.5514850000000  0.5408640000000  0.4695930000000 1.0
C      1  0.5514850000000  0.4590350000000  0.5306520000000 1.0
C      1  0.5409870000000  0.4694200000000  0.5515350000000 1.0
C      1  0.4591580000000  0.5304790000000  0.5515350000000 1.0
C      1  0.4591580000000  0.4694200000000  0.4487100000000 1.0
C      1  0.5156210000000  0.5366290000000  0.4226620000000 1.0
C      1  0.4226120000000  0.5154980000000  0.5368020000000 1.0
C      1  0.5367520000000  0.4224890000000  0.5156710000000 1.0
C      1  0.5156210000000  0.4632710000000  0.5775830000000 1.0
C      1  0.4845240000000  0.4632710000000  0.4226620000000 1.0
C      1  0.4845240000000  0.5366290000000  0.5775830000000 1.0
C      1  0.4226120000000  0.4844020000000  0.4634440000000 1.0
C      1  0.5775330000000  0.4844020000000  0.5368020000000 1.0
C      1  0.5775330000000  0.5154980000000  0.4634440000000 1.0
C      1  0.5367520000000  0.5774100000000  0.4845750000000 1.0
C      1  0.4633930000000  0.5774100000000  0.5156710000000 1.0
C      1  0.4633930000000  0.4224890000000  0.4845750000000 1.0
C      1  0.5156210000000  0.4224890000000  0.5368020000000 1.0
C      1  0.4226120000000  0.5366290000000  0.5156710000000 1.0
C      1  0.5367520000000  0.5154980000000  0.4226620000000 1.0
C      1  0.5156210000000  0.5774100000000  0.4634440000000 1.0
C      1  0.4845240000000  0.4224890000000  0.4634440000000 1.0
C      1  0.4845240000000  0.5774100000000  0.5368020000000 1.0
C      1  0.4226120000000  0.4632710000000  0.4845750000000 1.0
C      1  0.5775330000000  0.5366290000000  0.4845750000000 1.0
C      1  0.5775330000000  0.4632710000000  0.5156710000000 1.0
C      1  0.5367520000000  0.4844020000000  0.5775830000000 1.0
C      1  0.4633930000000  0.5154980000000  0.5775830000000 1.0
C      1  0.4633930000000  0.4844020000000  0.4226620000000 1.0
C      1  0.4351150000000  0.4446400000000  0.4807190000000 1.0
C      1  0.4806690000000  0.4349920000000  0.4448140000000 1.0
C      1  0.4447630000000  0.4805460000000  0.4351650000000 1.0
C      1  0.4351150000000  0.5552590000000  0.5195260000000 1.0
C      1  0.5650300000000  0.5552590000000  0.4807190000000 1.0
C      1  0.5650300000000  0.4446400000000  0.5195260000000 1.0
C      1  0.4806690000000  0.5649070000000  0.5554320000000 1.0
C      1  0.5194760000000  0.5649070000000  0.4448140000000 1.0
C      1  0.5194760000000  0.4349920000000  0.5554320000000 1.0
C      1  0.4447630000000  0.5193530000000  0.5650810000000 1.0
C      1  0.5553820000000  0.5193530000000  0.4351650000000 1.0
C      1  0.5553820000000  0.4805460000000  0.5650810000000 1.0
C      1  0.4351150000000  0.4805460000000  0.4448130000000 1.0
C      1  0.4806690000000  0.4446400000000  0.4351650000000 1.0
C      1  0.4447630000000  0.4349920000000  0.4807190000000 1.0
C      1  0.4351150000000  0.5193530000000  0.5554320000000 1.0
C      1  0.5650300000000  0.4805460000000  0.5554320000000 1.0
C      1  0.5650300000000  0.5193530000000  0.4448130000000 1.0
C      1  0.4806690000000  0.5552590000000  0.5650810000000 1.0
C      1  0.5194760000000  0.4446400000000  0.5650810000000 1.0
C      1  0.5194760000000  0.5552590000000  0.4351650000000 1.0
C      1  0.4447630000000  0.5649070000000  0.5195260000000 1.0
C      1  0.5553820000000  0.4349920000000  0.5195260000000 1.0
C      1  0.5553820000000  0.5649070000000  0.4807190000000 1.0
C      1  0.4907500000000  0.5673970000000  0.5456770000000 1.0
C      1  0.5456260000000  0.4906270000000  0.5675700000000 1.0
C      1  0.5675200000000  0.5455040000000  0.4908000000000 1.0
C      1  0.4907500000000  0.4325030000000  0.4545690000000 1.0
C      1  0.5093950000000  0.4325030000000  0.5456770000000 1.0
C      1  0.5093950000000  0.5673970000000  0.4545690000000 1.0
C      1  0.5456260000000  0.5092720000000  0.4326760000000 1.0
C      1  0.4545190000000  0.5092730000000  0.5675700000000 1.0
C      1  0.4545190000000  0.4906270000000  0.4326760000000 1.0
C      1  0.5675200000000  0.4543960000000  0.5094460000000 1.0
C      1  0.4326250000000  0.4543960000000  0.4908000000000 1.0
C      1  0.4326250000000  0.5455040000000  0.5094460000000 1.0
C      1  0.4907500000000  0.5455040000000  0.5675700000000 1.0
C      1  0.5456260000000  0.5673970000000  0.4908000000000 1.0
C      1  0.5675200000000  0.4906270000000  0.5456770000000 1.0
C      1  0.4907500000000  0.4543960000000  0.4326760000000 1.0
C      1  0.5093950000000  0.5455040000000  0.4326760000000 1.0
C      1  0.5093950000000  0.4543960000000  0.5675700000000 1.0
C      1  0.5456260000000  0.4325030000000  0.5094460000000 1.0
C      1  0.4545190000000  0.5673970000000  0.5094460000000 1.0
C      1  0.4545190000000  0.4325030000000  0.4908000000000 1.0
C      1  0.5675200000000  0.5092730000000  0.4545690000000 1.0
C      1  0.4326250000000  0.4906270000000  0.4545690000000 1.0
C      1  0.4326250000000  0.5092730000000  0.5456770000000 1.0
C      1  0.5109150000000  0.4784400000000  0.5461840000000 1.0
C      1  0.5461340000000  0.5107920000000  0.4786130000000 1.0
C      1  0.4785620000000  0.5460110000000  0.5109650000000 1.0
C      1  0.5109140000000  0.5214600000000  0.4540610000000 1.0
C      1  0.4892300000000  0.5214600000000  0.5461840000000 1.0
C      1  0.4892300000000  0.4784400000000  0.4540610000000 1.0
C      1  0.5461340000000  0.4891080000000  0.5216330000000 1.0
C      1  0.4540110000000  0.4891080000000  0.4786130000000 1.0
C      1  0.4540110000000  0.5107920000000  0.5216330000000 1.0
C      1  0.4785620000000  0.4538880000000  0.4892810000000 1.0
C      1  0.5215830000000  0.4538880000000  0.5109650000000 1.0
C      1  0.5215830000000  0.5460110000000  0.4892810000000 1.0
C      1  0.5109150000000  0.5460110000000  0.4786130000000 1.0
C      1  0.5461340000000  0.4784400000000  0.5109650000000 1.0
C      1  0.4785620000000  0.5107920000000  0.5461840000000 1.0
C      1  0.5109150000000  0.4538880000000  0.5216330000000 1.0
C      1  0.4892300000000  0.5460110000000  0.5216330000000 1.0
C      1  0.4892300000000  0.4538880000000  0.4786130000000 1.0
C      1  0.5461340000000  0.5214600000000  0.4892810000000 1.0
C      1  0.4540110000000  0.4784400000000  0.4892810000000 1.0
C      1  0.4540110000000  0.5214600000000  0.5109650000000 1.0
C      1  0.4785620000000  0.4891080000000  0.4540610000000 1.0
C      1  0.5215830000000  0.5107920000000  0.4540610000000 1.0
C      1  0.5215830000000  0.4891080000000  0.5461840000000 1.0
C      1  0.4299080000000  0.4891090000000  0.5002060000000 1.0
C      1  0.5001550000000  0.4297860000000  0.4892820000000 1.0
C      1  0.4892320000000  0.5000330000000  0.4299590000000 1.0
C      1  0.4299080000000  0.5107900000000  0.5000400000000 1.0
C      1  0.5702370000000  0.5107900000000  0.5002060000000 1.0
C      1  0.5702370000000  0.4891090000000  0.5000400000000 1.0
C      1  0.5001550000000  0.5701140000000  0.5109630000000 1.0
C      1  0.4999900000000  0.5701140000000  0.4892820000000 1.0
C      1  0.4999900000000  0.4297860000000  0.5109630000000 1.0
C      1  0.4892320000000  0.4998670000000  0.5702870000000 1.0
C      1  0.5109130000000  0.4998670000000  0.4299590000000 1.0
C      1  0.5109130000000  0.5000330000000  0.5702870000000 1.0
C      1  0.4299080000000  0.5000330000000  0.4892820000000 1.0
C      1  0.5001550000000  0.4891090000000  0.4299590000000 1.0
C      1  0.4892320000000  0.4297860000000  0.5002060000000 1.0
C      1  0.4299080000000  0.4998670000000  0.5109630000000 1.0
C      1  0.5702370000000  0.5000330000000  0.5109630000000 1.0
C      1  0.5702370000000  0.4998670000000  0.4892820000000 1.0
C      1  0.5001550000000  0.5107900000000  0.5702870000000 1.0
C      1  0.4999900000000  0.4891090000000  0.5702870000000 1.0
C      1  0.4999890000000  0.5107900000000  0.4299590000000 1.0
C      1  0.4892320000000  0.5701140000000  0.5000400000000 1.0
C      1  0.5109130000000  0.4297860000000  0.5000400000000 1.0
C      1  0.5109130000000  0.5701140000000  0.5002060000000 1.0
C      1  0.5176560000000  0.4986650000000  0.5845650000000 1.0
C      1  0.5845150000000  0.5175330000000  0.4988380000000 1.0
C      1  0.4987880000000  0.5843920000000  0.5177060000000 1.0
C      1  0.5176560000000  0.5012350000000  0.4156800000000 1.0
C      1  0.4824890000000  0.5012350000000  0.5845650000000 1.0
C      1  0.4824890000000  0.4986650000000  0.4156800000000 1.0
C      1  0.5845150000000  0.4823660000000  0.5014080000000 1.0
C      1  0.4156300000000  0.4823660000000  0.4988380000000 1.0
C      1  0.4156300000000  0.5175330000000  0.5014080000000 1.0
C      1  0.4987880000000  0.4155070000000  0.4825390000000 1.0
C      1  0.5013570000000  0.4155070000000  0.5177060000000 1.0
C      1  0.5013570000000  0.5843920000000  0.4825390000000 1.0
C      1  0.5176560000000  0.5843920000000  0.4988380000000 1.0
C      1  0.5845150000000  0.4986650000000  0.5177060000000 1.0
C      1  0.4987880000000  0.5175330000000  0.5845650000000 1.0
C      1  0.5176560000000  0.4155070000000  0.5014080000000 1.0
C      1  0.4824890000000  0.5843920000000  0.5014080000000 1.0
C      1  0.4824890000000  0.4155070000000  0.4988380000000 1.0
C      1  0.5845150000000  0.5012350000000  0.4825390000000 1.0
C      1  0.4156300000000  0.4986650000000  0.4825390000000 1.0
C      1  0.4156300000000  0.5012350000000  0.5177060000000 1.0
C      1  0.4987880000000  0.4823660000000  0.4156800000000 1.0
C      1  0.5013570000000  0.5175330000000  0.4156810000000 1.0
C      1  0.5013570000000  0.4823660000000  0.5845650000000 1.0
C      1  0.5038970000000  0.4499260000000  0.4714800000000 1.0
C      1  0.4714290000000  0.5037750000000  0.4500990000000 1.0
C      1  0.4500490000000  0.4713060000000  0.5039480000000 1.0
C      1  0.5038970000000  0.5499730000000  0.5287660000000 1.0
C      1  0.4962470000000  0.5499730000000  0.4714800000000 1.0
C      1  0.4962480000000  0.4499260000000  0.5287660000000 1.0
C      1  0.4714290000000  0.4961250000000  0.5501460000000 1.0
C      1  0.5287160000000  0.4961250000000  0.4500990000000 1.0
C      1  0.5287160000000  0.5037750000000  0.5501460000000 1.0
C      1  0.4500490000000  0.5285930000000  0.4962980000000 1.0
C      1  0.5500960000000  0.5285930000000  0.5039480000000 1.0
C      1  0.5500960000000  0.4713060000000  0.4962980000000 1.0
C      1  0.5038970000000  0.4713060000000  0.4500990000000 1.0
C      1  0.4714290000000  0.4499260000000  0.5039480000000 1.0
C      1  0.4500490000000  0.5037750000000  0.4714800000000 1.0
C      1  0.5038970000000  0.5285930000000  0.5501460000000 1.0
C      1  0.4962480000000  0.4713060000000  0.5501460000000 1.0
C      1  0.4962470000000  0.5285930000000  0.4500990000000 1.0
C      1  0.4714290000000  0.5499730000000  0.4962980000000 1.0
C      1  0.5287160000000  0.4499260000000  0.4962980000000 1.0
C      1  0.5287160000000  0.5499730000000  0.5039480000000 1.0
C      1  0.4500490000000  0.4961250000000  0.5287660000000 1.0
C      1  0.5500960000000  0.5037750000000  0.5287660000000 1.0
C      1  0.5500960000000  0.4961250000000  0.4714800000000 1.0
C      1  0.4988540000000  0.4558770000000  0.5561560000000 1.0
C      1  0.5561060000000  0.4987310000000  0.4560500000000 1.0
C      1  0.4560000000000  0.5559830000000  0.4989040000000 1.0
C      1  0.4988540000000  0.5440220000000  0.4440890000000 1.0
C      1  0.5012910000000  0.5440230000000  0.5561560000000 1.0
C      1  0.5012910000000  0.4558770000000  0.4440890000000 1.0
C      1  0.5561060000000  0.5011690000000  0.5441960000000 1.0
C      1  0.4440390000000  0.5011690000000  0.4560500000000 1.0
C      1  0.4440390000000  0.4987310000000  0.5441960000000 1.0
C      1  0.4560000000000  0.4439160000000  0.5013420000000 1.0
C      1  0.5441450000000  0.4439160000000  0.4989040000000 1.0
C      1  0.5441450000000  0.5559830000000  0.5013420000000 1.0
C      1  0.4988540000000  0.5559830000000  0.4560500000000 1.0
C      1  0.5561060000000  0.4558770000000  0.4989040000000 1.0
C      1  0.4560000000000  0.4987310000000  0.5561560000000 1.0
C      1  0.4988540000000  0.4439160000000  0.5441960000000 1.0
C      1  0.5012910000000  0.5559830000000  0.5441960000000 1.0
C      1  0.5012910000000  0.4439160000000  0.4560500000000 1.0
C      1  0.5561060000000  0.5440230000000  0.5013420000000 1.0
C      1  0.4440390000000  0.4558770000000  0.5013420000000 1.0
C      1  0.4440390000000  0.5440230000000  0.4989040000000 1.0
C      1  0.4560000000000  0.5011690000000  0.4440890000000 1.0
C      1  0.5441450000000  0.4987310000000  0.4440890000000 1.0
C      1  0.5441450000000  0.5011690000000  0.5561560000000 1.0
C      1  0.4573700000000  0.5208280000000  0.5321520000000 1.0
C      1  0.5321020000000  0.4572480000000  0.5210010000000 1.0
C      1  0.5209510000000  0.5319790000000  0.4574210000000 1.0
C      1  0.4573700000000  0.4790720000000  0.4680930000000 1.0
C      1  0.5427750000000  0.4790720000000  0.5321530000000 1.0
C      1  0.5427750000000  0.5208280000000  0.4680930000000 1.0
C      1  0.5321020000000  0.5426520000000  0.4792450000000 1.0
C      1  0.4680430000000  0.5426520000000  0.5210010000000 1.0
C      1  0.4680430000000  0.4572480000000  0.4792450000000 1.0
C      1  0.5209510000000  0.4679200000000  0.5428250000000 1.0
C      1  0.4791940000000  0.4679200000000  0.4574210000000 1.0
C      1  0.4791940000000  0.5319790000000  0.5428250000000 1.0
C      1  0.4573700000000  0.5319790000000  0.5210010000000 1.0
C      1  0.5321020000000  0.5208280000000  0.4574210000000 1.0
C      1  0.5209510000000  0.4572480000000  0.5321520000000 1.0
C      1  0.4573700000000  0.4679200000000  0.4792450000000 1.0
C      1  0.5427750000000  0.5319790000000  0.4792450000000 1.0
C      1  0.5427750000000  0.4679200000000  0.5210010000000 1.0
C      1  0.5321020000000  0.4790720000000  0.5428250000000 1.0
C      1  0.4680430000000  0.5208280000000  0.5428250000000 1.0
C      1  0.4680430000000  0.4790720000000  0.4574210000000 1.0
C      1  0.5209510000000  0.5426520000000  0.4680930000000 1.0
C      1  0.4791940000000  0.4572480000000  0.4680930000000 1.0
C      1  0.4791940000000  0.5426520000000  0.5321530000000 1.0
C      1  0.4414210000000  0.5388130000000  0.4513000000000 1.0
C      1  0.4512500000000  0.4412980000000  0.5389860000000 1.0
C      1  0.5389360000000  0.4511270000000  0.4414710000000 1.0
C      1  0.4414210000000  0.4610870000000  0.5489460000000 1.0
C      1  0.5587240000000  0.4610870000000  0.4513000000000 1.0
C      1  0.5587240000000  0.5388130000000  0.5489460000000 1.0
C      1  0.4512500000000  0.5586010000000  0.4612600000000 1.0
C      1  0.5488950000000  0.5586010000000  0.5389860000000 1.0
C      1  0.5488950000000  0.4412980000000  0.4612600000000 1.0
C      1  0.5389360000000  0.5487720000000  0.5587750000000 1.0
C      1  0.4612090000000  0.5487720000000  0.4414710000000 1.0
C      1  0.4612090000000  0.4511270000000  0.5587750000000 1.0
C      1  0.4414210000000  0.4511270000000  0.5389860000000 1.0
C      1  0.4512500000000  0.5388130000000  0.4414710000000 1.0
C      1  0.5389360000000  0.4412980000000  0.4513000000000 1.0
C      1  0.4414210000000  0.5487730000000  0.4612600000000 1.0
C      1  0.5587240000000  0.4511270000000  0.4612600000000 1.0
C      1  0.5587240000000  0.5487730000000  0.5389860000000 1.0
C      1  0.4512500000000  0.4610870000000  0.5587750000000 1.0
C      1  0.5488950000000  0.5388130000000  0.5587750000000 1.0
C      1  0.5488950000000  0.4610870000000  0.4414710000000 1.0
C      1  0.5389360000000  0.5586010000000  0.5489460000000 1.0
C      1  0.4612090000000  0.4412980000000  0.5489460000000 1.0
C      1  0.4612090000000  0.5586010000000  0.4513000000000 1.0
C      1  0.5732680000000  0.5252250000000  0.5352390000000 1.0
C      1  0.5351880000000  0.5731450000000  0.5253980000000 1.0
C      1  0.5253480000000  0.5350650000000  0.5733180000000 1.0
C      1  0.5732680000000  0.4746740000000  0.4650070000000 1.0
C      1  0.4268770000000  0.4746740000000  0.5352390000000 1.0
C      1  0.4268770000000  0.5252250000000  0.4650070000000 1.0
C      1  0.5351880000000  0.4267550000000  0.4748480000000 1.0
C      1  0.4649570000000  0.4267550000000  0.5253980000000 1.0
C      1  0.4649570000000  0.5731450000000  0.4748480000000 1.0
C      1  0.5253480000000  0.4648340000000  0.4269280000000 1.0
C      1  0.4747970000000  0.4648340000000  0.5733180000000 1.0
C      1  0.4747970000000  0.5350650000000  0.4269280000000 1.0
C      1  0.5732680000000  0.5350660000000  0.5253980000000 1.0
C      1  0.5351880000000  0.5252250000000  0.5733180000000 1.0
C      1  0.5253480000000  0.5731450000000  0.5352390000000 1.0
C      1  0.5732680000000  0.4648340000000  0.4748480000000 1.0
C      1  0.4268770000000  0.5350660000000  0.4748480000000 1.0
C      1  0.4268770000000  0.4648340000000  0.5253980000000 1.0
C      1  0.5351880000000  0.4746740000000  0.4269280000000 1.0
C      1  0.4649570000000  0.5252250000000  0.4269280000000 1.0
C      1  0.4649570000000  0.4746740000000  0.5733180000000 1.0
C      1  0.5253480000000  0.4267550000000  0.4650070000000 1.0
C      1  0.4747970000000  0.5731450000000  0.4650070000000 1.0
C      1  0.4747970000000  0.4267550000000  0.5352390000000 1.0
C      1  0.4714550000000  0.5175840000000  0.4609200000000 1.0
C      1  0.4608690000000  0.4713320000000  0.5177570000000 1.0
C      1  0.5177070000000  0.4607460000000  0.4715050000000 1.0
C      1  0.4714550000000  0.4823150000000  0.5393260000000 1.0
C      1  0.5286900000000  0.4823150000000  0.4609200000000 1.0
C      1  0.5286900000000  0.5175840000000  0.5393260000000 1.0
C      1  0.4608690000000  0.5285670000000  0.4824880000000 1.0
C      1  0.5392760000000  0.5285670000000  0.5177570000000 1.0
C      1  0.5392760000000  0.4713320000000  0.4824880000000 1.0
C      1  0.5177070000000  0.5391530000000  0.5287400000000 1.0
C      1  0.4824380000000  0.5391530000000  0.4715050000000 1.0
C      1  0.4824380000000  0.4607470000000  0.5287400000000 1.0
C      1  0.4714550000000  0.4607460000000  0.5177570000000 1.0
C      1  0.4608690000000  0.5175840000000  0.4715050000000 1.0
C      1  0.5177070000000  0.4713320000000  0.4609200000000 1.0
C      1  0.4714550000000  0.5391530000000  0.4824880000000 1.0
C      1  0.5286900000000  0.4607460000000  0.4824880000000 1.0
C      1  0.5286900000000  0.5391530000000  0.5177570000000 1.0
C      1  0.4608690000000  0.4823150000000  0.5287400000000 1.0
C      1  0.5392760000000  0.5175840000000  0.5287400000000 1.0
C      1  0.5392760000000  0.4823150000000  0.4715050000000 1.0
C      1  0.5177070000000  0.5285670000000  0.5393260000000 1.0
C      1  0.4824380000000  0.4713320000000  0.5393260000000 1.0
C      1  0.4824380000000  0.5285670000000  0.4609200000000 1.0
C      1  0.5601750000000  0.4495670000000  0.4857670000000 1.0
C      1  0.4857170000000  0.5600520000000  0.4497400000000 1.0
C      1  0.4496900000000  0.4855940000000  0.5602250000000 1.0
C      1  0.5601750000000  0.5503330000000  0.5144780000000 1.0
C      1  0.4399700000000  0.5503330000000  0.4857670000000 1.0
C      1  0.4399700000000  0.4495670000000  0.5144780000000 1.0
C      1  0.4857170000000  0.4398470000000  0.5505060000000 1.0
C      1  0.5144280000000  0.4398470000000  0.4497400000000 1.0
C      1  0.5144280000000  0.5600520000000  0.5505060000000 1.0
C      1  0.4496900000000  0.5143050000000  0.4400200000000 1.0
C      1  0.5504550000000  0.5143050000000  0.5602250000000 1.0
C      1  0.5504550000000  0.4855940000000  0.4400200000000 1.0
C      1  0.5601750000000  0.4855940000000  0.4497400000000 1.0
C      1  0.4857170000000  0.4495670000000  0.5602250000000 1.0
C      1  0.4496900000000  0.5600520000000  0.4857670000000 1.0
C      1  0.5601750000000  0.5143050000000  0.5505060000000 1.0
C      1  0.4399700000000  0.4855940000000  0.5505060000000 1.0
C      1  0.4399700000000  0.5143050000000  0.4497400000000 1.0
C      1  0.4857170000000  0.5503320000000  0.4400200000000 1.0
C      1  0.5144280000000  0.4495670000000  0.4400200000000 1.0
C      1  0.5144280000000  0.5503320000000  0.5602250000000 1.0
C      1  0.4496900000000  0.4398470000000  0.5144780000000 1.0
C      1  0.5504550000000  0.5600520000000  0.5144780000000 1.0
C      1  0.5504550000000  0.4398470000000  0.4857670000000 1.0
C      1  0.5240870000000  0.5135140000000  0.4161860000000 1.0
C      1  0.4161360000000  0.5239650000000  0.5136870000000 1.0
C      1  0.5136370000000  0.4160130000000  0.5241380000000 1.0
C      1  0.5240870000000  0.4863850000000  0.5840590000000 1.0
C      1  0.4760580000000  0.4863850000000  0.4161860000000 1.0
C      1  0.4760580000000  0.5135140000000  0.5840590000000 1.0
C      1  0.4161360000000  0.4759350000000  0.4865580000000 1.0
C      1  0.5840090000000  0.4759350000000  0.5136870000000 1.0
C      1  0.5840090000000  0.5239650000000  0.4865580000000 1.0
C      1  0.5136370000000  0.5838860000000  0.4761080000000 1.0
C      1  0.4865080000000  0.5838860000000  0.5241380000000 1.0
C      1  0.4865080000000  0.4160130000000  0.4761080000000 1.0
C      1  0.5240870000000  0.4160130000000  0.5136870000000 1.0
C      1  0.4161360000000  0.5135140000000  0.5241380000000 1.0
C      1  0.5136370000000  0.5239640000000  0.4161860000000 1.0
C      1  0.5240870000000  0.5838860000000  0.4865580000000 1.0
C      1  0.4760580000000  0.4160130000000  0.4865580000000 1.0
C      1  0.4760580000000  0.5838860000000  0.5136870000000 1.0
C      1  0.4161360000000  0.4863850000000  0.4761080000000 1.0
C      1  0.5840090000000  0.5135140000000  0.4761080000000 1.0
C      1  0.5840090000000  0.4863850000000  0.5241380000000 1.0
C      1  0.5136370000000  0.4759350000000  0.5840590000000 1.0
C      1  0.4865080000000  0.5239640000000  0.5840590000000 1.0
C      1  0.4865080000000  0.4759350000000  0.4161860000000 1.0
C      1  0.5294620000000  0.5767020000000  0.4609890000000 1.0
C      1  0.4609390000000  0.5293390000000  0.5768750000000 1.0
C      1  0.5768250000000  0.4608160000000  0.5295130000000 1.0
C      1  0.5294620000000  0.4231970000000  0.5392560000000 1.0
C      1  0.4706830000000  0.4231970000000  0.4609890000000 1.0
C      1  0.4706830000000  0.5767020000000  0.5392560000000 1.0
C      1  0.4609390000000  0.4705600000000  0.4233700000000 1.0
C      1  0.5392060000000  0.4705600000000  0.5768750000000 1.0
C      1  0.5392060000000  0.5293390000000  0.4233700000000 1.0
C      1  0.5768250000000  0.5390830000000  0.4707330000000 1.0
C      1  0.4233200000000  0.5390830000000  0.5295130000000 1.0
C      1  0.4233200000000  0.4608160000000  0.4707330000000 1.0
C      1  0.5294620000000  0.4608160000000  0.5768750000000 1.0
C      1  0.4609390000000  0.5767020000000  0.5295130000000 1.0
C      1  0.5768250000000  0.5293400000000  0.4609890000000 1.0
C      1  0.5294620000000  0.5390830000000  0.4233700000000 1.0
C      1  0.4706830000000  0.4608160000000  0.4233700000000 1.0
C      1  0.4706830000000  0.5390830000000  0.5768750000000 1.0
C      1  0.4609390000000  0.4231970000000  0.4707330000000 1.0
C      1  0.5392060000000  0.5767020000000  0.4707330000000 1.0
C      1  0.5392060000000  0.4231970000000  0.5295130000000 1.0
C      1  0.5768250000000  0.4705600000000  0.5392560000000 1.0
C      1  0.4233200000000  0.5293400000000  0.5392560000000 1.0
C      1  0.4233200000000  0.4705600000000  0.4609890000000 1.0
C      1  0.5123750000000  0.5747500000000  0.5301650000000 1.0
C      1  0.5301150000000  0.5122520000000  0.5749230000000 1.0
C      1  0.5748730000000  0.5299920000000  0.5124250000000 1.0
C      1  0.5123750000000  0.4251500000000  0.4700810000000 1.0
C      1  0.4877700000000  0.4251500000000  0.5301650000000 1.0
C      1  0.4877700000000  0.5747500000000  0.4700810000000 1.0
C      1  0.5301150000000  0.4876480000000  0.4253230000000 1.0
C      1  0.4700300000000  0.4876480000000  0.5749230000000 1.0
C      1  0.4700300000000  0.5122520000000  0.4253230000000 1.0
C      1  0.5748730000000  0.4699080000000  0.4878210000000 1.0
C      1  0.4252720000000  0.4699070000000  0.5124250000000 1.0
C      1  0.4252720000000  0.5299920000000  0.4878210000000 1.0
C      1  0.5123750000000  0.5299920000000  0.5749230000000 1.0
C      1  0.5301150000000  0.5747500000000  0.5124250000000 1.0
C      1  0.5748730000000  0.5122520000000  0.5301650000000 1.0
C      1  0.5123750000000  0.4699080000000  0.4253230000000 1.0
C      1  0.4877700000000  0.5299920000000  0.4253230000000 1.0
C      1  0.4877700000000  0.4699080000000  0.5749230000000 1.0
C      1  0.5301150000000  0.4251500000000  0.4878210000000 1.0
C      1  0.4700300000000  0.5747500000000  0.4878210000000 1.0
C      1  0.4700300000000  0.4251500000000  0.5124250000000 1.0
C      1  0.5748730000000  0.4876480000000  0.4700810000000 1.0
C      1  0.4252720000000  0.5122520000000  0.4700810000000 1.0
C      1  0.4252720000000  0.4876480000000  0.5301650000000 1.0
C      1  0.5327330000000  0.4328810000000  0.5488590000000 1.0
C      1  0.5488090000000  0.5326110000000  0.4330540000000 1.0
C      1  0.4330030000000  0.5486860000000  0.5327840000000 1.0
C      1  0.5327330000000  0.5670190000000  0.4513870000000 1.0
C      1  0.4674120000000  0.5670190000000  0.5488590000000 1.0
C      1  0.4674120000000  0.4328810000000  0.4513870000000 1.0
C      1  0.5488090000000  0.4672890000000  0.5671920000000 1.0
C      1  0.4513360000000  0.4672890000000  0.4330540000000 1.0
C      1  0.4513360000000  0.5326110000000  0.5671920000000 1.0
C      1  0.4330030000000  0.4512130000000  0.4674620000000 1.0
C      1  0.5671420000000  0.4512130000000  0.5327840000000 1.0
C      1  0.5671420000000  0.5486860000000  0.4674620000000 1.0
C      1  0.5327330000000  0.5486860000000  0.4330540000000 1.0
C      1  0.5488090000000  0.4328810000000  0.5327840000000 1.0
C      1  0.4330030000000  0.5326110000000  0.5488590000000 1.0
C      1  0.5327330000000  0.4512130000000  0.5671920000000 1.0
C      1  0.4674120000000  0.5486860000000  0.5671920000000 1.0
C      1  0.4674120000000  0.4512130000000  0.4330540000000 1.0
C      1  0.5488090000000  0.5670190000000  0.4674620000000 1.0
C      1  0.4513360000000  0.4328810000000  0.4674620000000 1.0
C      1  0.4513360000000  0.5670190000000  0.5327840000000 1.0
C      1  0.4330030000000  0.4672890000000  0.4513860000000 1.0
C      1  0.5671420000000  0.5326110000000  0.4513860000000 1.0
C      1  0.5671420000000  0.4672890000000  0.5488590000000 1.0
C      1  0.4135330000000  0.5214860000000  0.4882880000000 1.0
C      1  0.4882370000000  0.4134100000000  0.5216590000000 1.0
C      1  0.5216080000000  0.4881150000000  0.4135830000000 1.0
C      1  0.4135330000000  0.4784140000000  0.5119580000000 1.0
C      1  0.5866120000000  0.4784140000000  0.4882880000000 1.0
C      1  0.5866120000000  0.5214860000000  0.5119580000000 1.0
C      1  0.4882370000000  0.5864890000000  0.4785870000000 1.0
C      1  0.5119080000000  0.5864890000000  0.5216590000000 1.0
C      1  0.5119080000000  0.4134100000000  0.4785870000000 1.0
C      1  0.5216080000000  0.5117850000000  0.5866630000000 1.0
C      1  0.4785370000000  0.5117850000000  0.4135830000000 1.0
C      1  0.4785370000000  0.4881150000000  0.5866630000000 1.0
C      1  0.4135330000000  0.4881150000000  0.5216590000000 1.0
C      1  0.4882370000000  0.5214860000000  0.4135830000000 1.0
C      1  0.5216080000000  0.4134100000000  0.4882880000000 1.0
C      1  0.4135330000000  0.5117850000000  0.4785870000000 1.0
C      1  0.5866120000000  0.4881150000000  0.4785870000000 1.0
C      1  0.5866120000000  0.5117850000000  0.5216590000000 1.0
C      1  0.4882370000000  0.4784140000000  0.5866630000000 1.0
C      1  0.5119080000000  0.5214860000000  0.5866630000000 1.0
C      1  0.5119080000000  0.4784140000000  0.4135830000000 1.0
C      1  0.5216080000000  0.5864900000000  0.5119580000000 1.0
C      1  0.4785370000000  0.4134100000000  0.5119580000000 1.0
C      1  0.4785370000000  0.5864900000000  0.4882880000000 1.0
C      1  0.5475320000000  0.4524900000000  0.5647120000000 1.0
C      1  0.5646610000000  0.5474090000000  0.4526630000000 1.0
C      1  0.5475320000000  0.5474090000000  0.4355340000000 1.0
C      1  0.4526130000000  0.5474090000000  0.5647120000000 1.0
C      1  0.5646610000000  0.4524900000000  0.5475830000000 1.0
C      1  0.4354840000000  0.4524900000000  0.4526630000000 1.0
C      1  0.4354840000000  0.5474090000000  0.5475830000000 1.0
C      1  0.5475320000000  0.5645380000000  0.4526630000000 1.0
C      1  0.5475320000000  0.4353610000000  0.5475830000000 1.0
C      1  0.4526130000000  0.5645380000000  0.5475830000000 1.0
C      1  0.4526130000000  0.4524900000000  0.4355340000000 1.0
C      1  0.4526130000000  0.4353610000000  0.4526630000000 1.0
C      1  0.5545500000000  0.5544270000000  0.4456460000000 1.0
C      1  0.4455950000000  0.5544270000000  0.5546000000000 1.0
C      1  0.5545500000000  0.4454720000000  0.5546000000000 1.0
C      1  0.4455950000000  0.4454720000000  0.4456460000000 1.0
END
