TITL C-1379266-1300-319 2.87393830713512e-06 1000000 -2595.15046850713 0 0 380 (Th) n - 1
REM
REM in /nfs/bkarasulu/CARBON/AIRSS/Generating-Clusters/GAP-ML-2020/Higher-Symm/Selected-Sizes/TryA-Only_Ih-Symm/Larger-Clusters/Try2-MINAMP_6A
REM
REM
REM
REM
REM
REM ./C.cell (31579ac4e95a012ec27f3239692ae8a5)
REM
REM compiler GCC version 9.2.1 20190827 (Red Hat 9.2.1-1)
REM options -cpp -mtune=generic -march=x86-64 -g -O0 -fpre-include=/usr/include/finclude/math-vector-fortran.h
REM seed -180531253 962020819 180750250 -110074891 242201228 -1916491932 -1812454890 -928717511 -1536035647 1746674846 -1494101510 528167533 1585743516 165286386 -194211614 7089361 1417363871 -46237850 1650912384 -648825465 -1784214197 -2035133107 -2106460204 1730276706 -496776191 -908145175 1326313590 600426336 720006493 -1955538665 -1578405930 -254403831 -1491206934
REM
CELL 1.54180  100.00000  100.00000  100.00000   90.00000   90.00000   90.00000
LATT -1
SFAC C  
C      1  0.4685320000000  0.4722290000000  0.5416170000000 1.0
C      1  0.4723780000000  0.5415210000000  0.4684770000000 1.0
C      1  0.5416710000000  0.4683820000000  0.4723240000000 1.0
C      1  0.5316590000000  0.5276630000000  0.5416170000000 1.0
C      1  0.4685320000000  0.5276630000000  0.4584660000000 1.0
C      1  0.5316590000000  0.4722290000000  0.4584650000000 1.0
C      1  0.5278130000000  0.4583700000000  0.4684780000000 1.0
C      1  0.4723780000000  0.4583700000000  0.5316050000000 1.0
C      1  0.5278130000000  0.5415210000000  0.5316050000000 1.0
C      1  0.4585200000000  0.5315090000000  0.4723240000000 1.0
C      1  0.5416710000000  0.5315100000000  0.5277580000000 1.0
C      1  0.4585200000000  0.4683820000000  0.5277580000000 1.0
C      1  0.4685320000000  0.4722290000000  0.4584660000000 1.0
C      1  0.4723780000000  0.5415220000000  0.5316050000000 1.0
C      1  0.5416710000000  0.4683820000000  0.5277580000000 1.0
C      1  0.5316590000000  0.5276630000000  0.4584650000000 1.0
C      1  0.4685320000000  0.5276630000000  0.5416170000000 1.0
C      1  0.5316590000000  0.4722290000000  0.5416170000000 1.0
C      1  0.5278130000000  0.4583700000000  0.5316050000000 1.0
C      1  0.4723780000000  0.4583700000000  0.4684780000000 1.0
C      1  0.5278130000000  0.5415210000000  0.4684770000000 1.0
C      1  0.4585200000000  0.5315090000000  0.5277580000000 1.0
C      1  0.5416710000000  0.5315100000000  0.4723240000000 1.0
C      1  0.4585200000000  0.4683820000000  0.4723240000000 1.0
C      1  0.5354340000000  0.4471820000000  0.5390830000000 1.0
C      1  0.4473320000000  0.5389880000000  0.5353790000000 1.0
C      1  0.5391370000000  0.5352840000000  0.4472780000000 1.0
C      1  0.4647570000000  0.5527090000000  0.5390830000000 1.0
C      1  0.5354340000000  0.5527090000000  0.4609990000000 1.0
C      1  0.4647570000000  0.4471820000000  0.4609990000000 1.0
C      1  0.5528590000000  0.4609040000000  0.5353790000000 1.0
C      1  0.4473320000000  0.4609040000000  0.4647030000000 1.0
C      1  0.5528590000000  0.5389880000000  0.4647030000000 1.0
C      1  0.4610540000000  0.4646080000000  0.4472780000000 1.0
C      1  0.5391370000000  0.4646080000000  0.5528050000000 1.0
C      1  0.4610540000000  0.5352840000000  0.5528050000000 1.0
C      1  0.5354340000000  0.4471820000000  0.4609990000000 1.0
C      1  0.4473320000000  0.5389880000000  0.4647030000000 1.0
C      1  0.5391370000000  0.5352840000000  0.5528050000000 1.0
C      1  0.4647570000000  0.5527090000000  0.4609990000000 1.0
C      1  0.5354340000000  0.5527090000000  0.5390830000000 1.0
C      1  0.4647570000000  0.4471820000000  0.5390830000000 1.0
C      1  0.5528590000000  0.4609040000000  0.4647030000000 1.0
C      1  0.4473320000000  0.4609040000000  0.5353790000000 1.0
C      1  0.5528590000000  0.5389880000000  0.5353790000000 1.0
C      1  0.4610540000000  0.4646080000000  0.5528050000000 1.0
C      1  0.5391370000000  0.4646080000000  0.4472780000000 1.0
C      1  0.4610540000000  0.5352840000000  0.4472780000000 1.0
C      1  0.4828480000000  0.4781140000000  0.5456180000000 1.0
C      1  0.4782640000000  0.5455220000000  0.4827940000000 1.0
C      1  0.5456720000000  0.4826990000000  0.4782100000000 1.0
C      1  0.5173420000000  0.5217770000000  0.5456180000000 1.0
C      1  0.4828480000000  0.5217770000000  0.4544650000000 1.0
C      1  0.5173420000000  0.4781140000000  0.4544640000000 1.0
C      1  0.5219270000000  0.4543690000000  0.4827940000000 1.0
C      1  0.4782640000000  0.4543690000000  0.5172880000000 1.0
C      1  0.5219270000000  0.5455230000000  0.5172880000000 1.0
C      1  0.4545190000000  0.5171930000000  0.4782100000000 1.0
C      1  0.5456720000000  0.5171930000000  0.5218730000000 1.0
C      1  0.4545190000000  0.4826990000000  0.5218730000000 1.0
C      1  0.4828480000000  0.4781140000000  0.4544650000000 1.0
C      1  0.4782640000000  0.5455220000000  0.5172880000000 1.0
C      1  0.5456720000000  0.4826990000000  0.5218730000000 1.0
C      1  0.5173420000000  0.5217770000000  0.4544640000000 1.0
C      1  0.4828480000000  0.5217770000000  0.5456180000000 1.0
C      1  0.5173420000000  0.4781140000000  0.5456180000000 1.0
C      1  0.5219270000000  0.4543690000000  0.5172880000000 1.0
C      1  0.4782640000000  0.4543690000000  0.4827940000000 1.0
C      1  0.5219270000000  0.5455230000000  0.4827940000000 1.0
C      1  0.4545190000000  0.5171930000000  0.5218730000000 1.0
C      1  0.5456720000000  0.5171930000000  0.4782100000000 1.0
C      1  0.4545190000000  0.4826990000000  0.4782100000000 1.0
C      1  0.5722880000000  0.5400560000000  0.4820460000000 1.0
C      1  0.5402060000000  0.4819510000000  0.5722340000000 1.0
C      1  0.4821000000000  0.5721380000000  0.5401520000000 1.0
C      1  0.4279030000000  0.4598350000000  0.4820460000000 1.0
C      1  0.5722880000000  0.4598350000000  0.5180360000000 1.0
C      1  0.4279030000000  0.5400560000000  0.5180360000000 1.0
C      1  0.4599850000000  0.5179410000000  0.5722340000000 1.0
C      1  0.5402060000000  0.5179410000000  0.4278490000000 1.0
C      1  0.4599850000000  0.4819510000000  0.4278490000000 1.0
C      1  0.5180900000000  0.4277530000000  0.5401520000000 1.0
C      1  0.4821000000000  0.4277530000000  0.4599300000000 1.0
C      1  0.5180900000000  0.5721380000000  0.4599310000000 1.0
C      1  0.5722880000000  0.5400560000000  0.5180360000000 1.0
C      1  0.5402060000000  0.4819510000000  0.4278490000000 1.0
C      1  0.4821000000000  0.5721380000000  0.4599310000000 1.0
C      1  0.4279030000000  0.4598350000000  0.5180360000000 1.0
C      1  0.5722880000000  0.4598350000000  0.4820460000000 1.0
C      1  0.4279030000000  0.5400560000000  0.4820460000000 1.0
C      1  0.4599850000000  0.5179410000000  0.4278490000000 1.0
C      1  0.5402060000000  0.5179410000000  0.5722340000000 1.0
C      1  0.4599850000000  0.4819510000000  0.5722340000000 1.0
C      1  0.5180900000000  0.4277530000000  0.4599300000000 1.0
C      1  0.4821000000000  0.4277530000000  0.5401520000000 1.0
C      1  0.5180900000000  0.5721380000000  0.5401520000000 1.0
C      1  0.4766460000000  0.4916660000000  0.5494870000000 1.0
C      1  0.4918160000000  0.5493920000000  0.4765920000000 1.0
C      1  0.5495420000000  0.4764960000000  0.4917620000000 1.0
C      1  0.5235450000000  0.5082250000000  0.5494870000000 1.0
C      1  0.4766460000000  0.5082250000000  0.4505950000000 1.0
C      1  0.5235450000000  0.4916660000000  0.4505950000000 1.0
C      1  0.5083750000000  0.4505000000000  0.4765920000000 1.0
C      1  0.4918160000000  0.4505000000000  0.5234910000000 1.0
C      1  0.5083750000000  0.5493920000000  0.5234910000000 1.0
C      1  0.4506490000000  0.5233950000000  0.4917620000000 1.0
C      1  0.5495420000000  0.5233950000000  0.5083210000000 1.0
C      1  0.4506490000000  0.4764960000000  0.5083210000000 1.0
C      1  0.4766460000000  0.4916660000000  0.4505950000000 1.0
C      1  0.4918160000000  0.5493920000000  0.5234910000000 1.0
C      1  0.5495420000000  0.4764960000000  0.5083210000000 1.0
C      1  0.5235450000000  0.5082250000000  0.4505950000000 1.0
C      1  0.4766460000000  0.5082250000000  0.5494870000000 1.0
C      1  0.5235450000000  0.4916660000000  0.5494870000000 1.0
C      1  0.5083750000000  0.4505000000000  0.5234910000000 1.0
C      1  0.4918160000000  0.4505000000000  0.4765920000000 1.0
C      1  0.5083750000000  0.5493920000000  0.4765920000000 1.0
C      1  0.4506490000000  0.5233950000000  0.5083210000000 1.0
C      1  0.5495420000000  0.5233950000000  0.4917620000000 1.0
C      1  0.4506490000000  0.4764960000000  0.4917620000000 1.0
C      1  0.5210590000000  0.5067670000000  0.4354280000000 1.0
C      1  0.5069160000000  0.4353330000000  0.5210050000000 1.0
C      1  0.4354820000000  0.5209100000000  0.5068620000000 1.0
C      1  0.4791320000000  0.4931250000000  0.4354280000000 1.0
C      1  0.5210590000000  0.4931250000000  0.5646540000000 1.0
C      1  0.4791320000000  0.5067670000000  0.5646540000000 1.0
C      1  0.4932740000000  0.5645590000000  0.5210050000000 1.0
C      1  0.5069160000000  0.5645590000000  0.4790770000000 1.0
C      1  0.4932740000000  0.4353330000000  0.4790770000000 1.0
C      1  0.5647080000000  0.4789820000000  0.5068620000000 1.0
C      1  0.4354820000000  0.4789820000000  0.4932200000000 1.0
C      1  0.5647080000000  0.5209100000000  0.4932200000000 1.0
C      1  0.5210590000000  0.5067670000000  0.5646540000000 1.0
C      1  0.5069160000000  0.4353330000000  0.4790770000000 1.0
C      1  0.4354820000000  0.5209100000000  0.4932200000000 1.0
C      1  0.4791320000000  0.4931250000000  0.5646540000000 1.0
C      1  0.5210590000000  0.4931250000000  0.4354280000000 1.0
C      1  0.4791320000000  0.5067670000000  0.4354280000000 1.0
C      1  0.4932740000000  0.5645590000000  0.4790770000000 1.0
C      1  0.5069160000000  0.5645590000000  0.5210050000000 1.0
C      1  0.4932740000000  0.4353330000000  0.5210050000000 1.0
C      1  0.5647080000000  0.4789820000000  0.4932200000000 1.0
C      1  0.4354820000000  0.4789820000000  0.5068620000000 1.0
C      1  0.5647080000000  0.5209100000000  0.5068620000000 1.0
C      1  0.5129770000000  0.4685600000000  0.4411010000000 1.0
C      1  0.4687100000000  0.4410060000000  0.5129230000000 1.0
C      1  0.4411550000000  0.5128270000000  0.4686560000000 1.0
C      1  0.4872140000000  0.5313310000000  0.4411010000000 1.0
C      1  0.5129770000000  0.5313310000000  0.5589810000000 1.0
C      1  0.4872140000000  0.4685600000000  0.5589810000000 1.0
C      1  0.5314810000000  0.5588860000000  0.5129230000000 1.0
C      1  0.4687100000000  0.5588860000000  0.4871600000000 1.0
C      1  0.5314810000000  0.4410060000000  0.4871600000000 1.0
C      1  0.5590350000000  0.4870640000000  0.4686560000000 1.0
C      1  0.4411550000000  0.4870640000000  0.5314270000000 1.0
C      1  0.5590350000000  0.5128270000000  0.5314270000000 1.0
C      1  0.5129770000000  0.4685600000000  0.5589810000000 1.0
C      1  0.4687100000000  0.4410060000000  0.4871600000000 1.0
C      1  0.4411550000000  0.5128270000000  0.5314270000000 1.0
C      1  0.4872140000000  0.5313310000000  0.5589810000000 1.0
C      1  0.5129770000000  0.5313310000000  0.4411010000000 1.0
C      1  0.4872140000000  0.4685600000000  0.4411010000000 1.0
C      1  0.5314810000000  0.5588860000000  0.4871600000000 1.0
C      1  0.4687100000000  0.5588860000000  0.5129230000000 1.0
C      1  0.5314810000000  0.4410060000000  0.5129230000000 1.0
C      1  0.5590350000000  0.4870640000000  0.5314270000000 1.0
C      1  0.4411550000000  0.4870640000000  0.4686560000000 1.0
C      1  0.5590350000000  0.5128270000000  0.4686560000000 1.0
C      1  0.5163980000000  0.4260130000000  0.5253850000000 1.0
C      1  0.4261630000000  0.5252890000000  0.5163440000000 1.0
C      1  0.5254390000000  0.5162480000000  0.4261080000000 1.0
C      1  0.4837930000000  0.5738790000000  0.5253850000000 1.0
C      1  0.5163980000000  0.5738790000000  0.4746980000000 1.0
C      1  0.4837930000000  0.4260130000000  0.4746980000000 1.0
C      1  0.5740280000000  0.4746020000000  0.5163440000000 1.0
C      1  0.4261630000000  0.4746020000000  0.4837390000000 1.0
C      1  0.5740280000000  0.5252890000000  0.4837390000000 1.0
C      1  0.4747520000000  0.4836430000000  0.4261080000000 1.0
C      1  0.5254390000000  0.4836430000000  0.5739740000000 1.0
C      1  0.4747520000000  0.5162480000000  0.5739740000000 1.0
C      1  0.5163980000000  0.4260130000000  0.4746980000000 1.0
C      1  0.4261630000000  0.5252890000000  0.4837390000000 1.0
C      1  0.5254390000000  0.5162480000000  0.5739740000000 1.0
C      1  0.4837930000000  0.5738790000000  0.4746980000000 1.0
C      1  0.5163980000000  0.5738790000000  0.5253850000000 1.0
C      1  0.4837930000000  0.4260130000000  0.5253850000000 1.0
C      1  0.5740280000000  0.4746020000000  0.4837390000000 1.0
C      1  0.4261630000000  0.4746020000000  0.5163440000000 1.0
C      1  0.5740280000000  0.5252890000000  0.5163440000000 1.0
C      1  0.4747520000000  0.4836430000000  0.5739740000000 1.0
C      1  0.5254390000000  0.4836430000000  0.4261080000000 1.0
C      1  0.4747520000000  0.5162480000000  0.4261080000000 1.0
C      1  0.5416820000000  0.4636700000000  0.5126260000000 1.0
C      1  0.4638190000000  0.5125310000000  0.5416280000000 1.0
C      1  0.5126800000000  0.5415320000000  0.4637650000000 1.0
C      1  0.4585090000000  0.5362220000000  0.5126260000000 1.0
C      1  0.5416820000000  0.5362220000000  0.4874560000000 1.0
C      1  0.4585090000000  0.4636700000000  0.4874560000000 1.0
C      1  0.5363720000000  0.4873610000000  0.5416280000000 1.0
C      1  0.4638190000000  0.4873610000000  0.4584550000000 1.0
C      1  0.5363720000000  0.5125310000000  0.4584550000000 1.0
C      1  0.4875100000000  0.4583590000000  0.4637650000000 1.0
C      1  0.5126800000000  0.4583590000000  0.5363170000000 1.0
C      1  0.4875100000000  0.5415320000000  0.5363170000000 1.0
C      1  0.5416820000000  0.4636700000000  0.4874560000000 1.0
C      1  0.4638190000000  0.5125310000000  0.4584550000000 1.0
C      1  0.5126800000000  0.5415320000000  0.5363170000000 1.0
C      1  0.4585090000000  0.5362220000000  0.4874560000000 1.0
C      1  0.5416820000000  0.5362220000000  0.5126260000000 1.0
C      1  0.4585090000000  0.4636700000000  0.5126260000000 1.0
C      1  0.5363720000000  0.4873610000000  0.4584540000000 1.0
C      1  0.4638190000000  0.4873610000000  0.5416280000000 1.0
C      1  0.5363720000000  0.5125310000000  0.5416280000000 1.0
C      1  0.4875100000000  0.4583590000000  0.5363170000000 1.0
C      1  0.5126800000000  0.4583590000000  0.4637650000000 1.0
C      1  0.4875100000000  0.5415320000000  0.4637650000000 1.0
C      1  0.4932390000000  0.5274010000000  0.5367960000000 1.0
C      1  0.5275510000000  0.5367000000000  0.4931840000000 1.0
C      1  0.5368500000000  0.4930890000000  0.5274960000000 1.0
C      1  0.5069520000000  0.4724910000000  0.5367960000000 1.0
C      1  0.4932390000000  0.4724910000000  0.4632870000000 1.0
C      1  0.5069520000000  0.5274010000000  0.4632870000000 1.0
C      1  0.4726400000000  0.4631910000000  0.4931840000000 1.0
C      1  0.5275510000000  0.4631910000000  0.5068980000000 1.0
C      1  0.4726400000000  0.5367000000000  0.5068980000000 1.0
C      1  0.4633410000000  0.5068030000000  0.5274960000000 1.0
C      1  0.5368500000000  0.5068030000000  0.4725860000000 1.0
C      1  0.4633410000000  0.4930890000000  0.4725860000000 1.0
C      1  0.4932390000000  0.5274010000000  0.4632870000000 1.0
C      1  0.5275510000000  0.5367000000000  0.5068980000000 1.0
C      1  0.5368500000000  0.4930890000000  0.4725860000000 1.0
C      1  0.5069520000000  0.4724910000000  0.4632870000000 1.0
C      1  0.4932390000000  0.4724910000000  0.5367960000000 1.0
C      1  0.5069520000000  0.5274010000000  0.5367960000000 1.0
C      1  0.4726400000000  0.4631910000000  0.5068980000000 1.0
C      1  0.5275510000000  0.4631910000000  0.4931840000000 1.0
C      1  0.4726400000000  0.5367000000000  0.4931840000000 1.0
C      1  0.4633410000000  0.5068030000000  0.4725860000000 1.0
C      1  0.5368500000000  0.5068030000000  0.5274960000000 1.0
C      1  0.4633410000000  0.4930890000000  0.5274960000000 1.0
C      1  0.5562410000000  0.5564130000000  0.5073580000000 1.0
C      1  0.5565620000000  0.5072630000000  0.5561870000000 1.0
C      1  0.5074120000000  0.5560920000000  0.5565080000000 1.0
C      1  0.4439490000000  0.4434790000000  0.5073580000000 1.0
C      1  0.5562410000000  0.4434790000000  0.4927240000000 1.0
C      1  0.4439490000000  0.5564120000000  0.4927240000000 1.0
C      1  0.4436290000000  0.4926290000000  0.5561870000000 1.0
C      1  0.5565620000000  0.4926290000000  0.4438950000000 1.0
C      1  0.4436290000000  0.5072630000000  0.4438950000000 1.0
C      1  0.4927790000000  0.4438000000000  0.5565080000000 1.0
C      1  0.5074120000000  0.4438000000000  0.4435740000000 1.0
C      1  0.4927790000000  0.5560920000000  0.4435740000000 1.0
C      1  0.5562410000000  0.5564130000000  0.4927240000000 1.0
C      1  0.5565620000000  0.5072630000000  0.4438950000000 1.0
C      1  0.5074120000000  0.5560920000000  0.4435740000000 1.0
C      1  0.4439490000000  0.4434790000000  0.4927240000000 1.0
C      1  0.5562410000000  0.4434790000000  0.5073580000000 1.0
C      1  0.4439490000000  0.5564120000000  0.5073580000000 1.0
C      1  0.4436290000000  0.4926290000000  0.4438950000000 1.0
C      1  0.5565620000000  0.4926290000000  0.5561870000000 1.0
C      1  0.4436290000000  0.5072630000000  0.5561870000000 1.0
C      1  0.4927790000000  0.4438000000000  0.4435740000000 1.0
C      1  0.5074120000000  0.4438000000000  0.5565080000000 1.0
C      1  0.4927790000000  0.5560920000000  0.5565080000000 1.0
C      1  0.4342360000000  0.4630010000000  0.5310270000000 1.0
C      1  0.4631510000000  0.5309320000000  0.4341820000000 1.0
C      1  0.5310810000000  0.4340860000000  0.4630970000000 1.0
C      1  0.5659550000000  0.5368900000000  0.5310270000000 1.0
C      1  0.4342360000000  0.5368900000000  0.4690550000000 1.0
C      1  0.5659550000000  0.4630010000000  0.4690550000000 1.0
C      1  0.5370400000000  0.4689600000000  0.4341820000000 1.0
C      1  0.4631510000000  0.4689600000000  0.5659010000000 1.0
C      1  0.5370400000000  0.5309320000000  0.5659010000000 1.0
C      1  0.4691100000000  0.5658050000000  0.4630970000000 1.0
C      1  0.5310810000000  0.5658050000000  0.5369860000000 1.0
C      1  0.4691100000000  0.4340860000000  0.5369860000000 1.0
C      1  0.4342360000000  0.4630010000000  0.4690550000000 1.0
C      1  0.4631510000000  0.5309320000000  0.5659010000000 1.0
C      1  0.5310810000000  0.4340860000000  0.5369860000000 1.0
C      1  0.5659550000000  0.5368900000000  0.4690550000000 1.0
C      1  0.4342360000000  0.5368900000000  0.5310270000000 1.0
C      1  0.5659550000000  0.4630010000000  0.5310270000000 1.0
C      1  0.5370400000000  0.4689600000000  0.5659010000000 1.0
C      1  0.4631510000000  0.4689600000000  0.4341820000000 1.0
C      1  0.5370400000000  0.5309320000000  0.4341820000000 1.0
C      1  0.4691100000000  0.5658050000000  0.5369860000000 1.0
C      1  0.5310810000000  0.5658050000000  0.4630970000000 1.0
C      1  0.4691100000000  0.4340860000000  0.4630970000000 1.0
C      1  0.4704810000000  0.5694910000000  0.4771220000000 1.0
C      1  0.5696400000000  0.4770270000000  0.4704270000000 1.0
C      1  0.4771770000000  0.4703310000000  0.5695860000000 1.0
C      1  0.5297100000000  0.4304010000000  0.4771220000000 1.0
C      1  0.4704810000000  0.4304010000000  0.5229600000000 1.0
C      1  0.5297100000000  0.5694910000000  0.5229600000000 1.0
C      1  0.4305510000000  0.5228650000000  0.4704270000000 1.0
C      1  0.5696400000000  0.5228650000000  0.5296560000000 1.0
C      1  0.4305510000000  0.4770270000000  0.5296550000000 1.0
C      1  0.5230140000000  0.5295600000000  0.5695860000000 1.0
C      1  0.4771770000000  0.5295600000000  0.4304960000000 1.0
C      1  0.5230140000000  0.4703310000000  0.4304960000000 1.0
C      1  0.4704810000000  0.5694910000000  0.5229600000000 1.0
C      1  0.5696400000000  0.4770270000000  0.5296550000000 1.0
C      1  0.4771770000000  0.4703310000000  0.4304960000000 1.0
C      1  0.5297100000000  0.4304010000000  0.5229600000000 1.0
C      1  0.4704810000000  0.4304010000000  0.4771220000000 1.0
C      1  0.5297100000000  0.5694910000000  0.4771220000000 1.0
C      1  0.4305510000000  0.5228650000000  0.5296560000000 1.0
C      1  0.5696400000000  0.5228650000000  0.4704270000000 1.0
C      1  0.4305510000000  0.4770270000000  0.4704270000000 1.0
C      1  0.5230140000000  0.5295600000000  0.4304960000000 1.0
C      1  0.4771770000000  0.5295600000000  0.5695860000000 1.0
C      1  0.5230140000000  0.4703310000000  0.5695860000000 1.0
C      1  0.4522350000000  0.4926320000000  0.4319310000000 1.0
C      1  0.4927810000000  0.4318360000000  0.4521810000000 1.0
C      1  0.4319850000000  0.4520860000000  0.4927270000000 1.0
C      1  0.5479550000000  0.5072600000000  0.4319310000000 1.0
C      1  0.4522350000000  0.5072600000000  0.5681510000000 1.0
C      1  0.5479550000000  0.4926320000000  0.5681510000000 1.0
C      1  0.5074090000000  0.5680560000000  0.4521810000000 1.0
C      1  0.4927810000000  0.5680560000000  0.5479010000000 1.0
C      1  0.5074090000000  0.4318360000000  0.5479010000000 1.0
C      1  0.5682050000000  0.5478060000000  0.4927270000000 1.0
C      1  0.4319850000000  0.5478060000000  0.5073550000000 1.0
C      1  0.5682050000000  0.4520860000000  0.5073550000000 1.0
C      1  0.4522350000000  0.4926320000000  0.5681510000000 1.0
C      1  0.4927810000000  0.4318360000000  0.5479010000000 1.0
C      1  0.4319850000000  0.4520860000000  0.5073550000000 1.0
C      1  0.5479550000000  0.5072600000000  0.5681510000000 1.0
C      1  0.4522350000000  0.5072600000000  0.4319310000000 1.0
C      1  0.5479550000000  0.4926320000000  0.4319310000000 1.0
C      1  0.5074090000000  0.5680560000000  0.5479010000000 1.0
C      1  0.4927810000000  0.5680560000000  0.4521810000000 1.0
C      1  0.5074090000000  0.4318360000000  0.4521810000000 1.0
C      1  0.5682050000000  0.5478060000000  0.5073550000000 1.0
C      1  0.4319850000000  0.5478060000000  0.4927270000000 1.0
C      1  0.5682050000000  0.4520860000000  0.4927270000000 1.0
C      1  0.4557570000000  0.5515480000000  0.5132420000000 1.0
C      1  0.5516970000000  0.5131470000000  0.4557030000000 1.0
C      1  0.5132960000000  0.4556070000000  0.5516430000000 1.0
C      1  0.5444340000000  0.4483440000000  0.5132420000000 1.0
C      1  0.4557570000000  0.4483440000000  0.4868400000000 1.0
C      1  0.5444340000000  0.5515480000000  0.4868400000000 1.0
C      1  0.4484930000000  0.4867450000000  0.4557030000000 1.0
C      1  0.5516970000000  0.4867450000000  0.5443800000000 1.0
C      1  0.4484930000000  0.5131470000000  0.5443800000000 1.0
C      1  0.4868940000000  0.5442840000000  0.5516430000000 1.0
C      1  0.5132960000000  0.5442840000000  0.4484390000000 1.0
C      1  0.4868940000000  0.4556070000000  0.4484390000000 1.0
C      1  0.4557570000000  0.5515480000000  0.4868400000000 1.0
C      1  0.5516970000000  0.5131470000000  0.5443800000000 1.0
C      1  0.5132960000000  0.4556070000000  0.4484390000000 1.0
C      1  0.5444340000000  0.4483440000000  0.4868400000000 1.0
C      1  0.4557570000000  0.4483440000000  0.5132420000000 1.0
C      1  0.5444340000000  0.5515480000000  0.5132420000000 1.0
C      1  0.4484930000000  0.4867450000000  0.5443800000000 1.0
C      1  0.5516970000000  0.4867450000000  0.4557030000000 1.0
C      1  0.4484930000000  0.5131470000000  0.4557030000000 1.0
C      1  0.4868940000000  0.5442840000000  0.4484390000000 1.0
C      1  0.5132960000000  0.5442840000000  0.5516430000000 1.0
C      1  0.4868940000000  0.4556070000000  0.5516430000000 1.0
C      1  0.5000950000000  0.4731670000000  0.4368250000000 1.0
C      1  0.4368790000000  0.4999460000000  0.4732620000000 1.0
C      1  0.5000950000000  0.5267250000000  0.4368250000000 1.0
C      1  0.5000950000000  0.4731670000000  0.5632570000000 1.0
C      1  0.4733170000000  0.5631620000000  0.5000410000000 1.0
C      1  0.5268740000000  0.4367300000000  0.5000410000000 1.0
C      1  0.5633110000000  0.4999460000000  0.4732620000000 1.0
C      1  0.4368790000000  0.4999460000000  0.5268200000000 1.0
C      1  0.5633110000000  0.4999460000000  0.5268200000000 1.0
C      1  0.5000950000000  0.5267250000000  0.5632570000000 1.0
C      1  0.4733170000000  0.4367300000000  0.5000410000000 1.0
C      1  0.5268740000000  0.5631620000000  0.5000410000000 1.0
C      1  0.5458390000000  0.4542020000000  0.5457850000000 1.0
C      1  0.4543520000000  0.5456900000000  0.5457850000000 1.0
C      1  0.5458390000000  0.5456900000000  0.4542970000000 1.0
C      1  0.4543520000000  0.4542020000000  0.4542970000000 1.0
C      1  0.5458390000000  0.4542020000000  0.4542970000000 1.0
C      1  0.4543520000000  0.5456900000000  0.4542970000000 1.0
C      1  0.5458390000000  0.5456900000000  0.5457850000000 1.0
C      1  0.4543520000000  0.4542020000000  0.5457850000000 1.0
END
