TITL C-1379266-1300-128 2.46811443669423e-07 1000000 -1753.05438741097 0 0 240 (Td) n - 1
REM
REM in /nfs/bkarasulu/CARBON/AIRSS/Generating-Clusters/GAP-ML-2020/Higher-Symm/Selected-Sizes/TryA-Only_Ih-Symm/Larger-Clusters/Try2-MINAMP_6A
REM
REM
REM
REM
REM
REM ./C.cell (31579ac4e95a012ec27f3239692ae8a5)
REM
REM compiler GCC version 9.2.1 20190827 (Red Hat 9.2.1-1)
REM options -cpp -mtune=generic -march=x86-64 -g -O0 -fpre-include=/usr/include/finclude/math-vector-fortran.h
REM seed -1568167969 1118294252 189146325 -1706773114 -477105979 847000051 886545623 -1058510447 2107153118 -857278419 -604577471 -724377053 -302685868 -1631772701 -287790295 -926516380 2045091775 -1586127139 -142891880 814730848 244118153 -1625456250 -838382119 -1651272544 -1451170313 1000600745 -2024862931 727228689 807363878 1726541397 -1539723992 556607993 -1179831720
REM
CELL 1.54180  100.00000  100.00000  100.00000   90.00000   90.00000   90.00000
LATT -1
SFAC C  
C      1  0.4404840000000  0.4504390000000  0.5067350000000 1.0
C      1  0.5067350000000  0.4404840000000  0.4504390000000 1.0
C      1  0.4504390000000  0.5067350000000  0.4404840000000 1.0
C      1  0.4404840000000  0.5495610000000  0.4932650000000 1.0
C      1  0.5595160000000  0.5495610000000  0.5067350000000 1.0
C      1  0.5595160000000  0.4504390000000  0.4932650000000 1.0
C      1  0.5067350000000  0.5595160000000  0.5495610000000 1.0
C      1  0.4932650000000  0.5595160000000  0.4504390000000 1.0
C      1  0.4932650000000  0.4404840000000  0.5495610000000 1.0
C      1  0.4504390000000  0.4932650000000  0.5595160000000 1.0
C      1  0.5495610000000  0.4932650000000  0.4404840000000 1.0
C      1  0.5495610000000  0.5067350000000  0.5595160000000 1.0
C      1  0.4404840000000  0.5067350000000  0.4504390000000 1.0
C      1  0.5067350000000  0.4504390000000  0.4404840000000 1.0
C      1  0.4504390000000  0.4404840000000  0.5067350000000 1.0
C      1  0.4404840000000  0.4932650000000  0.5495610000000 1.0
C      1  0.5595160000000  0.5067350000000  0.5495610000000 1.0
C      1  0.5595160000000  0.4932650000000  0.4504390000000 1.0
C      1  0.5067350000000  0.5495610000000  0.5595160000000 1.0
C      1  0.4932650000000  0.4504390000000  0.5595160000000 1.0
C      1  0.4932650000000  0.5495610000000  0.4404840000000 1.0
C      1  0.4504390000000  0.5595160000000  0.4932650000000 1.0
C      1  0.5495610000000  0.4404840000000  0.4932650000000 1.0
C      1  0.5495610000000  0.5595160000000  0.5067350000000 1.0
C      1  0.5243260000000  0.4657030000000  0.4368110000000 1.0
C      1  0.4368110000000  0.5243260000000  0.4657030000000 1.0
C      1  0.4657030000000  0.4368110000000  0.5243260000000 1.0
C      1  0.5243260000000  0.5342970000000  0.5631890000000 1.0
C      1  0.4756740000000  0.5342970000000  0.4368110000000 1.0
C      1  0.4756740000000  0.4657030000000  0.5631890000000 1.0
C      1  0.4368110000000  0.4756740000000  0.5342970000000 1.0
C      1  0.5631890000000  0.4756740000000  0.4657030000000 1.0
C      1  0.5631890000000  0.5243260000000  0.5342970000000 1.0
C      1  0.4657030000000  0.5631890000000  0.4756740000000 1.0
C      1  0.5342970000000  0.5631890000000  0.5243260000000 1.0
C      1  0.5342970000000  0.4368110000000  0.4756740000000 1.0
C      1  0.5243260000000  0.4368110000000  0.4657030000000 1.0
C      1  0.4368110000000  0.4657030000000  0.5243260000000 1.0
C      1  0.4657030000000  0.5243260000000  0.4368110000000 1.0
C      1  0.5243260000000  0.5631890000000  0.5342970000000 1.0
C      1  0.4756740000000  0.4368110000000  0.5342970000000 1.0
C      1  0.4756740000000  0.5631890000000  0.4657030000000 1.0
C      1  0.4368110000000  0.5342970000000  0.4756740000000 1.0
C      1  0.5631890000000  0.4657030000000  0.4756740000000 1.0
C      1  0.5631890000000  0.5342970000000  0.5243260000000 1.0
C      1  0.4657030000000  0.4756740000000  0.5631890000000 1.0
C      1  0.5342970000000  0.5243260000000  0.5631890000000 1.0
C      1  0.5342970000000  0.4756740000000  0.4368110000000 1.0
C      1  0.4382400000000  0.4761310000000  0.4658770000000 1.0
C      1  0.4658770000000  0.4382400000000  0.4761310000000 1.0
C      1  0.4761310000000  0.4658770000000  0.4382400000000 1.0
C      1  0.4382400000000  0.5238690000000  0.5341230000000 1.0
C      1  0.5617600000000  0.5238690000000  0.4658770000000 1.0
C      1  0.5617600000000  0.4761310000000  0.5341230000000 1.0
C      1  0.4658770000000  0.5617600000000  0.5238690000000 1.0
C      1  0.5341230000000  0.5617600000000  0.4761310000000 1.0
C      1  0.5341230000000  0.4382400000000  0.5238690000000 1.0
C      1  0.4761310000000  0.5341230000000  0.5617600000000 1.0
C      1  0.5238690000000  0.5341230000000  0.4382400000000 1.0
C      1  0.5238690000000  0.4658770000000  0.5617600000000 1.0
C      1  0.4382400000000  0.4658770000000  0.4761310000000 1.0
C      1  0.4658770000000  0.4761310000000  0.4382400000000 1.0
C      1  0.4761310000000  0.4382400000000  0.4658770000000 1.0
C      1  0.4382400000000  0.5341230000000  0.5238690000000 1.0
C      1  0.5617600000000  0.4658770000000  0.5238690000000 1.0
C      1  0.5617600000000  0.5341230000000  0.4761310000000 1.0
C      1  0.4658770000000  0.5238690000000  0.5617600000000 1.0
C      1  0.5341230000000  0.4761310000000  0.5617600000000 1.0
C      1  0.5341230000000  0.5238690000000  0.4382400000000 1.0
C      1  0.4761310000000  0.5617600000000  0.5341230000000 1.0
C      1  0.5238690000000  0.4382400000000  0.5341230000000 1.0
C      1  0.5238690000000  0.5617600000000  0.4658770000000 1.0
C      1  0.4685170000000  0.4330750000000  0.4887420000000 1.0
C      1  0.4887420000000  0.4685170000000  0.4330750000000 1.0
C      1  0.4330750000000  0.4887420000000  0.4685170000000 1.0
C      1  0.4685170000000  0.5669250000000  0.5112580000000 1.0
C      1  0.5314830000000  0.5669250000000  0.4887420000000 1.0
C      1  0.5314830000000  0.4330750000000  0.5112580000000 1.0
C      1  0.4887420000000  0.5314830000000  0.5669250000000 1.0
C      1  0.5112580000000  0.5314830000000  0.4330750000000 1.0
C      1  0.5112580000000  0.4685170000000  0.5669250000000 1.0
C      1  0.4330750000000  0.5112580000000  0.5314830000000 1.0
C      1  0.5669250000000  0.5112580000000  0.4685170000000 1.0
C      1  0.5669250000000  0.4887420000000  0.5314830000000 1.0
C      1  0.4685170000000  0.4887420000000  0.4330750000000 1.0
C      1  0.4887420000000  0.4330750000000  0.4685170000000 1.0
C      1  0.4330750000000  0.4685170000000  0.4887420000000 1.0
C      1  0.4685170000000  0.5112580000000  0.5669250000000 1.0
C      1  0.5314830000000  0.4887420000000  0.5669250000000 1.0
C      1  0.5314830000000  0.5112580000000  0.4330750000000 1.0
C      1  0.4887420000000  0.5669250000000  0.5314830000000 1.0
C      1  0.5112580000000  0.4330750000000  0.5314830000000 1.0
C      1  0.5112580000000  0.5669250000000  0.4685170000000 1.0
C      1  0.4330750000000  0.5314830000000  0.5112580000000 1.0
C      1  0.5669250000000  0.4685170000000  0.5112580000000 1.0
C      1  0.5669250000000  0.5314830000000  0.4887420000000 1.0
C      1  0.5176500000000  0.5077630000000  0.4291320000000 1.0
C      1  0.4291320000000  0.5176500000000  0.5077630000000 1.0
C      1  0.5077630000000  0.4291320000000  0.5176500000000 1.0
C      1  0.5176500000000  0.4922370000000  0.5708680000000 1.0
C      1  0.4823500000000  0.4922370000000  0.4291320000000 1.0
C      1  0.4823500000000  0.5077630000000  0.5708680000000 1.0
C      1  0.4291320000000  0.4823500000000  0.4922370000000 1.0
C      1  0.5708680000000  0.4823500000000  0.5077630000000 1.0
C      1  0.5708680000000  0.5176500000000  0.4922370000000 1.0
C      1  0.5077630000000  0.5708680000000  0.4823500000000 1.0
C      1  0.4922370000000  0.5708680000000  0.5176500000000 1.0
C      1  0.4922370000000  0.4291320000000  0.4823500000000 1.0
C      1  0.5176500000000  0.4291320000000  0.5077630000000 1.0
C      1  0.4291320000000  0.5077630000000  0.5176500000000 1.0
C      1  0.5077630000000  0.5176500000000  0.4291320000000 1.0
C      1  0.5176500000000  0.5708680000000  0.4922370000000 1.0
C      1  0.4823500000000  0.4291320000000  0.4922370000000 1.0
C      1  0.4823500000000  0.5708680000000  0.5077630000000 1.0
C      1  0.4291320000000  0.4922370000000  0.4823500000000 1.0
C      1  0.5708680000000  0.5077630000000  0.4823500000000 1.0
C      1  0.5708680000000  0.4922370000000  0.5176500000000 1.0
C      1  0.5077630000000  0.4823500000000  0.5708680000000 1.0
C      1  0.4922370000000  0.5176500000000  0.5708680000000 1.0
C      1  0.4922370000000  0.4823500000000  0.4291320000000 1.0
C      1  0.5567680000000  0.4533380000000  0.4786100000000 1.0
C      1  0.4786100000000  0.5567680000000  0.4533380000000 1.0
C      1  0.4533380000000  0.4786100000000  0.5567680000000 1.0
C      1  0.5567680000000  0.5466620000000  0.5213900000000 1.0
C      1  0.4432320000000  0.5466620000000  0.4786100000000 1.0
C      1  0.4432320000000  0.4533380000000  0.5213900000000 1.0
C      1  0.4786100000000  0.4432320000000  0.5466620000000 1.0
C      1  0.5213900000000  0.4432320000000  0.4533380000000 1.0
C      1  0.5213900000000  0.5567680000000  0.5466620000000 1.0
C      1  0.4533380000000  0.5213900000000  0.4432320000000 1.0
C      1  0.5466620000000  0.5213900000000  0.5567680000000 1.0
C      1  0.5466620000000  0.4786100000000  0.4432320000000 1.0
C      1  0.5567680000000  0.4786100000000  0.4533380000000 1.0
C      1  0.4786100000000  0.4533380000000  0.5567680000000 1.0
C      1  0.4533380000000  0.5567680000000  0.4786100000000 1.0
C      1  0.5567680000000  0.5213900000000  0.5466620000000 1.0
C      1  0.4432320000000  0.4786100000000  0.5466620000000 1.0
C      1  0.4432320000000  0.5213900000000  0.4533380000000 1.0
C      1  0.4786100000000  0.5466620000000  0.4432320000000 1.0
C      1  0.5213900000000  0.4533380000000  0.4432320000000 1.0
C      1  0.5213900000000  0.5466620000000  0.5567680000000 1.0
C      1  0.4533380000000  0.4432320000000  0.5213900000000 1.0
C      1  0.5466620000000  0.5567680000000  0.5213900000000 1.0
C      1  0.5466620000000  0.4432320000000  0.4786100000000 1.0
C      1  0.4830490000000  0.5069850000000  0.4281670000000 1.0
C      1  0.4281670000000  0.4830490000000  0.5069850000000 1.0
C      1  0.5069850000000  0.4281670000000  0.4830490000000 1.0
C      1  0.4830490000000  0.4930150000000  0.5718330000000 1.0
C      1  0.5169520000000  0.4930150000000  0.4281670000000 1.0
C      1  0.5169510000000  0.5069850000000  0.5718330000000 1.0
C      1  0.4281670000000  0.5169510000000  0.4930150000000 1.0
C      1  0.5718330000000  0.5169510000000  0.5069850000000 1.0
C      1  0.5718330000000  0.4830490000000  0.4930150000000 1.0
C      1  0.5069850000000  0.5718330000000  0.5169510000000 1.0
C      1  0.4930150000000  0.5718330000000  0.4830490000000 1.0
C      1  0.4930150000000  0.4281670000000  0.5169510000000 1.0
C      1  0.4830490000000  0.4281670000000  0.5069850000000 1.0
C      1  0.4281670000000  0.5069850000000  0.4830490000000 1.0
C      1  0.5069850000000  0.4830490000000  0.4281670000000 1.0
C      1  0.4830490000000  0.5718330000000  0.4930150000000 1.0
C      1  0.5169510000000  0.4281670000000  0.4930150000000 1.0
C      1  0.5169510000000  0.5718330000000  0.5069850000000 1.0
C      1  0.4281670000000  0.4930150000000  0.5169510000000 1.0
C      1  0.5718330000000  0.5069850000000  0.5169510000000 1.0
C      1  0.5718330000000  0.4930150000000  0.4830480000000 1.0
C      1  0.5069850000000  0.5169510000000  0.5718330000000 1.0
C      1  0.4930150000000  0.4830490000000  0.5718330000000 1.0
C      1  0.4930150000000  0.5169510000000  0.4281670000000 1.0
C      1  0.4611280000000  0.5009790000000  0.4338930000000 1.0
C      1  0.4338930000000  0.4611280000000  0.5009790000000 1.0
C      1  0.5009790000000  0.4338930000000  0.4611280000000 1.0
C      1  0.4611280000000  0.4990210000000  0.5661070000000 1.0
C      1  0.5388720000000  0.4990210000000  0.4338930000000 1.0
C      1  0.5388720000000  0.5009790000000  0.5661070000000 1.0
C      1  0.4338930000000  0.5388720000000  0.4990210000000 1.0
C      1  0.5661070000000  0.5388720000000  0.5009790000000 1.0
C      1  0.5661070000000  0.4611280000000  0.4990210000000 1.0
C      1  0.5009790000000  0.5661070000000  0.5388720000000 1.0
C      1  0.4990210000000  0.5661070000000  0.4611280000000 1.0
C      1  0.4990210000000  0.4338930000000  0.5388720000000 1.0
C      1  0.4611280000000  0.4338930000000  0.5009790000000 1.0
C      1  0.4338930000000  0.5009790000000  0.4611280000000 1.0
C      1  0.5009790000000  0.4611280000000  0.4338930000000 1.0
C      1  0.4611280000000  0.5661070000000  0.4990210000000 1.0
C      1  0.5388720000000  0.4338930000000  0.4990210000000 1.0
C      1  0.5388720000000  0.5661070000000  0.5009790000000 1.0
C      1  0.4338930000000  0.4990210000000  0.5388720000000 1.0
C      1  0.5661070000000  0.5009790000000  0.5388720000000 1.0
C      1  0.5661070000000  0.4990210000000  0.4611280000000 1.0
C      1  0.5009790000000  0.5388720000000  0.5661070000000 1.0
C      1  0.4990210000000  0.4611280000000  0.5661070000000 1.0
C      1  0.4990210000000  0.5388720000000  0.4338930000000 1.0
C      1  0.5299470000000  0.4883180000000  0.4313500000000 1.0
C      1  0.4313500000000  0.5299470000000  0.4883180000000 1.0
C      1  0.4883180000000  0.4313500000000  0.5299470000000 1.0
C      1  0.5299470000000  0.5116820000000  0.5686500000000 1.0
C      1  0.4700530000000  0.5116820000000  0.4313500000000 1.0
C      1  0.4700530000000  0.4883180000000  0.5686500000000 1.0
C      1  0.4313500000000  0.4700530000000  0.5116820000000 1.0
C      1  0.5686500000000  0.4700530000000  0.4883180000000 1.0
C      1  0.5686500000000  0.5299470000000  0.5116820000000 1.0
C      1  0.4883180000000  0.5686500000000  0.4700530000000 1.0
C      1  0.5116820000000  0.5686500000000  0.5299470000000 1.0
C      1  0.5116820000000  0.4313500000000  0.4700530000000 1.0
C      1  0.5299470000000  0.4313500000000  0.4883180000000 1.0
C      1  0.4313500000000  0.4883180000000  0.5299470000000 1.0
C      1  0.4883180000000  0.5299470000000  0.4313500000000 1.0
C      1  0.5299470000000  0.5686500000000  0.5116820000000 1.0
C      1  0.4700530000000  0.4313500000000  0.5116820000000 1.0
C      1  0.4700530000000  0.5686500000000  0.4883180000000 1.0
C      1  0.4313500000000  0.5116820000000  0.4700530000000 1.0
C      1  0.5686500000000  0.4883180000000  0.4700530000000 1.0
C      1  0.5686500000000  0.5116820000000  0.5299470000000 1.0
C      1  0.4883180000000  0.4700530000000  0.5686500000000 1.0
C      1  0.5116820000000  0.5299470000000  0.5686500000000 1.0
C      1  0.5116820000000  0.4700530000000  0.4313500000000 1.0
C      1  0.4578910000000  0.5315000000000  0.5518260000000 1.0
C      1  0.5518260000000  0.4578910000000  0.5315000000000 1.0
C      1  0.5315000000000  0.5518260000000  0.4578910000000 1.0
C      1  0.4578910000000  0.4685000000000  0.4481740000000 1.0
C      1  0.5421090000000  0.4685000000000  0.5518260000000 1.0
C      1  0.5421090000000  0.5315000000000  0.4481740000000 1.0
C      1  0.5518260000000  0.5421090000000  0.4685000000000 1.0
C      1  0.4481740000000  0.5421090000000  0.5315000000000 1.0
C      1  0.4481740000000  0.4578910000000  0.4685000000000 1.0
C      1  0.5315000000000  0.4481740000000  0.5421090000000 1.0
C      1  0.4685000000000  0.4481740000000  0.4578910000000 1.0
C      1  0.4685000000000  0.5518260000000  0.5421090000000 1.0
C      1  0.4578910000000  0.5518260000000  0.5315000000000 1.0
C      1  0.5518260000000  0.5315000000000  0.4578910000000 1.0
C      1  0.5315000000000  0.4578910000000  0.5518260000000 1.0
C      1  0.4578910000000  0.4481740000000  0.4685000000000 1.0
C      1  0.5421090000000  0.5518260000000  0.4685000000000 1.0
C      1  0.5421090000000  0.4481740000000  0.5315000000000 1.0
C      1  0.5518260000000  0.4685000000000  0.5421090000000 1.0
C      1  0.4481740000000  0.5315000000000  0.5421090000000 1.0
C      1  0.4481740000000  0.4685000000000  0.4578910000000 1.0
C      1  0.5315000000000  0.5421090000000  0.4481740000000 1.0
C      1  0.4685000000000  0.4578910000000  0.4481740000000 1.0
C      1  0.4685000000000  0.5421090000000  0.5518260000000 1.0
END
