TITL C-1379268-1316-184 -6.97900815402061e-08 1000000 -3100.13565371443 0 0 420 (C1) n - 1
REM
REM in /nfs/bkarasulu/CARBON/AIRSS/Generating-Clusters/GAP-ML-2020/Higher-Symm/Selected-Sizes/TryA-Only_Ih-Symm/Larger-Clusters/Try2-MINAMP_6A
REM
REM
REM
REM
REM
REM ./C.cell (31579ac4e95a012ec27f3239692ae8a5)
REM
REM compiler GCC version 9.2.1 20190827 (Red Hat 9.2.1-1)
REM options -cpp -mtune=generic -march=x86-64 -g -O0 -fpre-include=/usr/include/finclude/math-vector-fortran.h
REM seed 644575573 -1164862162 -634658855 1901361557 1189218333 -1166857066 1887906164 1275251209 -1161405410 606977918 1605348325 885861915 531676642 -1507838663 -265333824 -531425133 -82847078 -924724674 -1245132428 -2121548139 1154037502 440036113 1190757936 -1895618683 -1384090415 735126243 -2013932414 429287993 837039216 322543068 1425595766 -956765403 -2011442639
REM
CELL 1.54180  100.00000  100.00000  100.00000   90.00000   90.00000   90.00000
LATT -1
SFAC C  
C      1  0.4700030000000  0.4942970000000  0.4554870000000 1.0
C      1  0.4562560000000  0.4717270000000  0.4899600000000 1.0
C      1  0.4941090000000  0.4580810000000  0.4708910000000 1.0
C      1  0.5321360000000  0.4943070000000  0.5442790000000 1.0
C      1  0.4689750000000  0.5063590000000  0.5433980000000 1.0
C      1  0.5271040000000  0.5060640000000  0.4574580000000 1.0
C      1  0.5395640000000  0.4756680000000  0.5106040000000 1.0
C      1  0.4583120000000  0.5259280000000  0.5084950000000 1.0
C      1  0.5416180000000  0.5259650000000  0.4905410000000 1.0
C      1  0.5101010000000  0.4578830000000  0.5279690000000 1.0
C      1  0.4945080000000  0.5420220000000  0.5287820000000 1.0
C      1  0.5070930000000  0.5418300000000  0.4711070000000 1.0
C      1  0.4739670000000  0.5082730000000  0.4570320000000 1.0
C      1  0.4582300000000  0.5283850000000  0.4940540000000 1.0
C      1  0.4924430000000  0.5430060000000  0.4691160000000 1.0
C      1  0.5286050000000  0.5080870000000  0.5426470000000 1.0
C      1  0.4683190000000  0.4917250000000  0.5437070000000 1.0
C      1  0.5290330000000  0.4915820000000  0.4566980000000 1.0
C      1  0.5421320000000  0.5280430000000  0.5049830000000 1.0
C      1  0.4571520000000  0.4726870000000  0.5047040000000 1.0
C      1  0.5411600000000  0.4735910000000  0.4961130000000 1.0
C      1  0.5093950000000  0.5425980000000  0.5286990000000 1.0
C      1  0.4962080000000  0.4570130000000  0.5315220000000 1.0
C      1  0.5088540000000  0.4564090000000  0.4701280000000 1.0
C      1  0.4861170000000  0.5697740000000  0.4593540000000 1.0
C      1  0.4579900000000  0.4853420000000  0.5714310000000 1.0
C      1  0.5669740000000  0.4595620000000  0.4854200000000 1.0
C      1  0.5133730000000  0.5690470000000  0.5412020000000 1.0
C      1  0.4855180000000  0.4309410000000  0.5418760000000 1.0
C      1  0.5136800000000  0.4298300000000  0.4590880000000 1.0
C      1  0.5397760000000  0.4850580000000  0.4309290000000 1.0
C      1  0.4591190000000  0.5155360000000  0.4314440000000 1.0
C      1  0.5407430000000  0.5150070000000  0.5690470000000 1.0
C      1  0.4314680000000  0.4591370000000  0.5153020000000 1.0
C      1  0.5674520000000  0.5407620000000  0.5148530000000 1.0
C      1  0.4320770000000  0.5410710000000  0.4851650000000 1.0
C      1  0.4843680000000  0.4312930000000  0.4588210000000 1.0
C      1  0.4577260000000  0.5139870000000  0.5700960000000 1.0
C      1  0.5676590000000  0.5403470000000  0.4853650000000 1.0
C      1  0.5139870000000  0.4313590000000  0.5404010000000 1.0
C      1  0.4844110000000  0.5682860000000  0.5417630000000 1.0
C      1  0.5153240000000  0.5686820000000  0.4588410000000 1.0
C      1  0.5404300000000  0.5143770000000  0.4320430000000 1.0
C      1  0.4591890000000  0.4861700000000  0.4303400000000 1.0
C      1  0.5404290000000  0.4856750000000  0.5697800000000 1.0
C      1  0.4323620000000  0.5399680000000  0.5145110000000 1.0
C      1  0.5670400000000  0.4599950000000  0.5150440000000 1.0
C      1  0.4300770000000  0.4593590000000  0.4858510000000 1.0
C      1  0.4654470000000  0.5484290000000  0.4462880000000 1.0
C      1  0.4464180000000  0.4658630000000  0.5482750000000 1.0
C      1  0.5472030000000  0.4460330000000  0.4657830000000 1.0
C      1  0.5343440000000  0.5481080000000  0.5541830000000 1.0
C      1  0.4666290000000  0.4538850000000  0.5528950000000 1.0
C      1  0.5340660000000  0.4513670000000  0.4461760000000 1.0
C      1  0.5526460000000  0.4652100000000  0.4520510000000 1.0
C      1  0.4456160000000  0.5353460000000  0.4512750000000 1.0
C      1  0.5538390000000  0.5348010000000  0.5487860000000 1.0
C      1  0.4534210000000  0.4478200000000  0.5337780000000 1.0
C      1  0.5470620000000  0.5533900000000  0.5343680000000 1.0
C      1  0.4524540000000  0.5537430000000  0.4657860000000 1.0
C      1  0.4658020000000  0.4528880000000  0.4469220000000 1.0
C      1  0.4460990000000  0.5337280000000  0.5480380000000 1.0
C      1  0.5486920000000  0.5543670000000  0.4646620000000 1.0
C      1  0.5340530000000  0.4526010000000  0.5532600000000 1.0
C      1  0.4654480000000  0.5468180000000  0.5536760000000 1.0
C      1  0.5347240000000  0.5481110000000  0.4458990000000 1.0
C      1  0.5540560000000  0.5344730000000  0.4516570000000 1.0
C      1  0.4469650000000  0.4665420000000  0.4529230000000 1.0
C      1  0.5535050000000  0.4656390000000  0.5484940000000 1.0
C      1  0.4513680000000  0.5537680000000  0.5352600000000 1.0
C      1  0.5474430000000  0.4465750000000  0.5343680000000 1.0
C      1  0.4516870000000  0.4468020000000  0.4657020000000 1.0
C      1  0.5159550000000  0.4280870000000  0.4929140000000 1.0
C      1  0.4928830000000  0.5164840000000  0.4265080000000 1.0
C      1  0.4273010000000  0.4925200000000  0.5160200000000 1.0
C      1  0.4849180000000  0.4306990000000  0.5068680000000 1.0
C      1  0.5158190000000  0.5713860000000  0.5071620000000 1.0
C      1  0.4842200000000  0.5707940000000  0.4930880000000 1.0
C      1  0.5067260000000  0.5155730000000  0.5718870000000 1.0
C      1  0.4926120000000  0.4846530000000  0.5708700000000 1.0
C      1  0.5068780000000  0.4831290000000  0.4267680000000 1.0
C      1  0.5718770000000  0.4926620000000  0.4837400000000 1.0
C      1  0.4281090000000  0.5073610000000  0.4834020000000 1.0
C      1  0.5720230000000  0.5073430000000  0.5163520000000 1.0
C      1  0.5162750000000  0.5710520000000  0.4929710000000 1.0
C      1  0.4926600000000  0.4837010000000  0.4269650000000 1.0
C      1  0.4273650000000  0.5066550000000  0.5154770000000 1.0
C      1  0.4837940000000  0.5706780000000  0.5073170000000 1.0
C      1  0.5161940000000  0.4278580000000  0.5071100000000 1.0
C      1  0.4841250000000  0.4292560000000  0.4926720000000 1.0
C      1  0.5069390000000  0.4840130000000  0.5711570000000 1.0
C      1  0.4924370000000  0.5149890000000  0.5708520000000 1.0
C      1  0.5070410000000  0.5158420000000  0.4268060000000 1.0
C      1  0.5726580000000  0.5067850000000  0.4840700000000 1.0
C      1  0.4274590000000  0.4931890000000  0.4829370000000 1.0
C      1  0.5721030000000  0.4931830000000  0.5166730000000 1.0
C      1  0.5132070000000  0.4412290000000  0.4362880000000 1.0
C      1  0.4372040000000  0.5123350000000  0.4445680000000 1.0
C      1  0.4451320000000  0.4374630000000  0.5122140000000 1.0
C      1  0.4880960000000  0.4449320000000  0.5633320000000 1.0
C      1  0.5128110000000  0.5572490000000  0.5637800000000 1.0
C      1  0.4864720000000  0.5584160000000  0.4366160000000 1.0
C      1  0.5622190000000  0.5117110000000  0.5553800000000 1.0
C      1  0.4354440000000  0.4857380000000  0.5587410000000 1.0
C      1  0.5628070000000  0.4857590000000  0.4419590000000 1.0
C      1  0.5553990000000  0.4366260000000  0.4880230000000 1.0
C      1  0.4447190000000  0.5632610000000  0.4881280000000 1.0
C      1  0.5551340000000  0.5631940000000  0.5122180000000 1.0
C      1  0.5117790000000  0.5548630000000  0.4374640000000 1.0
C      1  0.4364180000000  0.4866830000000  0.4416460000000 1.0
C      1  0.4426790000000  0.5633030000000  0.5136050000000 1.0
C      1  0.4873020000000  0.5548780000000  0.5636920000000 1.0
C      1  0.5135250000000  0.4424750000000  0.5636770000000 1.0
C      1  0.4876830000000  0.4445730000000  0.4370340000000 1.0
C      1  0.5635190000000  0.4863340000000  0.5589980000000 1.0
C      1  0.4368340000000  0.5110650000000  0.5551180000000 1.0
C      1  0.5620330000000  0.5110910000000  0.4453170000000 1.0
C      1  0.5574060000000  0.5636620000000  0.4866110000000 1.0
C      1  0.4422740000000  0.4369030000000  0.4868000000000 1.0
C      1  0.5575560000000  0.4362200000000  0.5137640000000 1.0
C      1  0.4760130000000  0.5331770000000  0.5688010000000 1.0
C      1  0.5689770000000  0.4766810000000  0.5356000000000 1.0
C      1  0.5349500000000  0.5692900000000  0.4761100000000 1.0
C      1  0.5239890000000  0.5340840000000  0.4309730000000 1.0
C      1  0.4762720000000  0.4659780000000  0.4314520000000 1.0
C      1  0.5229400000000  0.4655500000000  0.5686400000000 1.0
C      1  0.4304670000000  0.4772390000000  0.4644670000000 1.0
C      1  0.5688790000000  0.5236670000000  0.4657020000000 1.0
C      1  0.4309070000000  0.5234440000000  0.5341570000000 1.0
C      1  0.4650950000000  0.5688920000000  0.5241730000000 1.0
C      1  0.5349410000000  0.4303730000000  0.5234190000000 1.0
C      1  0.4649140000000  0.4310810000000  0.4764260000000 1.0
C      1  0.4763350000000  0.4662200000000  0.5692560000000 1.0
C      1  0.5688540000000  0.5242220000000  0.5346950000000 1.0
C      1  0.5340990000000  0.4307560000000  0.4765140000000 1.0
C      1  0.5227270000000  0.4641270000000  0.4305470000000 1.0
C      1  0.4764860000000  0.5354660000000  0.4306380000000 1.0
C      1  0.5232850000000  0.5347140000000  0.5696960000000 1.0
C      1  0.4303920000000  0.5247240000000  0.4652640000000 1.0
C      1  0.5683680000000  0.4761410000000  0.4649980000000 1.0
C      1  0.4302580000000  0.4761280000000  0.5353100000000 1.0
C      1  0.4671110000000  0.4329290000000  0.5233590000000 1.0
C      1  0.5338810000000  0.5688340000000  0.5236880000000 1.0
C      1  0.4661340000000  0.5684710000000  0.4767970000000 1.0
C      1  0.5156500000000  0.5542460000000  0.5240750000000 1.0
C      1  0.5181990000000  0.5134300000000  0.5504820000000 1.0
C      1  0.5490640000000  0.5177800000000  0.5124930000000 1.0
C      1  0.4853100000000  0.5538420000000  0.4749230000000 1.0
C      1  0.5155360000000  0.4452980000000  0.4755560000000 1.0
C      1  0.4878840000000  0.4472040000000  0.5252870000000 1.0
C      1  0.4846770000000  0.5128950000000  0.4487900000000 1.0
C      1  0.5212380000000  0.4835120000000  0.4467910000000 1.0
C      1  0.4741310000000  0.4854930000000  0.5550250000000 1.0
C      1  0.4511710000000  0.5185800000000  0.4861250000000 1.0
C      1  0.5486550000000  0.4836270000000  0.4881920000000 1.0
C      1  0.4496990000000  0.4830010000000  0.5115450000000 1.0
C      1  0.5173890000000  0.4469240000000  0.5217510000000 1.0
C      1  0.5239370000000  0.4846940000000  0.5519610000000 1.0
C      1  0.5490250000000  0.4858010000000  0.5145060000000 1.0
C      1  0.4872700000000  0.4508160000000  0.4809230000000 1.0
C      1  0.5135080000000  0.5496700000000  0.4810430000000 1.0
C      1  0.4870890000000  0.5491050000000  0.5189970000000 1.0
C      1  0.4761890000000  0.4859250000000  0.4457850000000 1.0
C      1  0.5165500000000  0.5121700000000  0.4495060000000 1.0
C      1  0.4743540000000  0.5134400000000  0.5544730000000 1.0
C      1  0.4445190000000  0.4764950000000  0.4837340000000 1.0
C      1  0.5498070000000  0.5151710000000  0.4858940000000 1.0
C      1  0.4501160000000  0.5149300000000  0.5128950000000 1.0
C      1  0.5232780000000  0.5470070000000  0.4374820000000 1.0
C      1  0.4373110000000  0.5224630000000  0.5470760000000 1.0
C      1  0.5475110000000  0.4370250000000  0.5239230000000 1.0
C      1  0.4762760000000  0.5462850000000  0.5628780000000 1.0
C      1  0.5233990000000  0.4527750000000  0.5624940000000 1.0
C      1  0.4766260000000  0.4531120000000  0.4377090000000 1.0
C      1  0.5622340000000  0.5227940000000  0.4529240000000 1.0
C      1  0.4372200000000  0.4767390000000  0.4520550000000 1.0
C      1  0.5626270000000  0.4763580000000  0.5485660000000 1.0
C      1  0.4521210000000  0.4376520000000  0.4764710000000 1.0
C      1  0.5478560000000  0.5630240000000  0.4759100000000 1.0
C      1  0.4522150000000  0.5625810000000  0.5242180000000 1.0
C      1  0.5234820000000  0.4512470000000  0.4367340000000 1.0
C      1  0.4367160000000  0.4760450000000  0.5483000000000 1.0
C      1  0.5466720000000  0.5624860000000  0.5233570000000 1.0
C      1  0.4770850000000  0.4535830000000  0.5626160000000 1.0
C      1  0.5232860000000  0.5474790000000  0.5631060000000 1.0
C      1  0.4763840000000  0.5482100000000  0.4373010000000 1.0
C      1  0.5618120000000  0.4758840000000  0.4521690000000 1.0
C      1  0.4368940000000  0.5240170000000  0.4522350000000 1.0
C      1  0.5624900000000  0.5234710000000  0.5477540000000 1.0
C      1  0.4530590000000  0.5626410000000  0.4769290000000 1.0
C      1  0.5469160000000  0.4370960000000  0.4768650000000 1.0
C      1  0.4538890000000  0.4385150000000  0.5231010000000 1.0
C      1  0.5078860000000  0.5726830000000  0.4699930000000 1.0
C      1  0.4665360000000  0.5065150000000  0.5776680000000 1.0
C      1  0.5691010000000  0.4709790000000  0.5071190000000 1.0
C      1  0.4919160000000  0.5719610000000  0.5305400000000 1.0
C      1  0.5058760000000  0.4266960000000  0.5298980000000 1.0
C      1  0.4920320000000  0.4273810000000  0.4698200000000 1.0
C      1  0.5295490000000  0.5069970000000  0.4275130000000 1.0
C      1  0.4698090000000  0.4940840000000  0.4256570000000 1.0
C      1  0.5296670000000  0.4936140000000  0.5735850000000 1.0
C      1  0.4253560000000  0.4699340000000  0.4937750000000 1.0
C      1  0.5702170000000  0.5292740000000  0.4932040000000 1.0
C      1  0.4296130000000  0.5290630000000  0.5064710000000 1.0
C      1  0.5057330000000  0.4255370000000  0.4698810000000 1.0
C      1  0.4669700000000  0.4935830000000  0.5781510000000 1.0
C      1  0.5703770000000  0.5296820000000  0.5069420000000 1.0
C      1  0.4928080000000  0.4239940000000  0.5325560000000 1.0
C      1  0.5056060000000  0.5736850000000  0.5304190000000 1.0
C      1  0.4941490000000  0.5740550000000  0.4700950000000 1.0
C      1  0.5294760000000  0.4932360000000  0.4263820000000 1.0
C      1  0.4699540000000  0.5078220000000  0.4273220000000 1.0
C      1  0.5297420000000  0.5073670000000  0.5728310000000 1.0
C      1  0.4295450000000  0.5297210000000  0.4927640000000 1.0
C      1  0.5693980000000  0.4705860000000  0.4934190000000 1.0
C      1  0.4273220000000  0.4699170000000  0.5074520000000 1.0
C      1  0.4342860000000  0.5372600000000  0.4716270000000 1.0
C      1  0.4758770000000  0.4397470000000  0.5335110000000 1.0
C      1  0.5329420000000  0.4732670000000  0.4372470000000 1.0
C      1  0.5648640000000  0.5366730000000  0.5282750000000 1.0
C      1  0.4343940000000  0.4636120000000  0.5284980000000 1.0
C      1  0.5644160000000  0.4636350000000  0.4719750000000 1.0
C      1  0.5253830000000  0.4369370000000  0.4657760000000 1.0
C      1  0.4747850000000  0.5620340000000  0.4662030000000 1.0
C      1  0.5251410000000  0.5622270000000  0.5343320000000 1.0
C      1  0.4655960000000  0.4749100000000  0.5633560000000 1.0
C      1  0.5363400000000  0.5283190000000  0.5663190000000 1.0
C      1  0.4635530000000  0.5288190000000  0.4341520000000 1.0
C      1  0.4367970000000  0.4665370000000  0.4739710000000 1.0
C      1  0.4713640000000  0.5653380000000  0.5372060000000 1.0
C      1  0.5364930000000  0.5276910000000  0.4348100000000 1.0
C      1  0.5648370000000  0.4642440000000  0.5285870000000 1.0
C      1  0.4346210000000  0.5361080000000  0.5280270000000 1.0
C      1  0.5653510000000  0.5364430000000  0.4718320000000 1.0
C      1  0.5285040000000  0.5658360000000  0.4631320000000 1.0
C      1  0.4713170000000  0.4345320000000  0.4634910000000 1.0
C      1  0.5257490000000  0.4376200000000  0.5336010000000 1.0
C      1  0.4656630000000  0.5244630000000  0.5621560000000 1.0
C      1  0.5338040000000  0.4743250000000  0.5624800000000 1.0
C      1  0.4663330000000  0.4750480000000  0.4381830000000 1.0
C      1  0.4877780000000  0.5281920000000  0.5740060000000 1.0
C      1  0.5738170000000  0.4888780000000  0.5304560000000 1.0
C      1  0.5298230000000  0.5737110000000  0.4885430000000 1.0
C      1  0.5118910000000  0.5292990000000  0.4257100000000 1.0
C      1  0.4879020000000  0.4703310000000  0.4254940000000 1.0
C      1  0.5109860000000  0.4704120000000  0.5736940000000 1.0
C      1  0.4255830000000  0.4893140000000  0.4692410000000 1.0
C      1  0.5742530000000  0.5115540000000  0.4705920000000 1.0
C      1  0.4258450000000  0.5114230000000  0.5289880000000 1.0
C      1  0.4702960000000  0.5734340000000  0.5118050000000 1.0
C      1  0.5299720000000  0.4255470000000  0.5113310000000 1.0
C      1  0.4704600000000  0.4266010000000  0.4886560000000 1.0
C      1  0.4881350000000  0.4713710000000  0.5741100000000 1.0
C      1  0.5738850000000  0.5120700000000  0.5297360000000 1.0
C      1  0.5293210000000  0.4257460000000  0.4884410000000 1.0
C      1  0.5108500000000  0.4691830000000  0.4252700000000 1.0
C      1  0.4886960000000  0.5303460000000  0.4256480000000 1.0
C      1  0.5109700000000  0.5293030000000  0.5743460000000 1.0
C      1  0.4253580000000  0.5124620000000  0.4701890000000 1.0
C      1  0.5733540000000  0.4883180000000  0.4700540000000 1.0
C      1  0.4258090000000  0.4883190000000  0.5298360000000 1.0
C      1  0.4718350000000  0.4275060000000  0.5116880000000 1.0
C      1  0.5291280000000  0.5739360000000  0.5116820000000 1.0
C      1  0.4709400000000  0.5736410000000  0.4886880000000 1.0
C      1  0.5066580000000  0.4345120000000  0.4476390000000 1.0
C      1  0.4476670000000  0.5075720000000  0.4361980000000 1.0
C      1  0.4362850000000  0.4477540000000  0.5074140000000 1.0
C      1  0.4930010000000  0.4358970000000  0.5531930000000 1.0
C      1  0.5063620000000  0.5643060000000  0.5526510000000 1.0
C      1  0.4930060000000  0.5652020000000  0.4478900000000 1.0
C      1  0.5520970000000  0.5070800000000  0.5642810000000 1.0
C      1  0.4463660000000  0.4921660000000  0.5661250000000 1.0
C      1  0.5513590000000  0.4920860000000  0.4353860000000 1.0
C      1  0.5633120000000  0.4475910000000  0.4931170000000 1.0
C      1  0.4365980000000  0.5524550000000  0.4930400000000 1.0
C      1  0.5632170000000  0.5524200000000  0.5071550000000 1.0
C      1  0.5073030000000  0.5637420000000  0.4476470000000 1.0
C      1  0.4477820000000  0.4932020000000  0.4348380000000 1.0
C      1  0.4363800000000  0.5517500000000  0.5072420000000 1.0
C      1  0.4921360000000  0.5634870000000  0.5532170000000 1.0
C      1  0.5072990000000  0.4353370000000  0.5525470000000 1.0
C      1  0.4923570000000  0.4358900000000  0.4474070000000 1.0
C      1  0.5521240000000  0.4927340000000  0.5658710000000 1.0
C      1  0.4463520000000  0.5064650000000  0.5647700000000 1.0
C      1  0.5515330000000  0.5063240000000  0.4368680000000 1.0
C      1  0.5636740000000  0.5520340000000  0.4928790000000 1.0
C      1  0.4351910000000  0.4481270000000  0.4931080000000 1.0
C      1  0.5635870000000  0.4480490000000  0.5074690000000 1.0
C      1  0.4553280000000  0.4906890000000  0.5227500000000 1.0
C      1  0.5301110000000  0.4531080000000  0.4998720000000 1.0
C      1  0.4931360000000  0.5232330000000  0.4546300000000 1.0
C      1  0.5434490000000  0.4910950000000  0.4767420000000 1.0
C      1  0.4568240000000  0.5122260000000  0.4745130000000 1.0
C      1  0.5432480000000  0.5103490000000  0.5232650000000 1.0
C      1  0.4721510000000  0.4546910000000  0.5012000000000 1.0
C      1  0.5295680000000  0.5474830000000  0.5000070000000 1.0
C      1  0.4711330000000  0.5473080000000  0.4998590000000 1.0
C      1  0.5113200000000  0.5244430000000  0.5444660000000 1.0
C      1  0.5028820000000  0.4735410000000  0.5463590000000 1.0
C      1  0.5109260000000  0.4748920000000  0.4543380000000 1.0
C      1  0.4555950000000  0.5060350000000  0.5229160000000 1.0
C      1  0.5251000000000  0.5439200000000  0.4872900000000 1.0
C      1  0.4966600000000  0.4749340000000  0.4539000000000 1.0
C      1  0.5438290000000  0.5064040000000  0.4758910000000 1.0
C      1  0.4525170000000  0.4994880000000  0.4703340000000 1.0
C      1  0.5453540000000  0.4956340000000  0.5243150000000 1.0
C      1  0.4753330000000  0.5435500000000  0.5126800000000 1.0
C      1  0.5262040000000  0.4552870000000  0.5127230000000 1.0
C      1  0.4757520000000  0.4566280000000  0.4877740000000 1.0
C      1  0.5155630000000  0.4763640000000  0.5423380000000 1.0
C      1  0.4983810000000  0.5286830000000  0.5475480000000 1.0
C      1  0.5084840000000  0.5227310000000  0.4554030000000 1.0
C      1  0.5081280000000  0.4352070000000  0.5167270000000 1.0
C      1  0.5154580000000  0.5072180000000  0.4351170000000 1.0
C      1  0.4362800000000  0.5149990000000  0.5073020000000 1.0
C      1  0.4921690000000  0.4365410000000  0.4830780000000 1.0
C      1  0.5082350000000  0.5635620000000  0.4833880000000 1.0
C      1  0.4918960000000  0.5633210000000  0.5169090000000 1.0
C      1  0.4844340000000  0.5068600000000  0.5622220000000 1.0
C      1  0.5169640000000  0.4919300000000  0.5646740000000 1.0
C      1  0.4832280000000  0.4923380000000  0.4336470000000 1.0
C      1  0.5637930000000  0.5152360000000  0.4919860000000 1.0
C      1  0.4333150000000  0.4831600000000  0.4915140000000 1.0
C      1  0.5632190000000  0.4849270000000  0.5084510000000 1.0
C      1  0.5076380000000  0.5651600000000  0.5173150000000 1.0
C      1  0.5162670000000  0.4913710000000  0.4339630000000 1.0
C      1  0.4350830000000  0.4838250000000  0.5072550000000 1.0
C      1  0.4924650000000  0.5647760000000  0.4828340000000 1.0
C      1  0.5078090000000  0.4344280000000  0.4827750000000 1.0
C      1  0.4935140000000  0.4389190000000  0.5146540000000 1.0
C      1  0.4842310000000  0.4925220000000  0.5624460000000 1.0
C      1  0.5161990000000  0.5077760000000  0.5641210000000 1.0
C      1  0.4841580000000  0.5079900000000  0.4344880000000 1.0
C      1  0.5630590000000  0.4847100000000  0.4923680000000 1.0
C      1  0.4369400000000  0.5159600000000  0.4911950000000 1.0
C      1  0.5634080000000  0.5157090000000  0.5080030000000 1.0
C      1  0.5355120000000  0.5550100000000  0.5421310000000 1.0
C      1  0.5428700000000  0.5371240000000  0.5571760000000 1.0
C      1  0.5557260000000  0.5428400000000  0.5371980000000 1.0
C      1  0.4642250000000  0.5552080000000  0.4582720000000 1.0
C      1  0.5357230000000  0.4440710000000  0.4579180000000 1.0
C      1  0.4653960000000  0.4470280000000  0.5410050000000 1.0
C      1  0.4568620000000  0.5375250000000  0.4432400000000 1.0
C      1  0.5411820000000  0.4634240000000  0.4444300000000 1.0
C      1  0.4581870000000  0.4648340000000  0.5554170000000 1.0
C      1  0.4435960000000  0.5433840000000  0.4628260000000 1.0
C      1  0.5553370000000  0.4570410000000  0.4632920000000 1.0
C      1  0.4441570000000  0.4577210000000  0.5368600000000 1.0
C      1  0.5355950000000  0.4450700000000  0.5416510000000 1.0
C      1  0.5417960000000  0.4641470000000  0.5555850000000 1.0
C      1  0.5558490000000  0.4575060000000  0.5371660000000 1.0
C      1  0.4627960000000  0.4440380000000  0.4572990000000 1.0
C      1  0.5372740000000  0.5567240000000  0.4565760000000 1.0
C      1  0.4627300000000  0.5559130000000  0.5434020000000 1.0
C      1  0.4586610000000  0.4649240000000  0.4457350000000 1.0
C      1  0.5429370000000  0.5367440000000  0.4436710000000 1.0
C      1  0.4579820000000  0.5349870000000  0.5549240000000 1.0
C      1  0.4445400000000  0.4586150000000  0.4642220000000 1.0
C      1  0.5566890000000  0.5430890000000  0.4625980000000 1.0
C      1  0.4433170000000  0.5425890000000  0.5372470000000 1.0
C      1  0.5346900000000  0.5157140000000  0.5327580000000 1.0
C      1  0.5361410000000  0.5402910000000  0.5087740000000 1.0
C      1  0.5169370000000  0.5323340000000  0.5344350000000 1.0
C      1  0.4669930000000  0.5168240000000  0.4656910000000 1.0
C      1  0.5367370000000  0.4854330000000  0.4662790000000 1.0
C      1  0.4615150000000  0.4852370000000  0.5336420000000 1.0
C      1  0.4648910000000  0.5404780000000  0.4906120000000 1.0
C      1  0.5363500000000  0.4611120000000  0.4915460000000 1.0
C      1  0.4648740000000  0.4617610000000  0.5095130000000 1.0
C      1  0.4866640000000  0.5329940000000  0.4616590000000 1.0
C      1  0.5159440000000  0.4653910000000  0.4627330000000 1.0
C      1  0.4932560000000  0.4660740000000  0.5418690000000 1.0
C      1  0.5423040000000  0.4901990000000  0.5363010000000 1.0
C      1  0.5294800000000  0.4679940000000  0.5188600000000 1.0
C      1  0.5191320000000  0.4689570000000  0.5300340000000 1.0
C      1  0.4589410000000  0.4907420000000  0.4632130000000 1.0
C      1  0.5350840000000  0.5124610000000  0.4669550000000 1.0
C      1  0.4628900000000  0.5122520000000  0.5325920000000 1.0
C      1  0.4658530000000  0.4650470000000  0.4825090000000 1.0
C      1  0.5331210000000  0.5333090000000  0.4821100000000 1.0
C      1  0.4663310000000  0.5333980000000  0.5172260000000 1.0
C      1  0.4891090000000  0.4671290000000  0.4612560000000 1.0
C      1  0.5139810000000  0.5321240000000  0.4638970000000 1.0
C      1  0.4897650000000  0.5350520000000  0.5401230000000 1.0
C      1  0.5019900000000  0.5516360000000  0.4272870000000 1.0
C      1  0.4266530000000  0.5014660000000  0.5513710000000 1.0
C      1  0.5604110000000  0.4234620000000  0.5084410000000 1.0
C      1  0.4974270000000  0.5507430000000  0.5732380000000 1.0
C      1  0.5082750000000  0.4400420000000  0.5765890000000 1.0
C      1  0.4974670000000  0.4478540000000  0.4268410000000 1.0
C      1  0.5722890000000  0.5013530000000  0.4485390000000 1.0
C      1  0.4236290000000  0.4921300000000  0.4392900000000 1.0
C      1  0.5763310000000  0.4920770000000  0.5610040000000 1.0
C      1  0.4400850000000  0.4239340000000  0.4922990000000 1.0
C      1  0.5603610000000  0.5765020000000  0.4919720000000 1.0
C      1  0.4397200000000  0.5762700000000  0.5084640000000 1.0
C      1  0.5075490000000  0.4388590000000  0.4235180000000 1.0
C      1  0.4225660000000  0.4915660000000  0.5602560000000 1.0
C      1  0.5514030000000  0.5729070000000  0.5020520000000 1.0
C      1  0.4979770000000  0.4488210000000  0.5731970000000 1.0
C      1  0.5075500000000  0.5596660000000  0.5767600000000 1.0
C      1  0.4920890000000  0.5607280000000  0.4237480000000 1.0
C      1  0.5756730000000  0.4913060000000  0.4395700000000 1.0
C      1  0.4272460000000  0.5023510000000  0.4479570000000 1.0
C      1  0.5722850000000  0.5018440000000  0.5519760000000 1.0
C      1  0.4486780000000  0.5727930000000  0.4983600000000 1.0
C      1  0.5516400000000  0.4269450000000  0.4981930000000 1.0
C      1  0.4490960000000  0.4276560000000  0.5022840000000 1.0
C      1  0.5749670000000  0.5002370000000  0.4622930000000 1.0
C      1  0.4247120000000  0.5002770000000  0.5374670000000 1.0
C      1  0.5377960000000  0.4241950000000  0.4994740000000 1.0
C      1  0.5007080000000  0.5378750000000  0.4247110000000 1.0
C      1  0.4991450000000  0.4627580000000  0.5755960000000 1.0
C      1  0.4625570000000  0.5752420000000  0.4998800000000 1.0
C      1  0.5749290000000  0.5007660000000  0.5381560000000 1.0
C      1  0.5375280000000  0.5754600000000  0.5005220000000 1.0
C      1  0.4240890000000  0.5012920000000  0.4616360000000 1.0
C      1  0.4630580000000  0.4255160000000  0.5008170000000 1.0
C      1  0.4988510000000  0.4615930000000  0.4241310000000 1.0
C      1  0.4988510000000  0.5368070000000  0.5757600000000 1.0
END
