TITL C-1379268-1316-48 -2.6624428590522e-07 1000000 -2411.62782144327 0 0 340 (C3) n - 1
REM
REM in /nfs/bkarasulu/CARBON/AIRSS/Generating-Clusters/GAP-ML-2020/Higher-Symm/Selected-Sizes/TryA-Only_Ih-Symm/Larger-Clusters/Try2-MINAMP_6A
REM
REM
REM
REM
REM
REM ./C.cell (31579ac4e95a012ec27f3239692ae8a5)
REM
REM compiler GCC version 9.2.1 20190827 (Red Hat 9.2.1-1)
REM options -cpp -mtune=generic -march=x86-64 -g -O0 -fpre-include=/usr/include/finclude/math-vector-fortran.h
REM seed 1083280890 624258244 -1408151662 1142927490 526362174 -986391258 -1110807392 -53563197 -1438412177 2056924651 -777002952 1967921612 860417701 670146419 -1587454676 -67520484 -552609894 958756611 -1355272642 -1640803239 -961919312 -707324006 1334641849 615664939 -2005641121 -1828202312 2049279115 934383438 -309155783 644394540 2107492517 1057705023 -515160532
REM
CELL 1.54180  100.00000  100.00000  100.00000   90.00000   90.00000   90.00000
LATT -1
SFAC C  
C      1  0.5064220000000  0.5317000000000  0.5446780000000 1.0
C      1  0.5452140000000  0.5064740000000  0.5314850000000 1.0
C      1  0.5319660000000  0.5453040000000  0.5059330000000 1.0
C      1  0.5059910000000  0.4679450000000  0.4545500000000 1.0
C      1  0.4934370000000  0.4683670000000  0.5451560000000 1.0
C      1  0.4927260000000  0.5343390000000  0.4591710000000 1.0
C      1  0.5447370000000  0.4934890000000  0.4681530000000 1.0
C      1  0.4546070000000  0.4939190000000  0.5319090000000 1.0
C      1  0.4592300000000  0.5071850000000  0.4655140000000 1.0
C      1  0.5315420000000  0.4546980000000  0.4933800000000 1.0
C      1  0.4682100000000  0.4551730000000  0.5063660000000 1.0
C      1  0.4655730000000  0.5406810000000  0.4926680000000 1.0
C      1  0.5071120000000  0.5405190000000  0.5336910000000 1.0
C      1  0.5408660000000  0.5343420000000  0.5066470000000 1.0
C      1  0.5341820000000  0.5070260000000  0.5402870000000 1.0
C      1  0.5067050000000  0.4590460000000  0.4655120000000 1.0
C      1  0.4934330000000  0.5453640000000  0.4679570000000 1.0
C      1  0.4928850000000  0.4595640000000  0.5341250000000 1.0
C      1  0.5403450000000  0.4657290000000  0.4928280000000 1.0
C      1  0.4545480000000  0.5318950000000  0.4933750000000 1.0
C      1  0.4593910000000  0.4661600000000  0.5070550000000 1.0
C      1  0.5337500000000  0.4927990000000  0.4593350000000 1.0
C      1  0.4680160000000  0.5064780000000  0.4544890000000 1.0
C      1  0.4655690000000  0.4932050000000  0.5408090000000 1.0
C      1  0.4554900000000  0.4440980000000  0.4894450000000 1.0
C      1  0.4893140000000  0.4550970000000  0.4431630000000 1.0
C      1  0.4453970000000  0.4902400000000  0.4550340000000 1.0
C      1  0.4550930000000  0.5545150000000  0.5096120000000 1.0
C      1  0.5448140000000  0.5566900000000  0.4892550000000 1.0
C      1  0.5442600000000  0.4435600000000  0.5102750000000 1.0
C      1  0.4895030000000  0.5444220000000  0.5557530000000 1.0
C      1  0.5096710000000  0.5448180000000  0.4453380000000 1.0
C      1  0.5103340000000  0.4556500000000  0.5562930000000 1.0
C      1  0.4432210000000  0.5105980000000  0.5447560000000 1.0
C      1  0.5558120000000  0.5104080000000  0.4554320000000 1.0
C      1  0.5563510000000  0.4895770000000  0.5442010000000 1.0
C      1  0.4551520000000  0.4896130000000  0.4434140000000 1.0
C      1  0.4899560000000  0.4451840000000  0.4546950000000 1.0
C      1  0.4456750000000  0.4556040000000  0.4900580000000 1.0
C      1  0.4547530000000  0.5099560000000  0.5546690000000 1.0
C      1  0.5449360000000  0.4902750000000  0.5541670000000 1.0
C      1  0.5443060000000  0.5097940000000  0.4456170000000 1.0
C      1  0.4901170000000  0.5542370000000  0.5442470000000 1.0
C      1  0.5096360000000  0.4456850000000  0.5448790000000 1.0
C      1  0.5102980000000  0.5564390000000  0.4550930000000 1.0
C      1  0.4434720000000  0.5447600000000  0.5102390000000 1.0
C      1  0.5542250000000  0.4549740000000  0.5095780000000 1.0
C      1  0.5547270000000  0.5451580000000  0.4898970000000 1.0
C      1  0.4370040000000  0.5433080000000  0.5229180000000 1.0
C      1  0.5218320000000  0.4384050000000  0.5426870000000 1.0
C      1  0.5418800000000  0.5220530000000  0.4385550000000 1.0
C      1  0.4386150000000  0.4580300000000  0.4777990000000 1.0
C      1  0.5615060000000  0.4571660000000  0.5217730000000 1.0
C      1  0.5618830000000  0.5428900000000  0.4776270000000 1.0
C      1  0.5229770000000  0.5629060000000  0.4565450000000 1.0
C      1  0.4778580000000  0.5612980000000  0.5418210000000 1.0
C      1  0.4776870000000  0.4380270000000  0.4569630000000 1.0
C      1  0.5427440000000  0.4780790000000  0.5614470000000 1.0
C      1  0.4566050000000  0.4769340000000  0.4369460000000 1.0
C      1  0.4570210000000  0.5222260000000  0.5618250000000 1.0
C      1  0.4367560000000  0.5232760000000  0.5431900000000 1.0
C      1  0.5219390000000  0.5422720000000  0.4383020000000 1.0
C      1  0.5423200000000  0.4373710000000  0.5229950000000 1.0
C      1  0.4383620000000  0.4779720000000  0.4575800000000 1.0
C      1  0.5621810000000  0.5230550000000  0.4572410000000 1.0
C      1  0.5625390000000  0.4768570000000  0.5422610000000 1.0
C      1  0.5230540000000  0.4575910000000  0.5624810000000 1.0
C      1  0.4768550000000  0.5426130000000  0.5621220000000 1.0
C      1  0.4766360000000  0.4566620000000  0.4366980000000 1.0
C      1  0.5432490000000  0.5631550000000  0.4765770000000 1.0
C      1  0.4573000000000  0.4377300000000  0.4767970000000 1.0
C      1  0.4576380000000  0.5615510000000  0.5218790000000 1.0
C      1  0.4478960000000  0.5420470000000  0.5322790000000 1.0
C      1  0.5317920000000  0.4488850000000  0.5417440000000 1.0
C      1  0.5412690000000  0.5319560000000  0.4491170000000 1.0
C      1  0.4491770000000  0.4586430000000  0.4678970000000 1.0
C      1  0.5510260000000  0.4581080000000  0.5317330000000 1.0
C      1  0.5512390000000  0.5421400000000  0.4678210000000 1.0
C      1  0.5323380000000  0.5520150000000  0.4578060000000 1.0
C      1  0.4679550000000  0.5507360000000  0.5412100000000 1.0
C      1  0.4678800000000  0.4486720000000  0.4577130000000 1.0
C      1  0.5418030000000  0.4681190000000  0.5509670000000 1.0
C      1  0.4578650000000  0.4675730000000  0.4478380000000 1.0
C      1  0.4577710000000  0.5320320000000  0.5511800000000 1.0
C      1  0.4477600000000  0.5325140000000  0.5420080000000 1.0
C      1  0.5317320000000  0.5417210000000  0.4489710000000 1.0
C      1  0.5415020000000  0.4484480000000  0.5321880000000 1.0
C      1  0.4490310000000  0.4681790000000  0.4581310000000 1.0
C      1  0.5512760000000  0.5324210000000  0.4582590000000 1.0
C      1  0.5514630000000  0.4676640000000  0.5414440000000 1.0
C      1  0.5322470000000  0.4584090000000  0.5514040000000 1.0
C      1  0.4674900000000  0.5415940000000  0.5512170000000 1.0
C      1  0.4673980000000  0.4578430000000  0.4477020000000 1.0
C      1  0.5420670000000  0.5521500000000  0.4673380000000 1.0
C      1  0.4583190000000  0.4486350000000  0.4674320000000 1.0
C      1  0.4581890000000  0.5508820000000  0.5316730000000 1.0
C      1  0.4850020000000  0.4791730000000  0.5457580000000 1.0
C      1  0.5453150000000  0.4851100000000  0.4789560000000 1.0
C      1  0.4751550000000  0.5374580000000  0.4823790000000 1.0
C      1  0.4824380000000  0.5247560000000  0.4623940000000 1.0
C      1  0.5148000000000  0.5208980000000  0.5452560000000 1.0
C      1  0.5143590000000  0.4787970000000  0.4540810000000 1.0
C      1  0.5458160000000  0.5149090000000  0.5206790000000 1.0
C      1  0.4624530000000  0.5174730000000  0.4750970000000 1.0
C      1  0.4541380000000  0.4855510000000  0.5210570000000 1.0
C      1  0.4790120000000  0.4545940000000  0.5147440000000 1.0
C      1  0.5207370000000  0.4540960000000  0.4849460000000 1.0
C      1  0.5211140000000  0.5457720000000  0.5143010000000 1.0
C      1  0.4849880000000  0.5459280000000  0.4787370000000 1.0
C      1  0.5369210000000  0.4752750000000  0.4825700000000 1.0
C      1  0.4751680000000  0.4829370000000  0.5374180000000 1.0
C      1  0.4826260000000  0.4629880000000  0.5245790000000 1.0
C      1  0.5174070000000  0.5373130000000  0.5241100000000 1.0
C      1  0.5169720000000  0.4624370000000  0.4751120000000 1.0
C      1  0.5374750000000  0.5247430000000  0.5169150000000 1.0
C      1  0.4625980000000  0.4757410000000  0.5173500000000 1.0
C      1  0.4539840000000  0.5211140000000  0.4849300000000 1.0
C      1  0.4787960000000  0.5149240000000  0.4539250000000 1.0
C      1  0.5241680000000  0.4825050000000  0.4625410000000 1.0
C      1  0.5246360000000  0.5172840000000  0.5368630000000 1.0
C      1  0.5492380000000  0.5264090000000  0.5569050000000 1.0
C      1  0.5574350000000  0.5493260000000  0.5260750000000 1.0
C      1  0.5264890000000  0.5571950000000  0.5487560000000 1.0
C      1  0.5488140000000  0.4734220000000  0.4426590000000 1.0
C      1  0.4505850000000  0.4737780000000  0.5573780000000 1.0
C      1  0.4511610000000  0.5268420000000  0.4413940000000 1.0
C      1  0.5569630000000  0.4506730000000  0.4734450000000 1.0
C      1  0.4427160000000  0.4510960000000  0.5264320000000 1.0
C      1  0.4414520000000  0.5487500000000  0.4730100000000 1.0
C      1  0.5261330000000  0.4424760000000  0.4505280000000 1.0
C      1  0.4735020000000  0.4429470000000  0.5491820000000 1.0
C      1  0.4730680000000  0.5584590000000  0.4511010000000 1.0
C      1  0.5486990000000  0.5584400000000  0.5263510000000 1.0
C      1  0.5584040000000  0.5268130000000  0.5482360000000 1.0
C      1  0.5267840000000  0.5485370000000  0.5579210000000 1.0
C      1  0.5482940000000  0.4415080000000  0.4730410000000 1.0
C      1  0.4506230000000  0.5574190000000  0.4732890000000 1.0
C      1  0.4513730000000  0.4419310000000  0.5267270000000 1.0
C      1  0.5579790000000  0.4731270000000  0.4513170000000 1.0
C      1  0.4424920000000  0.5265630000000  0.4505650000000 1.0
C      1  0.4414710000000  0.4735020000000  0.5486420000000 1.0
C      1  0.5264080000000  0.4512120000000  0.4414140000000 1.0
C      1  0.4733480000000  0.5492880000000  0.4424330000000 1.0
C      1  0.4730980000000  0.4516160000000  0.5583470000000 1.0
C      1  0.5026100000000  0.4366430000000  0.4756950000000 1.0
C      1  0.4753040000000  0.5029120000000  0.4321610000000 1.0
C      1  0.4372000000000  0.4763330000000  0.5029890000000 1.0
C      1  0.5030460000000  0.5627110000000  0.5235180000000 1.0
C      1  0.4969990000000  0.5676920000000  0.4752450000000 1.0
C      1  0.4970420000000  0.4371070000000  0.5239490000000 1.0
C      1  0.4757510000000  0.4973000000000  0.5632120000000 1.0
C      1  0.5235770000000  0.4968650000000  0.4371430000000 1.0
C      1  0.5240050000000  0.5028680000000  0.5627440000000 1.0
C      1  0.4322200000000  0.5246060000000  0.4969410000000 1.0
C      1  0.5632700000000  0.5241600000000  0.5025530000000 1.0
C      1  0.5628020000000  0.4759060000000  0.4969850000000 1.0
C      1  0.5025180000000  0.4755350000000  0.4322740000000 1.0
C      1  0.4755270000000  0.4330230000000  0.5028700000000 1.0
C      1  0.4371030000000  0.5031580000000  0.4759170000000 1.0
C      1  0.5029260000000  0.5243830000000  0.5668280000000 1.0
C      1  0.4969090000000  0.4757750000000  0.5672620000000 1.0
C      1  0.4967520000000  0.5239360000000  0.4370430000000 1.0
C      1  0.4759750000000  0.5628090000000  0.4966930000000 1.0
C      1  0.5241350000000  0.4325920000000  0.4968520000000 1.0
C      1  0.5243760000000  0.5675800000000  0.5024590000000 1.0
C      1  0.4323310000000  0.4973930000000  0.5243180000000 1.0
C      1  0.5673200000000  0.5030030000000  0.5240780000000 1.0
C      1  0.5668870000000  0.4969840000000  0.4754700000000 1.0
C      1  0.4366360000000  0.4632220000000  0.5258830000000 1.0
C      1  0.5255960000000  0.4363970000000  0.4626680000000 1.0
C      1  0.4632620000000  0.5266500000000  0.4352590000000 1.0
C      1  0.4353180000000  0.5366480000000  0.4732030000000 1.0
C      1  0.5635140000000  0.5371860000000  0.5255380000000 1.0
C      1  0.5630540000000  0.4628060000000  0.4740170000000 1.0
C      1  0.5259400000000  0.5632750000000  0.5366300000000 1.0
C      1  0.4732610000000  0.5645930000000  0.4632030000000 1.0
C      1  0.4740730000000  0.4368560000000  0.5370480000000 1.0
C      1  0.4627250000000  0.4743140000000  0.5634570000000 1.0
C      1  0.5366880000000  0.4739700000000  0.4365790000000 1.0
C      1  0.5371040000000  0.5258370000000  0.5629960000000 1.0
C      1  0.4364640000000  0.5260200000000  0.4627250000000 1.0
C      1  0.5262100000000  0.4633630000000  0.4353770000000 1.0
C      1  0.4634480000000  0.4357690000000  0.5265610000000 1.0
C      1  0.4354340000000  0.4737000000000  0.5364900000000 1.0
C      1  0.5645780000000  0.5266940000000  0.5361620000000 1.0
C      1  0.5641410000000  0.4732930000000  0.4633910000000 1.0
C      1  0.5266170000000  0.5364620000000  0.5640830000000 1.0
C      1  0.4732170000000  0.4636910000000  0.5645200000000 1.0
C      1  0.4738910000000  0.5371280000000  0.4364050000000 1.0
C      1  0.4627830000000  0.5634470000000  0.4738320000000 1.0
C      1  0.5362190000000  0.4353340000000  0.4731610000000 1.0
C      1  0.5365470000000  0.5644770000000  0.5261520000000 1.0
C      1  0.4294380000000  0.5609140000000  0.5495050000000 1.0
C      1  0.5491150000000  0.4299920000000  0.5605770000000 1.0
C      1  0.5599880000000  0.5490220000000  0.4296240000000 1.0
C      1  0.4296840000000  0.4399230000000  0.4508280000000 1.0
C      1  0.5699200000000  0.4392750000000  0.5490550000000 1.0
C      1  0.5702760000000  0.5603990000000  0.4500040000000 1.0
C      1  0.5495640000000  0.5704720000000  0.4389390000000 1.0
C      1  0.4508880000000  0.5702300000000  0.5599280000000 1.0
C      1  0.4500640000000  0.4296350000000  0.4394520000000 1.0
C      1  0.5606370000000  0.4507970000000  0.5698600000000 1.0
C      1  0.4390000000000  0.4503460000000  0.4293790000000 1.0
C      1  0.4395110000000  0.5498500000000  0.5702170000000 1.0
C      1  0.4292080000000  0.5502050000000  0.5603500000000 1.0
C      1  0.5493270000000  0.5598490000000  0.4293680000000 1.0
C      1  0.5596600000000  0.4293300000000  0.5496150000000 1.0
C      1  0.4294280000000  0.4505830000000  0.4400020000000 1.0
C      1  0.5703350000000  0.5493440000000  0.4395400000000 1.0
C      1  0.5705820000000  0.4502370000000  0.5596000000000 1.0
C      1  0.5496750000000  0.4402510000000  0.5705220000000 1.0
C      1  0.4505660000000  0.5603130000000  0.5702760000000 1.0
C      1  0.4497090000000  0.4395010000000  0.4291490000000 1.0
C      1  0.5604100000000  0.5707020000000  0.4496480000000 1.0
C      1  0.4396000000000  0.4295750000000  0.4505060000000 1.0
C      1  0.4400610000000  0.5704850000000  0.5492680000000 1.0
C      1  0.5653920000000  0.4895050000000  0.5000370000000 1.0
C      1  0.5001100000000  0.5675490000000  0.4891050000000 1.0
C      1  0.4893960000000  0.5003340000000  0.5655770000000 1.0
C      1  0.5656350000000  0.5105150000000  0.4995180000000 1.0
C      1  0.4323630000000  0.5107470000000  0.5000520000000 1.0
C      1  0.4350500000000  0.4898530000000  0.4998970000000 1.0
C      1  0.5000940000000  0.4345180000000  0.5103490000000 1.0
C      1  0.4995760000000  0.4342770000000  0.4893400000000 1.0
C      1  0.4999540000000  0.5648610000000  0.5099980000000 1.0
C      1  0.4891640000000  0.4998010000000  0.4323040000000 1.0
C      1  0.5104060000000  0.4998160000000  0.5653330000000 1.0
C      1  0.5100570000000  0.4999570000000  0.4349920000000 1.0
C      1  0.5662400000000  0.5001040000000  0.4892290000000 1.0
C      1  0.5000040000000  0.4895430000000  0.5663960000000 1.0
C      1  0.4895480000000  0.5649110000000  0.4996960000000 1.0
C      1  0.5664540000000  0.4999070000000  0.5103100000000 1.0
C      1  0.4324330000000  0.5004550000000  0.5104380000000 1.0
C      1  0.4350010000000  0.5001550000000  0.4894900000000 1.0
C      1  0.4997550000000  0.5103630000000  0.4349420000000 1.0
C      1  0.4994550000000  0.4894150000000  0.4323750000000 1.0
C      1  0.4998070000000  0.5106240000000  0.5661810000000 1.0
C      1  0.4892860000000  0.4336710000000  0.4997500000000 1.0
C      1  0.5104960000000  0.5674780000000  0.4993960000000 1.0
C      1  0.5103670000000  0.4334580000000  0.4999470000000 1.0
C      1  0.4838170000000  0.4325750000000  0.5270490000000 1.0
C      1  0.5267560000000  0.4837400000000  0.4322780000000 1.0
C      1  0.4302770000000  0.5266070000000  0.4826780000000 1.0
C      1  0.4827360000000  0.5696350000000  0.4732440000000 1.0
C      1  0.5161710000000  0.5675750000000  0.5266970000000 1.0
C      1  0.5158430000000  0.4321000000000  0.4726600000000 1.0
C      1  0.5271050000000  0.5160930000000  0.5672760000000 1.0
C      1  0.4733030000000  0.5171750000000  0.4302180000000 1.0
C      1  0.4727160000000  0.4840670000000  0.5677540000000 1.0
C      1  0.4323360000000  0.4731550000000  0.5161140000000 1.0
C      1  0.5673340000000  0.4728060000000  0.4837610000000 1.0
C      1  0.5678110000000  0.5271950000000  0.5157860000000 1.0
C      1  0.4836330000000  0.5271450000000  0.4321440000000 1.0
C      1  0.5261590000000  0.4303630000000  0.4826530000000 1.0
C      1  0.4303900000000  0.4831420000000  0.5264000000000 1.0
C      1  0.4827090000000  0.4737510000000  0.5694910000000 1.0
C      1  0.5171280000000  0.5264140000000  0.5690280000000 1.0
C      1  0.5167680000000  0.4734530000000  0.4303330000000 1.0
C      1  0.5264580000000  0.5695210000000  0.5167100000000 1.0
C      1  0.4734960000000  0.4308220000000  0.5170720000000 1.0
C      1  0.4727660000000  0.5677080000000  0.4835740000000 1.0
C      1  0.4322040000000  0.5162770000000  0.4727080000000 1.0
C      1  0.5690870000000  0.4827820000000  0.4734390000000 1.0
C      1  0.5695490000000  0.5172020000000  0.5261020000000 1.0
C      1  0.4654550000000  0.4432670000000  0.4988660000000 1.0
C      1  0.4984760000000  0.4653770000000  0.4425510000000 1.0
C      1  0.4472640000000  0.4996200000000  0.4653810000000 1.0
C      1  0.4654390000000  0.5526480000000  0.5002320000000 1.0
C      1  0.5345350000000  0.5573020000000  0.4984170000000 1.0
C      1  0.5342820000000  0.4427650000000  0.5008470000000 1.0
C      1  0.4989220000000  0.5344560000000  0.5565840000000 1.0
C      1  0.5002900000000  0.5344720000000  0.4472040000000 1.0
C      1  0.5009040000000  0.4656280000000  0.5570890000000 1.0
C      1  0.4426090000000  0.5014350000000  0.5344770000000 1.0
C      1  0.5566430000000  0.5009880000000  0.4653970000000 1.0
C      1  0.5571470000000  0.4990070000000  0.5342240000000 1.0
C      1  0.4653120000000  0.4988770000000  0.4425700000000 1.0
C      1  0.4991560000000  0.4470220000000  0.4652420000000 1.0
C      1  0.4474350000000  0.4659230000000  0.4994610000000 1.0
C      1  0.4652980000000  0.5007550000000  0.5528320000000 1.0
C      1  0.5343890000000  0.4994320000000  0.5523040000000 1.0
C      1  0.5339870000000  0.5003930000000  0.4473780000000 1.0
C      1  0.4995180000000  0.5524760000000  0.5339280000000 1.0
C      1  0.5004780000000  0.4475470000000  0.5343330000000 1.0
C      1  0.5010340000000  0.5572830000000  0.4652530000000 1.0
C      1  0.4426290000000  0.5345980000000  0.5009760000000 1.0
C      1  0.5523620000000  0.4655220000000  0.5004210000000 1.0
C      1  0.5528900000000  0.5346120000000  0.4990980000000 1.0
C      1  0.5306190000000  0.4594230000000  0.5742270000000 1.0
C      1  0.5741110000000  0.5303710000000  0.4588090000000 1.0
C      1  0.4589380000000  0.5734080000000  0.5294550000000 1.0
C      1  0.5295140000000  0.5409720000000  0.4264450000000 1.0
C      1  0.4695390000000  0.5410440000000  0.5740530000000 1.0
C      1  0.4691230000000  0.4581360000000  0.4248800000000 1.0
C      1  0.5742850000000  0.4692930000000  0.5404290000000 1.0
C      1  0.4265040000000  0.4703960000000  0.4588790000000 1.0
C      1  0.4249380000000  0.5307900000000  0.5417160000000 1.0
C      1  0.4588680000000  0.4257990000000  0.4694810000000 1.0
C      1  0.5404880000000  0.4256250000000  0.5305600000000 1.0
C      1  0.5417750000000  0.5749730000000  0.4690630000000 1.0
C      1  0.5303410000000  0.5748420000000  0.4577720000000 1.0
C      1  0.5735300000000  0.4578620000000  0.5291300000000 1.0
C      1  0.4580050000000  0.5298240000000  0.5736940000000 1.0
C      1  0.5291900000000  0.4263810000000  0.5419910000000 1.0
C      1  0.4704420000000  0.5732710000000  0.5407870000000 1.0
C      1  0.4700900000000  0.4261580000000  0.4579470000000 1.0
C      1  0.5737530000000  0.5419050000000  0.4700300000000 1.0
C      1  0.4266420000000  0.4590640000000  0.4703830000000 1.0
C      1  0.4250690000000  0.5420810000000  0.5302820000000 1.0
C      1  0.4578320000000  0.4695700000000  0.4250100000000 1.0
C      1  0.5408460000000  0.5294680000000  0.4265820000000 1.0
C      1  0.5420500000000  0.4707210000000  0.5734710000000 1.0
C      1  0.5770220000000  0.4590660000000  0.5501830000000 1.0
C      1  0.5514970000000  0.5775880000000  0.4587020000000 1.0
C      1  0.4594650000000  0.5509660000000  0.5767420000000 1.0
C      1  0.5768010000000  0.5404450000000  0.4488880000000 1.0
C      1  0.4223220000000  0.5411510000000  0.5514380000000 1.0
C      1  0.4235620000000  0.4600800000000  0.4492280000000 1.0
C      1  0.5502430000000  0.4228900000000  0.5407870000000 1.0
C      1  0.4489470000000  0.4231100000000  0.4594060000000 1.0
C      1  0.4492880000000  0.5763520000000  0.5397710000000 1.0
C      1  0.4587630000000  0.4484140000000  0.4222630000000 1.0
C      1  0.5408460000000  0.4496680000000  0.5769620000000 1.0
C      1  0.5398310000000  0.5506220000000  0.4235010000000 1.0
C      1  0.5765750000000  0.5515800000000  0.4596370000000 1.0
C      1  0.5519020000000  0.4604740000000  0.5762120000000 1.0
C      1  0.4603310000000  0.5761370000000  0.5506700000000 1.0
C      1  0.5762720000000  0.4480100000000  0.5393770000000 1.0
C      1  0.4225230000000  0.5520020000000  0.5404630000000 1.0
C      1  0.4237770000000  0.4491810000000  0.4602710000000 1.0
C      1  0.5507300000000  0.5395790000000  0.4237160000000 1.0
C      1  0.4479110000000  0.4593880000000  0.4224640000000 1.0
C      1  0.4483300000000  0.5402170000000  0.5765160000000 1.0
C      1  0.4596970000000  0.4233360000000  0.4482720000000 1.0
C      1  0.5405230000000  0.5773870000000  0.4478510000000 1.0
C      1  0.5394370000000  0.4236390000000  0.5518430000000 1.0
C      1  0.5256170000000  0.4738110000000  0.4738080000000 1.0
C      1  0.4738640000000  0.4742920000000  0.5260440000000 1.0
C      1  0.4737410000000  0.5261700000000  0.4736830000000 1.0
C      1  0.5261010000000  0.5260470000000  0.5255590000000 1.0
END
