TITL C-1379265-1223-352 8.86611921670509e-07 1000000 -2391.50443566044 0 0 340 (C1) n - 1
REM
REM in /nfs/bkarasulu/CARBON/AIRSS/Generating-Clusters/GAP-ML-2020/Higher-Symm/Selected-Sizes/TryA-Only_Ih-Symm/Larger-Clusters/Try2-MINAMP_6A
REM
REM
REM
REM
REM
REM ./C.cell (31579ac4e95a012ec27f3239692ae8a5)
REM
REM compiler GCC version 9.2.1 20190827 (Red Hat 9.2.1-1)
REM options -cpp -mtune=generic -march=x86-64 -g -O0 -fpre-include=/usr/include/finclude/math-vector-fortran.h
REM seed 744887156 -1513943502 2004073471 1167581411 -1827062081 493338101 -1922900476 1635071416 -561474259 1439936938 1260777478 -507665649 1799267012 1206057924 -1687837969 -1552011384 -112222535 -406274296 1109080435 1459409810 -2017120857 1801618170 -1764732678 -26053859 7584204 1370339336 -1559685607 2135723162 2125673910 -2032150184 447668966 -1844531428 1068142768
REM
CELL 1.54180  100.00000  100.00000  100.00000   90.00000   90.00000   90.00000
LATT -1
SFAC C  
C      1  0.5564740000000  0.4632480000000  0.5190290000000 1.0
C      1  0.5202180000000  0.5571360000000  0.4614570000000 1.0
C      1  0.4628160000000  0.5193440000000  0.5570390000000 1.0
C      1  0.4427210000000  0.4619990000000  0.4806580000000 1.0
C      1  0.5579540000000  0.5371220000000  0.4798390000000 1.0
C      1  0.4432030000000  0.5367640000000  0.5186790000000 1.0
C      1  0.4818350000000  0.5563940000000  0.5362550000000 1.0
C      1  0.5186710000000  0.4426180000000  0.5368720000000 1.0
C      1  0.4808640000000  0.4429070000000  0.4620820000000 1.0
C      1  0.5380030000000  0.5188510000000  0.4419050000000 1.0
C      1  0.4624620000000  0.4814720000000  0.4430940000000 1.0
C      1  0.5363190000000  0.4803970000000  0.5572670000000 1.0
C      1  0.5181720000000  0.4620940000000  0.5568910000000 1.0
C      1  0.4634800000000  0.5562240000000  0.5179320000000 1.0
C      1  0.5578710000000  0.5188310000000  0.4618130000000 1.0
C      1  0.4807780000000  0.4632410000000  0.4427200000000 1.0
C      1  0.4811040000000  0.5374140000000  0.5568730000000 1.0
C      1  0.5199820000000  0.5371550000000  0.4418070000000 1.0
C      1  0.5383540000000  0.5571490000000  0.4795740000000 1.0
C      1  0.5370510000000  0.4430060000000  0.5187880000000 1.0
C      1  0.4626290000000  0.4424050000000  0.4802970000000 1.0
C      1  0.4432760000000  0.5187040000000  0.5371180000000 1.0
C      1  0.4423690000000  0.4803360000000  0.4626380000000 1.0
C      1  0.5560480000000  0.4814470000000  0.5373510000000 1.0
C      1  0.4898010000000  0.5207100000000  0.5744320000000 1.0
C      1  0.5732980000000  0.4910210000000  0.5207460000000 1.0
C      1  0.5211170000000  0.5739370000000  0.4891300000000 1.0
C      1  0.5101480000000  0.5197680000000  0.4253110000000 1.0
C      1  0.4898290000000  0.4807450000000  0.4257490000000 1.0
C      1  0.5088900000000  0.4784830000000  0.5743550000000 1.0
C      1  0.4252850000000  0.4890620000000  0.4799530000000 1.0
C      1  0.5744180000000  0.5093150000000  0.4792000000000 1.0
C      1  0.4259350000000  0.5092190000000  0.5207070000000 1.0
C      1  0.4805910000000  0.5732750000000  0.5085370000000 1.0
C      1  0.5204990000000  0.4255840000000  0.5094330000000 1.0
C      1  0.4796460000000  0.4252140000000  0.4891780000000 1.0
C      1  0.5743490000000  0.5196890000000  0.4897270000000 1.0
C      1  0.5192160000000  0.4890270000000  0.5746230000000 1.0
C      1  0.4911640000000  0.5733450000000  0.5190600000000 1.0
C      1  0.4257580000000  0.5196630000000  0.5101720000000 1.0
C      1  0.4255710000000  0.4785640000000  0.4903100000000 1.0
C      1  0.5736190000000  0.4806230000000  0.5101290000000 1.0
C      1  0.4792120000000  0.4911500000000  0.4260450000000 1.0
C      1  0.4794250000000  0.5102320000000  0.5744060000000 1.0
C      1  0.5206740000000  0.5093860000000  0.4252540000000 1.0
C      1  0.5106490000000  0.5739140000000  0.4786970000000 1.0
C      1  0.5099870000000  0.4253080000000  0.5198060000000 1.0
C      1  0.4901190000000  0.4255200000000  0.4787560000000 1.0
C      1  0.5512240000000  0.4681070000000  0.5421550000000 1.0
C      1  0.5433090000000  0.5520220000000  0.4665210000000 1.0
C      1  0.4681870000000  0.5423170000000  0.5515060000000 1.0
C      1  0.4476300000000  0.4675070000000  0.4575320000000 1.0
C      1  0.5530180000000  0.5319050000000  0.4566880000000 1.0
C      1  0.4483150000000  0.5320080000000  0.5417730000000 1.0
C      1  0.4585250000000  0.5515540000000  0.5311790000000 1.0
C      1  0.5418060000000  0.4480420000000  0.5319200000000 1.0
C      1  0.4577150000000  0.4476120000000  0.4672540000000 1.0
C      1  0.5331740000000  0.5420360000000  0.4467050000000 1.0
C      1  0.4677220000000  0.4581520000000  0.4476260000000 1.0
C      1  0.5314290000000  0.4573800000000  0.5518900000000 1.0
C      1  0.5413690000000  0.4675420000000  0.5520270000000 1.0
C      1  0.4685560000000  0.5517180000000  0.5412130000000 1.0
C      1  0.5530910000000  0.5420220000000  0.4666380000000 1.0
C      1  0.4576200000000  0.4681110000000  0.4478020000000 1.0
C      1  0.4580580000000  0.5323520000000  0.5516970000000 1.0
C      1  0.5431210000000  0.5319140000000  0.4467850000000 1.0
C      1  0.5332800000000  0.5520250000000  0.4564950000000 1.0
C      1  0.5316850000000  0.4477220000000  0.5418820000000 1.0
C      1  0.4677660000000  0.4479640000000  0.4572240000000 1.0
C      1  0.4484330000000  0.5418640000000  0.5315550000000 1.0
C      1  0.4477270000000  0.4573180000000  0.4674240000000 1.0
C      1  0.5514450000000  0.4581720000000  0.5320460000000 1.0
C      1  0.4444910000000  0.5066790000000  0.5457770000000 1.0
C      1  0.5455410000000  0.4444480000000  0.5066900000000 1.0
C      1  0.5080230000000  0.5457620000000  0.4430180000000 1.0
C      1  0.5562930000000  0.5066300000000  0.4535580000000 1.0
C      1  0.4435910000000  0.4925710000000  0.4544610000000 1.0
C      1  0.5545460000000  0.4934790000000  0.5459590000000 1.0
C      1  0.4541760000000  0.4434090000000  0.4925330000000 1.0
C      1  0.5467800000000  0.5559150000000  0.4916550000000 1.0
C      1  0.4548450000000  0.5548200000000  0.5058880000000 1.0
C      1  0.4934480000000  0.5455630000000  0.5554490000000 1.0
C      1  0.5059210000000  0.4536620000000  0.5554370000000 1.0
C      1  0.4928850000000  0.4546760000000  0.4438060000000 1.0
C      1  0.5462570000000  0.5066470000000  0.4434880000000 1.0
C      1  0.5063800000000  0.4436680000000  0.5452390000000 1.0
C      1  0.4445020000000  0.5450030000000  0.5063840000000 1.0
C      1  0.4544950000000  0.5072030000000  0.5559050000000 1.0
C      1  0.4538340000000  0.4934970000000  0.4446140000000 1.0
C      1  0.5446150000000  0.4925680000000  0.5561320000000 1.0
C      1  0.4930380000000  0.4444050000000  0.4537120000000 1.0
C      1  0.4938890000000  0.5551940000000  0.5449420000000 1.0
C      1  0.5081410000000  0.5559150000000  0.4530290000000 1.0
C      1  0.5567510000000  0.5457230000000  0.4917950000000 1.0
C      1  0.5554710000000  0.4546890000000  0.5069150000000 1.0
C      1  0.4440920000000  0.4534860000000  0.4927500000000 1.0
C      1  0.5311080000000  0.5704300000000  0.4786260000000 1.0
C      1  0.4795710000000  0.5306200000000  0.5702980000000 1.0
C      1  0.5695100000000  0.4805010000000  0.5304460000000 1.0
C      1  0.4707330000000  0.5696140000000  0.5189640000000 1.0
C      1  0.5302480000000  0.4295390000000  0.5199110000000 1.0
C      1  0.4697410000000  0.4291380000000  0.4788230000000 1.0
C      1  0.5207300000000  0.5297740000000  0.4286030000000 1.0
C      1  0.4794930000000  0.4706760000000  0.4294210000000 1.0
C      1  0.5193590000000  0.4688070000000  0.5703450000000 1.0
C      1  0.4291100000000  0.4788650000000  0.4698230000000 1.0
C      1  0.5711070000000  0.5197730000000  0.4691620000000 1.0
C      1  0.4298800000000  0.5197780000000  0.5303310000000 1.0
C      1  0.4807390000000  0.5697000000000  0.5289350000000 1.0
C      1  0.5711340000000  0.5297090000000  0.4791370000000 1.0
C      1  0.5292650000000  0.4788370000000  0.5706010000000 1.0
C      1  0.5211480000000  0.5704180000000  0.4686910000000 1.0
C      1  0.5202140000000  0.4293010000000  0.5298080000000 1.0
C      1  0.4797340000000  0.4294270000000  0.4688860000000 1.0
C      1  0.4298070000000  0.5296990000000  0.5202970000000 1.0
C      1  0.4293350000000  0.4688460000000  0.4797190000000 1.0
C      1  0.5698030000000  0.4705800000000  0.5204300000000 1.0
C      1  0.4694820000000  0.4806050000000  0.4296860000000 1.0
C      1  0.4696080000000  0.5206430000000  0.5703960000000 1.0
C      1  0.5307000000000  0.5198330000000  0.4286390000000 1.0
C      1  0.4613460000000  0.5605150000000  0.4951940000000 1.0
C      1  0.4953070000000  0.4599840000000  0.5615530000000 1.0
C      1  0.5617440000000  0.4961190000000  0.4603770000000 1.0
C      1  0.5401580000000  0.5621780000000  0.5018390000000 1.0
C      1  0.4606840000000  0.4370420000000  0.5027260000000 1.0
C      1  0.5391630000000  0.4383120000000  0.4962250000000 1.0
C      1  0.5031280000000  0.4611910000000  0.4375950000000 1.0
C      1  0.4976570000000  0.5392440000000  0.4369240000000 1.0
C      1  0.5035570000000  0.5390290000000  0.5619690000000 1.0
C      1  0.4386350000000  0.4959050000000  0.5394860000000 1.0
C      1  0.5601090000000  0.5044520000000  0.5396430000000 1.0
C      1  0.4372260000000  0.5024680000000  0.4612700000000 1.0
C      1  0.4979460000000  0.5621570000000  0.4596640000000 1.0
C      1  0.5618040000000  0.4611640000000  0.4967210000000 1.0
C      1  0.4610650000000  0.4970600000000  0.5622460000000 1.0
C      1  0.5045930000000  0.5608260000000  0.5384120000000 1.0
C      1  0.5034540000000  0.4382980000000  0.4602060000000 1.0
C      1  0.4962930000000  0.4373910000000  0.5385350000000 1.0
C      1  0.4380620000000  0.4599470000000  0.5032190000000 1.0
C      1  0.4379900000000  0.5384310000000  0.4963180000000 1.0
C      1  0.5627890000000  0.5391680000000  0.5021760000000 1.0
C      1  0.5394640000000  0.4961510000000  0.4379860000000 1.0
C      1  0.5379770000000  0.5024710000000  0.5626450000000 1.0
C      1  0.4602000000000  0.5045010000000  0.4391830000000 1.0
C      1  0.5175680000000  0.5270250000000  0.5722800000000 1.0
C      1  0.5696540000000  0.5190630000000  0.5279100000000 1.0
C      1  0.5285120000000  0.5712350000000  0.5169050000000 1.0
C      1  0.4822970000000  0.5277640000000  0.4281600000000 1.0
C      1  0.5178290000000  0.4726200000000  0.4280880000000 1.0
C      1  0.4809020000000  0.4719590000000  0.5714500000000 1.0
C      1  0.4272010000000  0.5167160000000  0.4730160000000 1.0
C      1  0.5713010000000  0.4816960000000  0.4721760000000 1.0
C      1  0.4293890000000  0.4809740000000  0.5279230000000 1.0
C      1  0.4728850000000  0.5698900000000  0.4803700000000 1.0
C      1  0.5275460000000  0.4286340000000  0.4815540000000 1.0
C      1  0.4724870000000  0.4273210000000  0.5171520000000 1.0
C      1  0.5714250000000  0.5276270000000  0.5175790000000 1.0
C      1  0.5265290000000  0.5168770000000  0.5727480000000 1.0
C      1  0.5194520000000  0.5700590000000  0.5268490000000 1.0
C      1  0.4277310000000  0.5265990000000  0.4822480000000 1.0
C      1  0.4287890000000  0.4716040000000  0.5181940000000 1.0
C      1  0.5714550000000  0.4725690000000  0.4820910000000 1.0
C      1  0.4719700000000  0.5191810000000  0.4298270000000 1.0
C      1  0.4720730000000  0.4822430000000  0.5724570000000 1.0
C      1  0.5277330000000  0.4817550000000  0.4283320000000 1.0
C      1  0.4828410000000  0.5711350000000  0.4713270000000 1.0
C      1  0.4820010000000  0.4274690000000  0.5267330000000 1.0
C      1  0.5180350000000  0.4286360000000  0.4719560000000 1.0
C      1  0.4749040000000  0.5463220000000  0.5148100000000 1.0
C      1  0.5149930000000  0.4735770000000  0.5470990000000 1.0
C      1  0.5477940000000  0.5158110000000  0.4732100000000 1.0
C      1  0.5269810000000  0.5472750000000  0.4829170000000 1.0
C      1  0.4739060000000  0.4523370000000  0.4837270000000 1.0
C      1  0.5255250000000  0.4527890000000  0.5154990000000 1.0
C      1  0.4840860000000  0.4744970000000  0.4527060000000 1.0
C      1  0.5165600000000  0.5259550000000  0.4518440000000 1.0
C      1  0.4843020000000  0.5258470000000  0.5470990000000 1.0
C      1  0.4531360000000  0.5152840000000  0.5257000000000 1.0
C      1  0.5462440000000  0.4846140000000  0.5258190000000 1.0
C      1  0.4523070000000  0.4836560000000  0.4739780000000 1.0
C      1  0.5168930000000  0.5472510000000  0.4728320000000 1.0
C      1  0.5465360000000  0.4745370000000  0.5156690000000 1.0
C      1  0.4741890000000  0.5157250000000  0.5472610000000 1.0
C      1  0.4850170000000  0.5464030000000  0.5249220000000 1.0
C      1  0.4840440000000  0.4526590000000  0.4736560000000 1.0
C      1  0.5153370000000  0.4525210000000  0.5255300000000 1.0
C      1  0.4525530000000  0.4734590000000  0.4839850000000 1.0
C      1  0.4530300000000  0.5253050000000  0.5154840000000 1.0
C      1  0.5478730000000  0.5259450000000  0.4832220000000 1.0
C      1  0.5265660000000  0.5158130000000  0.4519300000000 1.0
C      1  0.5249960000000  0.4838180000000  0.5473820000000 1.0
C      1  0.4739490000000  0.4845730000000  0.4529730000000 1.0
C      1  0.5031730000000  0.4766460000000  0.4324920000000 1.0
C      1  0.4319460000000  0.5022700000000  0.4766970000000 1.0
C      1  0.4760620000000  0.4318460000000  0.5025230000000 1.0
C      1  0.4956430000000  0.4750700000000  0.5672420000000 1.0
C      1  0.5030330000000  0.5239030000000  0.5676630000000 1.0
C      1  0.4970370000000  0.5234690000000  0.4323090000000 1.0
C      1  0.5658690000000  0.5041960000000  0.5245770000000 1.0
C      1  0.4330840000000  0.4959080000000  0.5243220000000 1.0
C      1  0.5672200000000  0.4963830000000  0.4755790000000 1.0
C      1  0.5239080000000  0.4326670000000  0.4962710000000 1.0
C      1  0.4764670000000  0.5660260000000  0.4952390000000 1.0
C      1  0.5245480000000  0.5669560000000  0.5022170000000 1.0
C      1  0.4327030000000  0.4753330000000  0.5034030000000 1.0
C      1  0.4753010000000  0.5042870000000  0.4335280000000 1.0
C      1  0.5032870000000  0.4326460000000  0.4754740000000 1.0
C      1  0.5669630000000  0.4766020000000  0.4967250000000 1.0
C      1  0.5673210000000  0.5233580000000  0.5028170000000 1.0
C      1  0.4324410000000  0.5232320000000  0.4967790000000 1.0
C      1  0.5225150000000  0.5023640000000  0.5680790000000 1.0
C      1  0.5242950000000  0.4964320000000  0.4324370000000 1.0
C      1  0.4764010000000  0.4968690000000  0.5677480000000 1.0
C      1  0.4966330000000  0.4319780000000  0.5232170000000 1.0
C      1  0.4975560000000  0.5669080000000  0.4752960000000 1.0
C      1  0.5045440000000  0.5661890000000  0.5232660000000 1.0
C      1  0.4381750000000  0.5495950000000  0.4730810000000 1.0
C      1  0.4737750000000  0.4374780000000  0.5501800000000 1.0
C      1  0.5509890000000  0.4730910000000  0.4384360000000 1.0
C      1  0.5629640000000  0.5517300000000  0.5239810000000 1.0
C      1  0.4390510000000  0.4482660000000  0.5257450000000 1.0
C      1  0.5616320000000  0.4493140000000  0.4740290000000 1.0
C      1  0.5263270000000  0.4394050000000  0.4489290000000 1.0
C      1  0.4762800000000  0.5627400000000  0.4470780000000 1.0
C      1  0.5281320000000  0.5592550000000  0.5499440000000 1.0
C      1  0.4476730000000  0.4757370000000  0.5640000000000 1.0
C      1  0.5500190000000  0.5252360000000  0.5630010000000 1.0
C      1  0.4488760000000  0.5283130000000  0.4412340000000 1.0
C      1  0.4758160000000  0.5517940000000  0.4367860000000 1.0
C      1  0.5506310000000  0.4393910000000  0.4734320000000 1.0
C      1  0.4400760000000  0.4726950000000  0.5512660000000 1.0
C      1  0.5267860000000  0.5499760000000  0.5616720000000 1.0
C      1  0.5258110000000  0.4493350000000  0.4379290000000 1.0
C      1  0.4727930000000  0.4476640000000  0.5611330000000 1.0
C      1  0.4489870000000  0.4371310000000  0.5253890000000 1.0
C      1  0.4498390000000  0.5589550000000  0.4717100000000 1.0
C      1  0.5527610000000  0.5627620000000  0.5234840000000 1.0
C      1  0.5613240000000  0.4730740000000  0.4488470000000 1.0
C      1  0.5582330000000  0.5282840000000  0.5509540000000 1.0
C      1  0.4368220000000  0.5252050000000  0.4493960000000 1.0
C      1  0.5644880000000  0.4823510000000  0.4588940000000 1.0
C      1  0.4596920000000  0.5630470000000  0.4812420000000 1.0
C      1  0.4814850000000  0.4584060000000  0.5647570000000 1.0
C      1  0.4361580000000  0.4819210000000  0.5411120000000 1.0
C      1  0.5625240000000  0.5185330000000  0.5410360000000 1.0
C      1  0.4333870000000  0.5156480000000  0.4594790000000 1.0
C      1  0.5421290000000  0.5660160000000  0.5150460000000 1.0
C      1  0.4590180000000  0.4334550000000  0.5162720000000 1.0
C      1  0.5408130000000  0.4352470000000  0.4825100000000 1.0
C      1  0.5166510000000  0.4592470000000  0.4341310000000 1.0
C      1  0.4844040000000  0.5413400000000  0.4332430000000 1.0
C      1  0.5170680000000  0.5405000000000  0.5654750000000 1.0
C      1  0.4586750000000  0.4841370000000  0.5664810000000 1.0
C      1  0.4847300000000  0.5659690000000  0.4577040000000 1.0
C      1  0.5653750000000  0.4592100000000  0.4832270000000 1.0
C      1  0.5409700000000  0.4823860000000  0.4352230000000 1.0
C      1  0.5399600000000  0.5156410000000  0.5664620000000 1.0
C      1  0.4588130000000  0.5186020000000  0.4368810000000 1.0
C      1  0.5185700000000  0.5633230000000  0.5400790000000 1.0
C      1  0.5171830000000  0.4352520000000  0.4586820000000 1.0
C      1  0.4827700000000  0.4338960000000  0.5401160000000 1.0
C      1  0.4349520000000  0.4582140000000  0.5168190000000 1.0
C      1  0.4344340000000  0.5400550000000  0.4828130000000 1.0
C      1  0.5664490000000  0.5412360000000  0.5154310000000 1.0
C      1  0.4282890000000  0.5351950000000  0.4540700000000 1.0
C      1  0.4495640000000  0.4374570000000  0.5399370000000 1.0
C      1  0.5402580000000  0.4497220000000  0.4375350000000 1.0
C      1  0.5585580000000  0.5427200000000  0.5489850000000 1.0
C      1  0.4402450000000  0.4582620000000  0.5504420000000 1.0
C      1  0.5656650000000  0.4588500000000  0.4495810000000 1.0
C      1  0.5506800000000  0.4402080000000  0.4588050000000 1.0
C      1  0.4519200000000  0.5602400000000  0.4574060000000 1.0
C      1  0.5516420000000  0.5622400000000  0.5376150000000 1.0
C      1  0.4582740000000  0.4452230000000  0.5613140000000 1.0
C      1  0.5402190000000  0.5463200000000  0.5657750000000 1.0
C      1  0.4617020000000  0.5511180000000  0.4381610000000 1.0
C      1  0.4508160000000  0.5427430000000  0.4411060000000 1.0
C      1  0.5409500000000  0.4402170000000  0.4489910000000 1.0
C      1  0.4401780000000  0.4489750000000  0.5401560000000 1.0
C      1  0.5455000000000  0.5352990000000  0.5715510000000 1.0
C      1  0.5502780000000  0.4588710000000  0.4340720000000 1.0
C      1  0.4492520000000  0.4641860000000  0.5717190000000 1.0
C      1  0.4592370000000  0.4363350000000  0.5498910000000 1.0
C      1  0.4621490000000  0.5621730000000  0.4482140000000 1.0
C      1  0.5424460000000  0.5604120000000  0.5478450000000 1.0
C      1  0.5621320000000  0.4497050000000  0.4595830000000 1.0
C      1  0.5615840000000  0.5510690000000  0.5380900000000 1.0
C      1  0.4340520000000  0.5460890000000  0.4596020000000 1.0
C      1  0.4948400000000  0.5151910000000  0.4449880000000 1.0
C      1  0.4452910000000  0.4937820000000  0.5151930000000 1.0
C      1  0.5149520000000  0.4449390000000  0.4940960000000 1.0
C      1  0.5052360000000  0.5150270000000  0.5552650000000 1.0
C      1  0.4936960000000  0.4841310000000  0.5550150000000 1.0
C      1  0.5054650000000  0.4852720000000  0.4449280000000 1.0
C      1  0.5546120000000  0.4944210000000  0.4842720000000 1.0
C      1  0.4445710000000  0.5046800000000  0.4851000000000 1.0
C      1  0.5539060000000  0.5060490000000  0.5151170000000 1.0
C      1  0.4846750000000  0.4443180000000  0.5049200000000 1.0
C      1  0.5160540000000  0.5543400000000  0.5044270000000 1.0
C      1  0.4856480000000  0.5539400000000  0.4933300000000 1.0
C      1  0.4447960000000  0.5144050000000  0.4945290000000 1.0
C      1  0.5155320000000  0.4944390000000  0.4449920000000 1.0
C      1  0.4942690000000  0.4443620000000  0.5145520000000 1.0
C      1  0.5545980000000  0.5151450000000  0.5049590000000 1.0
C      1  0.5545830000000  0.4852750000000  0.4943580000000 1.0
C      1  0.4451440000000  0.4841390000000  0.5055400000000 1.0
C      1  0.4849110000000  0.4944450000000  0.5554200000000 1.0
C      1  0.4846950000000  0.5060680000000  0.4455610000000 1.0
C      1  0.5140620000000  0.5047870000000  0.5556380000000 1.0
C      1  0.5053490000000  0.4449110000000  0.4844600000000 1.0
C      1  0.5064860000000  0.5540460000000  0.5141570000000 1.0
C      1  0.4953810000000  0.5542800000000  0.4837730000000 1.0
C      1  0.5060700000000  0.5159390000000  0.4533170000000 1.0
C      1  0.4539030000000  0.5048030000000  0.5156250000000 1.0
C      1  0.5153990000000  0.4535810000000  0.5050900000000 1.0
C      1  0.4945140000000  0.5156130000000  0.5463730000000 1.0
C      1  0.5046240000000  0.4836740000000  0.5463480000000 1.0
C      1  0.4944980000000  0.4846360000000  0.4536290000000 1.0
C      1  0.5462410000000  0.5055720000000  0.4834290000000 1.0
C      1  0.4533700000000  0.4939070000000  0.4841730000000 1.0
C      1  0.5454010000000  0.4949540000000  0.5155920000000 1.0
C      1  0.4839840000000  0.4532040000000  0.4941500000000 1.0
C      1  0.5168640000000  0.5459170000000  0.4932890000000 1.0
C      1  0.4851080000000  0.5454220000000  0.5044320000000 1.0
C      1  0.4537120000000  0.5150390000000  0.5052520000000 1.0
C      1  0.5163360000000  0.5055710000000  0.4533990000000 1.0
C      1  0.5050270000000  0.4532750000000  0.5153130000000 1.0
C      1  0.5463180000000  0.5159330000000  0.4937010000000 1.0
C      1  0.5457890000000  0.4846820000000  0.5052540000000 1.0
C      1  0.4536430000000  0.4835250000000  0.4944260000000 1.0
C      1  0.4842560000000  0.5052730000000  0.5466100000000 1.0
C      1  0.4841640000000  0.4949170000000  0.4539850000000 1.0
C      1  0.5147870000000  0.4941060000000  0.5467170000000 1.0
C      1  0.4943370000000  0.4535160000000  0.4839020000000 1.0
C      1  0.4954150000000  0.5454890000000  0.5147440000000 1.0
C      1  0.5065400000000  0.5458830000000  0.4829650000000 1.0
C      1  0.4474460000000  0.4537350000000  0.5626790000000 1.0
C      1  0.5631380000000  0.4532550000000  0.4366970000000 1.0
C      1  0.4437750000000  0.5507160000000  0.4507300000000 1.0
C      1  0.5490670000000  0.5508420000000  0.5560070000000 1.0
END
