TITL C-1379265-1223-124 3.16155048716762e-07 1000000 -4058.48031727909 0 0 580 (C1) n - 1
REM
REM in /nfs/bkarasulu/CARBON/AIRSS/Generating-Clusters/GAP-ML-2020/Higher-Symm/Selected-Sizes/TryA-Only_Ih-Symm/Larger-Clusters/Try2-MINAMP_6A
REM
REM
REM
REM
REM
REM ./C.cell (31579ac4e95a012ec27f3239692ae8a5)
REM
REM compiler GCC version 9.2.1 20190827 (Red Hat 9.2.1-1)
REM options -cpp -mtune=generic -march=x86-64 -g -O0 -fpre-include=/usr/include/finclude/math-vector-fortran.h
REM seed 1778013825 161694858 175865593 1335579466 1202179095 -629187269 -1069118018 -808635565 75641323 153535466 424889534 -1940612532 -525781150 -1803825482 690760916 679704564 -1659213968 1292542195 43753866 -1427055684 -1393874333 2132657157 -244904151 1675176003 -225983477 -1686166894 -1855863800 -1847609805 -1456178255 1710652305 1101553800 -1488556715 1836264539
REM
CELL 1.54180  100.00000  100.00000  100.00000   90.00000   90.00000   90.00000
LATT -1
SFAC C  
C      1  0.5155470000000  0.5061010000000  0.5784530000000 1.0
C      1  0.5798350000000  0.5142720000000  0.5025460000000 1.0
C      1  0.5064800000000  0.5782130000000  0.5167560000000 1.0
C      1  0.4835300000000  0.4940160000000  0.5778190000000 1.0
C      1  0.4834810000000  0.5064320000000  0.4227430000000 1.0
C      1  0.5170840000000  0.4931480000000  0.4228370000000 1.0
C      1  0.4214200000000  0.4845930000000  0.5058790000000 1.0
C      1  0.4214130000000  0.5156950000000  0.4946320000000 1.0
C      1  0.5789000000000  0.4849290000000  0.4945550000000 1.0
C      1  0.4933640000000  0.4214510000000  0.5161990000000 1.0
C      1  0.4932990000000  0.5789880000000  0.4843830000000 1.0
C      1  0.5050920000000  0.4217110000000  0.4849700000000 1.0
C      1  0.5052130000000  0.5160090000000  0.5782910000000 1.0
C      1  0.5167680000000  0.5781940000000  0.5067190000000 1.0
C      1  0.5798200000000  0.5038500000000  0.5122810000000 1.0
C      1  0.4939390000000  0.4841590000000  0.5781200000000 1.0
C      1  0.5068360000000  0.4830570000000  0.4228890000000 1.0
C      1  0.4938430000000  0.5163770000000  0.4224740000000 1.0
C      1  0.4831910000000  0.4220260000000  0.5061200000000 1.0
C      1  0.5152060000000  0.4216380000000  0.4950830000000 1.0
C      1  0.4831170000000  0.5783400000000  0.4944730000000 1.0
C      1  0.4217230000000  0.4943960000000  0.5163060000000 1.0
C      1  0.5787480000000  0.4950630000000  0.4845000000000 1.0
C      1  0.4217310000000  0.5058960000000  0.4842000000000 1.0
C      1  0.5813010000000  0.4712340000000  0.5191950000000 1.0
C      1  0.5188920000000  0.5814120000000  0.4709700000000 1.0
C      1  0.4708590000000  0.5184790000000  0.5810700000000 1.0
C      1  0.4187100000000  0.5284630000000  0.5195700000000 1.0
C      1  0.4187260000000  0.4718480000000  0.4809520000000 1.0
C      1  0.5813640000000  0.5296160000000  0.4807550000000 1.0
C      1  0.4806320000000  0.4192890000000  0.4715680000000 1.0
C      1  0.4809000000000  0.5810880000000  0.5290670000000 1.0
C      1  0.5192370000000  0.4192860000000  0.5297650000000 1.0
C      1  0.5292110000000  0.4819550000000  0.5813910000000 1.0
C      1  0.5291530000000  0.5182500000000  0.4191460000000 1.0
C      1  0.4712590000000  0.4816850000000  0.4194420000000 1.0
C      1  0.4705580000000  0.5810920000000  0.5190550000000 1.0
C      1  0.5813270000000  0.5191670000000  0.4709660000000 1.0
C      1  0.5190140000000  0.4718790000000  0.5814440000000 1.0
C      1  0.5293320000000  0.4192980000000  0.5195320000000 1.0
C      1  0.4704090000000  0.4192740000000  0.4816560000000 1.0
C      1  0.5289280000000  0.5814680000000  0.4812980000000 1.0
C      1  0.4187570000000  0.4820580000000  0.4708990000000 1.0
C      1  0.5814810000000  0.4814650000000  0.5292970000000 1.0
C      1  0.4186890000000  0.5182250000000  0.5295930000000 1.0
C      1  0.4808230000000  0.5288090000000  0.5809100000000 1.0
C      1  0.5190790000000  0.5285010000000  0.4191530000000 1.0
C      1  0.4813780000000  0.4714450000000  0.4195140000000 1.0
C      1  0.5696730000000  0.4415140000000  0.5000400000000 1.0
C      1  0.5014770000000  0.5692800000000  0.4405620000000 1.0
C      1  0.4412990000000  0.4991140000000  0.5690750000000 1.0
C      1  0.4286750000000  0.5584080000000  0.5019680000000 1.0
C      1  0.4286550000000  0.4419120000000  0.4986420000000 1.0
C      1  0.5701000000000  0.5603080000000  0.4988630000000 1.0
C      1  0.4994910000000  0.4308550000000  0.4417330000000 1.0
C      1  0.4993290000000  0.5691000000000  0.5590600000000 1.0
C      1  0.5016690000000  0.4311950000000  0.5599330000000 1.0
C      1  0.5586090000000  0.5006560000000  0.5705540000000 1.0
C      1  0.5589030000000  0.4996840000000  0.4312460000000 1.0
C      1  0.4415080000000  0.5010380000000  0.4315130000000 1.0
C      1  0.4384250000000  0.5695440000000  0.5021870000000 1.0
C      1  0.5696420000000  0.5001560000000  0.4413510000000 1.0
C      1  0.5010430000000  0.4419390000000  0.5699420000000 1.0
C      1  0.5592090000000  0.4311200000000  0.5000770000000 1.0
C      1  0.4383400000000  0.4307380000000  0.4984460000000 1.0
C      1  0.5588900000000  0.5697270000000  0.5001170000000 1.0
C      1  0.4307480000000  0.5010650000000  0.4416010000000 1.0
C      1  0.5686450000000  0.5010870000000  0.5597530000000 1.0
C      1  0.4306330000000  0.4991130000000  0.5589080000000 1.0
C      1  0.4991700000000  0.5588330000000  0.5696740000000 1.0
C      1  0.5009350000000  0.5585120000000  0.4305580000000 1.0
C      1  0.4999310000000  0.4415230000000  0.4315280000000 1.0
C      1  0.4704590000000  0.4204850000000  0.4613560000000 1.0
C      1  0.4609710000000  0.4716100000000  0.4206200000000 1.0
C      1  0.4196700000000  0.4618920000000  0.4704310000000 1.0
C      1  0.5293770000000  0.5800200000000  0.4610210000000 1.0
C      1  0.5297950000000  0.4206930000000  0.5396560000000 1.0
C      1  0.4706820000000  0.5797180000000  0.5392280000000 1.0
C      1  0.5394150000000  0.5284240000000  0.4202750000000 1.0
C      1  0.5394170000000  0.4716810000000  0.5804990000000 1.0
C      1  0.4604870000000  0.5285190000000  0.5800610000000 1.0
C      1  0.5805140000000  0.5396760000000  0.4703790000000 1.0
C      1  0.5803510000000  0.4613030000000  0.5296630000000 1.0
C      1  0.4196480000000  0.5383800000000  0.5301290000000 1.0
C      1  0.4197210000000  0.4720240000000  0.4604780000000 1.0
C      1  0.4710180000000  0.4614280000000  0.4207170000000 1.0
C      1  0.4603150000000  0.4205280000000  0.4713540000000 1.0
C      1  0.5804050000000  0.5292940000000  0.4606470000000 1.0
C      1  0.4196350000000  0.5282190000000  0.5400540000000 1.0
C      1  0.5804070000000  0.4715330000000  0.5396960000000 1.0
C      1  0.5294250000000  0.5385830000000  0.4203240000000 1.0
C      1  0.4704000000000  0.5387880000000  0.5799580000000 1.0
C      1  0.5293150000000  0.4616850000000  0.5803890000000 1.0
C      1  0.5392940000000  0.5801860000000  0.4712490000000 1.0
C      1  0.4604570000000  0.5797380000000  0.5293100000000 1.0
C      1  0.5397770000000  0.4205130000000  0.5294780000000 1.0
C      1  0.5413680000000  0.4972910000000  0.5135690000000 1.0
C      1  0.5135720000000  0.5405100000000  0.4970310000000 1.0
C      1  0.4967000000000  0.5134960000000  0.5399920000000 1.0
C      1  0.4597270000000  0.5034080000000  0.5132760000000 1.0
C      1  0.4597440000000  0.4969380000000  0.4872440000000 1.0
C      1  0.5406870000000  0.5037380000000  0.4874500000000 1.0
C      1  0.4863320000000  0.4596380000000  0.4974220000000 1.0
C      1  0.4863680000000  0.5407590000000  0.5032180000000 1.0
C      1  0.5136290000000  0.4599400000000  0.5036430000000 1.0
C      1  0.5039110000000  0.4872420000000  0.5401890000000 1.0
C      1  0.5037550000000  0.5133820000000  0.4604700000000 1.0
C      1  0.4967230000000  0.4868510000000  0.4606440000000 1.0
C      1  0.4962870000000  0.5406870000000  0.5130780000000 1.0
C      1  0.5410280000000  0.5138380000000  0.4971640000000 1.0
C      1  0.5136890000000  0.4971650000000  0.5402110000000 1.0
C      1  0.5039000000000  0.4598320000000  0.5135560000000 1.0
C      1  0.4962650000000  0.4596750000000  0.4875810000000 1.0
C      1  0.5037980000000  0.5406620000000  0.4871590000000 1.0
C      1  0.4596800000000  0.4870840000000  0.4971270000000 1.0
C      1  0.5409200000000  0.4873730000000  0.5035920000000 1.0
C      1  0.4596750000000  0.5132790000000  0.5034100000000 1.0
C      1  0.4868970000000  0.5035890000000  0.5399750000000 1.0
C      1  0.5135550000000  0.5034830000000  0.4605540000000 1.0
C      1  0.4869360000000  0.4967700000000  0.4605940000000 1.0
C      1  0.4659590000000  0.5580610000000  0.4519520000000 1.0
C      1  0.4525480000000  0.4616030000000  0.5571110000000 1.0
C      1  0.5643400000000  0.4527820000000  0.4617140000000 1.0
C      1  0.5370670000000  0.4397970000000  0.4524890000000 1.0
C      1  0.5366900000000  0.5584430000000  0.5496090000000 1.0
C      1  0.4660560000000  0.4422470000000  0.5486740000000 1.0
C      1  0.5464780000000  0.5381440000000  0.5612630000000 1.0
C      1  0.5487590000000  0.4617410000000  0.4435700000000 1.0
C      1  0.4524980000000  0.5387120000000  0.4434670000000 1.0
C      1  0.4382930000000  0.5489290000000  0.4642040000000 1.0
C      1  0.4383460000000  0.4513920000000  0.5363500000000 1.0
C      1  0.5683340000000  0.5476420000000  0.5350710000000 1.0
C      1  0.5604300000000  0.4628540000000  0.4523340000000 1.0
C      1  0.4637720000000  0.4521980000000  0.5583670000000 1.0
C      1  0.4467920000000  0.5599280000000  0.4668980000000 1.0
C      1  0.4412070000000  0.5389530000000  0.4535170000000 1.0
C      1  0.5565850000000  0.5379720000000  0.5516520000000 1.0
C      1  0.4412520000000  0.4613520000000  0.5470270000000 1.0
C      1  0.5364990000000  0.5483940000000  0.5601610000000 1.0
C      1  0.4636730000000  0.5481520000000  0.4422250000000 1.0
C      1  0.5382340000000  0.4513220000000  0.4436080000000 1.0
C      1  0.5472100000000  0.4360130000000  0.4618450000000 1.0
C      1  0.4468330000000  0.4403760000000  0.5336900000000 1.0
C      1  0.5473170000000  0.5589350000000  0.5402540000000 1.0
C      1  0.5103570000000  0.5503320000000  0.5292600000000 1.0
C      1  0.5298250000000  0.5111180000000  0.5504790000000 1.0
C      1  0.5516680000000  0.5303550000000  0.5110660000000 1.0
C      1  0.4906030000000  0.4504580000000  0.5298780000000 1.0
C      1  0.4905720000000  0.5500100000000  0.4707970000000 1.0
C      1  0.5103060000000  0.4497110000000  0.4713590000000 1.0
C      1  0.4709160000000  0.4897270000000  0.5502480000000 1.0
C      1  0.4710450000000  0.5105850000000  0.4502580000000 1.0
C      1  0.5294510000000  0.4896470000000  0.4503510000000 1.0
C      1  0.4495190000000  0.4705520000000  0.5106650000000 1.0
C      1  0.4495400000000  0.5298010000000  0.4898550000000 1.0
C      1  0.5507340000000  0.4705820000000  0.4896240000000 1.0
C      1  0.5523750000000  0.5117350000000  0.5297680000000 1.0
C      1  0.5104960000000  0.5295810000000  0.5503010000000 1.0
C      1  0.5296310000000  0.5507550000000  0.5106390000000 1.0
C      1  0.4495320000000  0.4893220000000  0.5294750000000 1.0
C      1  0.5505640000000  0.4896310000000  0.4709300000000 1.0
C      1  0.4495930000000  0.5110170000000  0.4710240000000 1.0
C      1  0.4901990000000  0.4711710000000  0.5502890000000 1.0
C      1  0.5103790000000  0.4707420000000  0.4504500000000 1.0
C      1  0.4901510000000  0.5292970000000  0.4502220000000 1.0
C      1  0.4703730000000  0.4492660000000  0.5119860000000 1.0
C      1  0.5295020000000  0.4495240000000  0.4898970000000 1.0
C      1  0.4704280000000  0.5511030000000  0.4886730000000 1.0
C      1  0.5509660000000  0.5396830000000  0.4987400000000 1.0
C      1  0.4984170000000  0.5505290000000  0.5388850000000 1.0
C      1  0.5396370000000  0.4993730000000  0.5505840000000 1.0
C      1  0.4492140000000  0.4608840000000  0.4989360000000 1.0
C      1  0.4492240000000  0.5394630000000  0.5016160000000 1.0
C      1  0.5507600000000  0.4611200000000  0.5016830000000 1.0
C      1  0.5024680000000  0.4502650000000  0.5394230000000 1.0
C      1  0.5023170000000  0.5503300000000  0.4611800000000 1.0
C      1  0.4983520000000  0.4497060000000  0.4617300000000 1.0
C      1  0.4610960000000  0.5014140000000  0.5503770000000 1.0
C      1  0.4612560000000  0.4988920000000  0.4501090000000 1.0
C      1  0.5391720000000  0.5014380000000  0.4500490000000 1.0
C      1  0.5393020000000  0.5510060000000  0.4988700000000 1.0
C      1  0.5513450000000  0.4995220000000  0.5390800000000 1.0
C      1  0.4984340000000  0.5391540000000  0.5503290000000 1.0
C      1  0.4605780000000  0.4493450000000  0.4997250000000 1.0
C      1  0.5392790000000  0.4496640000000  0.5016670000000 1.0
C      1  0.4606350000000  0.5510090000000  0.5008860000000 1.0
C      1  0.4495930000000  0.5012750000000  0.5390980000000 1.0
C      1  0.5506400000000  0.5015990000000  0.4613090000000 1.0
C      1  0.4496820000000  0.4990420000000  0.4613980000000 1.0
C      1  0.5022400000000  0.4616430000000  0.5506470000000 1.0
C      1  0.4984770000000  0.4611630000000  0.4502920000000 1.0
C      1  0.5020750000000  0.5389200000000  0.4498650000000 1.0
C      1  0.4847980000000  0.5039720000000  0.5665390000000 1.0
C      1  0.5671920000000  0.4846070000000  0.5038470000000 1.0
C      1  0.5036090000000  0.5676550000000  0.4850140000000 1.0
C      1  0.5154110000000  0.4965820000000  0.5669210000000 1.0
C      1  0.5153100000000  0.5035960000000  0.4337550000000 1.0
C      1  0.4851910000000  0.4963240000000  0.4339010000000 1.0
C      1  0.4329780000000  0.5151830000000  0.5042590000000 1.0
C      1  0.4329910000000  0.4851510000000  0.4962440000000 1.0
C      1  0.5671390000000  0.5157390000000  0.4952700000000 1.0
C      1  0.4957060000000  0.4333170000000  0.4855030000000 1.0
C      1  0.4962050000000  0.5671270000000  0.5152350000000 1.0
C      1  0.5036120000000  0.4328210000000  0.5159060000000 1.0
C      1  0.5040720000000  0.4854270000000  0.5668970000000 1.0
C      1  0.4847840000000  0.5670720000000  0.5041750000000 1.0
C      1  0.5669470000000  0.5042610000000  0.4846410000000 1.0
C      1  0.4958920000000  0.5152470000000  0.5666440000000 1.0
C      1  0.5040740000000  0.5149110000000  0.4336090000000 1.0
C      1  0.4964480000000  0.4850190000000  0.4338860000000 1.0
C      1  0.5150420000000  0.4330580000000  0.5047080000000 1.0
C      1  0.4845320000000  0.4334060000000  0.4965470000000 1.0
C      1  0.5150660000000  0.5673200000000  0.4963260000000 1.0
C      1  0.4332340000000  0.4963890000000  0.4850350000000 1.0
C      1  0.5677230000000  0.4958370000000  0.5146000000000 1.0
C      1  0.4332140000000  0.5039370000000  0.5154540000000 1.0
C      1  0.5191830000000  0.4709890000000  0.4620430000000 1.0
C      1  0.4615880000000  0.5193630000000  0.4715210000000 1.0
C      1  0.4716740000000  0.4620510000000  0.5189890000000 1.0
C      1  0.4813800000000  0.5289240000000  0.4620010000000 1.0
C      1  0.4813950000000  0.4715340000000  0.5385300000000 1.0
C      1  0.5194620000000  0.5291890000000  0.5385710000000 1.0
C      1  0.5386150000000  0.4811070000000  0.4716640000000 1.0
C      1  0.5398130000000  0.5198460000000  0.5293790000000 1.0
C      1  0.4615280000000  0.4809910000000  0.5289990000000 1.0
C      1  0.5295660000000  0.5389620000000  0.5192640000000 1.0
C      1  0.5290800000000  0.4614360000000  0.4813990000000 1.0
C      1  0.4717490000000  0.5382940000000  0.4816650000000 1.0
C      1  0.4712880000000  0.5192420000000  0.4619390000000 1.0
C      1  0.5189170000000  0.4615690000000  0.4718140000000 1.0
C      1  0.4616950000000  0.4712350000000  0.5190990000000 1.0
C      1  0.5291230000000  0.4808950000000  0.4620020000000 1.0
C      1  0.4712290000000  0.4811250000000  0.5385610000000 1.0
C      1  0.5296090000000  0.5195390000000  0.5385310000000 1.0
C      1  0.4818260000000  0.5381150000000  0.4718850000000 1.0
C      1  0.5192800000000  0.5386770000000  0.5288730000000 1.0
C      1  0.4817700000000  0.4622690000000  0.5287440000000 1.0
C      1  0.5397250000000  0.5297920000000  0.5196810000000 1.0
C      1  0.4617390000000  0.5291260000000  0.4814400000000 1.0
C      1  0.5386780000000  0.4710630000000  0.4813580000000 1.0
C      1  0.4959510000000  0.4850290000000  0.5527430000000 1.0
C      1  0.5531880000000  0.4956900000000  0.4846760000000 1.0
C      1  0.4843100000000  0.5533440000000  0.4953070000000 1.0
C      1  0.5045290000000  0.5157090000000  0.5527090000000 1.0
C      1  0.5045720000000  0.4846290000000  0.4479960000000 1.0
C      1  0.4959580000000  0.5154220000000  0.4477980000000 1.0
C      1  0.4471060000000  0.5048230000000  0.4848140000000 1.0
C      1  0.4470810000000  0.4955210000000  0.5156880000000 1.0
C      1  0.5542180000000  0.5053270000000  0.5157010000000 1.0
C      1  0.5155750000000  0.4470590000000  0.4960500000000 1.0
C      1  0.5156870000000  0.5532070000000  0.5047030000000 1.0
C      1  0.4842360000000  0.4470850000000  0.5054010000000 1.0
C      1  0.4847120000000  0.4957710000000  0.5526230000000 1.0
C      1  0.4958160000000  0.5532470000000  0.4847660000000 1.0
C      1  0.5533310000000  0.4845430000000  0.4955210000000 1.0
C      1  0.5158160000000  0.5049820000000  0.5528560000000 1.0
C      1  0.4848690000000  0.5045550000000  0.4478940000000 1.0
C      1  0.5156330000000  0.4955660000000  0.4479290000000 1.0
C      1  0.5043120000000  0.4471680000000  0.4852430000000 1.0
C      1  0.4958210000000  0.4472350000000  0.5159630000000 1.0
C      1  0.5044480000000  0.5530820000000  0.5154730000000 1.0
C      1  0.4470050000000  0.5157450000000  0.4957860000000 1.0
C      1  0.5540600000000  0.5163310000000  0.5048110000000 1.0
C      1  0.4469990000000  0.4846040000000  0.5047250000000 1.0
C      1  0.4947810000000  0.5400130000000  0.5651780000000 1.0
C      1  0.5661580000000  0.4957400000000  0.5397200000000 1.0
C      1  0.5398650000000  0.5659860000000  0.4956330000000 1.0
C      1  0.5053500000000  0.4607060000000  0.5655270000000 1.0
C      1  0.5052780000000  0.5397020000000  0.4349520000000 1.0
C      1  0.4952310000000  0.4602770000000  0.4353700000000 1.0
C      1  0.4348010000000  0.5044320000000  0.5402540000000 1.0
C      1  0.4348860000000  0.4958460000000  0.4602370000000 1.0
C      1  0.5654540000000  0.5051000000000  0.4600130000000 1.0
C      1  0.4595390000000  0.4347810000000  0.4957740000000 1.0
C      1  0.4597090000000  0.5655750000000  0.5048970000000 1.0
C      1  0.5399550000000  0.4348210000000  0.5052150000000 1.0
C      1  0.5402500000000  0.4956800000000  0.5653900000000 1.0
C      1  0.4950590000000  0.5654160000000  0.5399340000000 1.0
C      1  0.5655820000000  0.5406510000000  0.4944010000000 1.0
C      1  0.4600130000000  0.5044930000000  0.5652180000000 1.0
C      1  0.5400870000000  0.5044860000000  0.4351450000000 1.0
C      1  0.4603480000000  0.4956980000000  0.4352500000000 1.0
C      1  0.5060490000000  0.4354360000000  0.5406810000000 1.0
C      1  0.4948070000000  0.4348850000000  0.4607170000000 1.0
C      1  0.5057800000000  0.5652280000000  0.4601200000000 1.0
C      1  0.4343770000000  0.4603960000000  0.4948930000000 1.0
C      1  0.5656130000000  0.4599860000000  0.5051310000000 1.0
C      1  0.4343760000000  0.5399310000000  0.5056580000000 1.0
C      1  0.4683410000000  0.4531110000000  0.4872700000000 1.0
C      1  0.4862800000000  0.4689380000000  0.4536630000000 1.0
C      1  0.4529510000000  0.4867100000000  0.4692030000000 1.0
C      1  0.5317420000000  0.5473420000000  0.4866210000000 1.0
C      1  0.5317840000000  0.4534580000000  0.5138830000000 1.0
C      1  0.4683630000000  0.5472570000000  0.5133360000000 1.0
C      1  0.5142430000000  0.5312360000000  0.4532230000000 1.0
C      1  0.5144300000000  0.4694540000000  0.5473770000000 1.0
C      1  0.4862440000000  0.5313670000000  0.5469090000000 1.0
C      1  0.5473360000000  0.5138770000000  0.4691440000000 1.0
C      1  0.5476150000000  0.4873100000000  0.5312740000000 1.0
C      1  0.4529080000000  0.5136200000000  0.5313180000000 1.0
C      1  0.4527620000000  0.4686810000000  0.4867060000000 1.0
C      1  0.4688700000000  0.4865710000000  0.4535700000000 1.0
C      1  0.4860860000000  0.4530690000000  0.4695300000000 1.0
C      1  0.5473030000000  0.5316930000000  0.4866880000000 1.0
C      1  0.4527410000000  0.5316510000000  0.5138300000000 1.0
C      1  0.5474130000000  0.4692540000000  0.5138210000000 1.0
C      1  0.5315760000000  0.5137350000000  0.4534540000000 1.0
C      1  0.4687580000000  0.5137380000000  0.5469340000000 1.0
C      1  0.5319730000000  0.4870740000000  0.5471230000000 1.0
C      1  0.5144340000000  0.5474560000000  0.4690540000000 1.0
C      1  0.4861120000000  0.5473200000000  0.5310850000000 1.0
C      1  0.5145530000000  0.4532470000000  0.5314930000000 1.0
C      1  0.5857460000000  0.5241680000000  0.5113370000000 1.0
C      1  0.5160960000000  0.5826970000000  0.5267590000000 1.0
C      1  0.5249270000000  0.5156310000000  0.5839550000000 1.0
C      1  0.4160860000000  0.4747740000000  0.5151910000000 1.0
C      1  0.4160860000000  0.5255130000000  0.4853260000000 1.0
C      1  0.5842070000000  0.4752650000000  0.4852730000000 1.0
C      1  0.4833460000000  0.4167770000000  0.5258210000000 1.0
C      1  0.4832180000000  0.5836130000000  0.4747420000000 1.0
C      1  0.5144430000000  0.4166710000000  0.4751230000000 1.0
C      1  0.4737100000000  0.4842820000000  0.5825540000000 1.0
C      1  0.4736450000000  0.5161560000000  0.4179940000000 1.0
C      1  0.5269760000000  0.4833730000000  0.4182690000000 1.0
C      1  0.5266950000000  0.5826000000000  0.5164870000000 1.0
C      1  0.5850590000000  0.5131900000000  0.5215530000000 1.0
C      1  0.5143120000000  0.5259890000000  0.5836000000000 1.0
C      1  0.4729280000000  0.4178020000000  0.5155220000000 1.0
C      1  0.5249080000000  0.4164550000000  0.4857290000000 1.0
C      1  0.4728420000000  0.5825310000000  0.4850690000000 1.0
C      1  0.4166550000000  0.4848490000000  0.5260140000000 1.0
C      1  0.5838830000000  0.4856630000000  0.4747380000000 1.0
C      1  0.4166690000000  0.5154360000000  0.4744920000000 1.0
C      1  0.4844190000000  0.4742100000000  0.5830280000000 1.0
C      1  0.5165060000000  0.4730330000000  0.4183290000000 1.0
C      1  0.4843150000000  0.5262800000000  0.4175260000000 1.0
C      1  0.4510230000000  0.4742880000000  0.4299450000000 1.0
C      1  0.4290100000000  0.4518760000000  0.4726770000000 1.0
C      1  0.4730940000000  0.4298520000000  0.4514370000000 1.0
C      1  0.5492840000000  0.5261310000000  0.4297800000000 1.0
C      1  0.5493070000000  0.4740320000000  0.5710790000000 1.0
C      1  0.4506340000000  0.5258750000000  0.5706030000000 1.0
C      1  0.5711270000000  0.5496090000000  0.4728500000000 1.0
C      1  0.5711100000000  0.4512300000000  0.5269350000000 1.0
C      1  0.4289720000000  0.5484100000000  0.5278950000000 1.0
C      1  0.5273660000000  0.5705390000000  0.4510920000000 1.0
C      1  0.5277280000000  0.4302010000000  0.5495830000000 1.0
C      1  0.4731390000000  0.5702710000000  0.5491310000000 1.0
C      1  0.4734610000000  0.4514250000000  0.4300460000000 1.0
C      1  0.4504320000000  0.4300110000000  0.4737540000000 1.0
C      1  0.4294430000000  0.4743990000000  0.4508350000000 1.0
C      1  0.5271300000000  0.5486080000000  0.4296480000000 1.0
C      1  0.4729060000000  0.5487890000000  0.5706690000000 1.0
C      1  0.5272210000000  0.4517980000000  0.5708270000000 1.0
C      1  0.5492000000000  0.5707620000000  0.4737760000000 1.0
C      1  0.4505590000000  0.5703010000000  0.5268770000000 1.0
C      1  0.5495730000000  0.4299670000000  0.5267080000000 1.0
C      1  0.5709020000000  0.5267030000000  0.4507800000000 1.0
C      1  0.4293440000000  0.5258120000000  0.5497040000000 1.0
C      1  0.5711200000000  0.4746380000000  0.5496070000000 1.0
C      1  0.4864600000000  0.4441320000000  0.5666890000000 1.0
C      1  0.5668790000000  0.4856900000000  0.4444000000000 1.0
C      1  0.4396430000000  0.5683840000000  0.4873050000000 1.0
C      1  0.5137510000000  0.5561770000000  0.5668410000000 1.0
C      1  0.5145850000000  0.4438320000000  0.4350150000000 1.0
C      1  0.4863330000000  0.5562750000000  0.4338410000000 1.0
C      1  0.4337680000000  0.5156030000000  0.4445450000000 1.0
C      1  0.4336870000000  0.4845890000000  0.5559830000000 1.0
C      1  0.5646490000000  0.5155730000000  0.5572960000000 1.0
C      1  0.5563510000000  0.4340730000000  0.4855290000000 1.0
C      1  0.5569550000000  0.5653950000000  0.5148110000000 1.0
C      1  0.4396190000000  0.4319200000000  0.5133230000000 1.0
C      1  0.4440250000000  0.4845820000000  0.5657340000000 1.0
C      1  0.4868850000000  0.5669590000000  0.4434010000000 1.0
C      1  0.5665280000000  0.4440980000000  0.4853910000000 1.0
C      1  0.5552120000000  0.5151750000000  0.5679260000000 1.0
C      1  0.4441350000000  0.5156070000000  0.4348360000000 1.0
C      1  0.5564170000000  0.4851380000000  0.4348200000000 1.0
C      1  0.5139990000000  0.4334740000000  0.4446860000000 1.0
C      1  0.4870470000000  0.4334340000000  0.5571190000000 1.0
C      1  0.5138840000000  0.5660310000000  0.5566140000000 1.0
C      1  0.4311810000000  0.5565110000000  0.4872360000000 1.0
C      1  0.5682960000000  0.5567270000000  0.5133030000000 1.0
C      1  0.4311740000000  0.4438080000000  0.5133710000000 1.0
C      1  0.4527790000000  0.4425240000000  0.4654560000000 1.0
C      1  0.4651390000000  0.4535940000000  0.4425600000000 1.0
C      1  0.4420110000000  0.4659250000000  0.4533230000000 1.0
C      1  0.5472450000000  0.5581780000000  0.4653190000000 1.0
C      1  0.5474480000000  0.4426790000000  0.5350550000000 1.0
C      1  0.4527840000000  0.5577900000000  0.5351480000000 1.0
C      1  0.5353650000000  0.5467410000000  0.4422320000000 1.0
C      1  0.5355720000000  0.4539650000000  0.5582430000000 1.0
C      1  0.4648700000000  0.5466530000000  0.5580150000000 1.0
C      1  0.5582690000000  0.5348930000000  0.4531560000000 1.0
C      1  0.5585120000000  0.4662140000000  0.5472800000000 1.0
C      1  0.4419110000000  0.5343170000000  0.5471900000000 1.0
C      1  0.4418160000000  0.4537680000000  0.4650380000000 1.0
C      1  0.4531610000000  0.4658450000000  0.4424450000000 1.0
C      1  0.4649160000000  0.4424830000000  0.4535960000000 1.0
C      1  0.5583660000000  0.5471410000000  0.4650510000000 1.0
C      1  0.4417730000000  0.5465440000000  0.5355140000000 1.0
C      1  0.5585120000000  0.4537140000000  0.5350530000000 1.0
C      1  0.5471630000000  0.5346800000000  0.4422330000000 1.0
C      1  0.4529820000000  0.5343580000000  0.5580750000000 1.0
C      1  0.5473520000000  0.4659560000000  0.5583230000000 1.0
C      1  0.5355010000000  0.5580160000000  0.4532650000000 1.0
C      1  0.4648350000000  0.5577820000000  0.5469870000000 1.0
C      1  0.5357570000000  0.4427930000000  0.5472400000000 1.0
C      1  0.5242000000000  0.4216030000000  0.4657380000000 1.0
C      1  0.4643140000000  0.5260900000000  0.4231170000000 1.0
C      1  0.4204850000000  0.4649010000000  0.5247820000000 1.0
C      1  0.4741090000000  0.5783710000000  0.4648040000000 1.0
C      1  0.4742290000000  0.4219690000000  0.5357800000000 1.0
C      1  0.5257020000000  0.5774950000000  0.5362930000000 1.0
C      1  0.5364620000000  0.4736360000000  0.4234180000000 1.0
C      1  0.5343430000000  0.5256560000000  0.5795870000000 1.0
C      1  0.4644020000000  0.4743040000000  0.5774400000000 1.0
C      1  0.5816160000000  0.5338860000000  0.5206170000000 1.0
C      1  0.5795000000000  0.4656720000000  0.4756470000000 1.0
C      1  0.4204890000000  0.5353940000000  0.4757510000000 1.0
C      1  0.4215320000000  0.5255260000000  0.4652220000000 1.0
C      1  0.5262410000000  0.4635310000000  0.4234620000000 1.0
C      1  0.4639610000000  0.4259120000000  0.5244040000000 1.0
C      1  0.5788780000000  0.4758700000000  0.4653660000000 1.0
C      1  0.4215190000000  0.4747650000000  0.5352990000000 1.0
C      1  0.5786320000000  0.5229380000000  0.5296950000000 1.0
C      1  0.4747310000000  0.5359940000000  0.4224270000000 1.0
C      1  0.5240530000000  0.5356870000000  0.5789250000000 1.0
C      1  0.4748670000000  0.4644430000000  0.5781360000000 1.0
C      1  0.5360910000000  0.5772960000000  0.5262750000000 1.0
C      1  0.4638730000000  0.5744190000000  0.4761990000000 1.0
C      1  0.5344410000000  0.4210990000000  0.4760250000000 1.0
C      1  0.5237280000000  0.4333760000000  0.4560880000000 1.0
C      1  0.4555110000000  0.5255460000000  0.4355390000000 1.0
C      1  0.4319370000000  0.4556370000000  0.5234270000000 1.0
C      1  0.4776790000000  0.5668320000000  0.4549310000000 1.0
C      1  0.4778050000000  0.4335080000000  0.5456480000000 1.0
C      1  0.5240270000000  0.5656490000000  0.5454100000000 1.0
C      1  0.5451190000000  0.4748290000000  0.4356740000000 1.0
C      1  0.5435510000000  0.5248080000000  0.5680530000000 1.0
C      1  0.4554940000000  0.4747440000000  0.5650500000000 1.0
C      1  0.5712450000000  0.5447070000000  0.5216270000000 1.0
C      1  0.5679200000000  0.4562980000000  0.4760570000000 1.0
C      1  0.4319120000000  0.5446830000000  0.4771320000000 1.0
C      1  0.4337160000000  0.5255140000000  0.4560520000000 1.0
C      1  0.5250520000000  0.4549730000000  0.4357550000000 1.0
C      1  0.4485210000000  0.4296280000000  0.5238600000000 1.0
C      1  0.5669770000000  0.4761490000000  0.4558520000000 1.0
C      1  0.4337230000000  0.4747550000000  0.5444630000000 1.0
C      1  0.5634570000000  0.5260490000000  0.5475760000000 1.0
C      1  0.4762920000000  0.5447060000000  0.4343130000000 1.0
C      1  0.5235450000000  0.5448200000000  0.5670090000000 1.0
C      1  0.4764070000000  0.4557020000000  0.5662400000000 1.0
C      1  0.5453380000000  0.5652350000000  0.5257720000000 1.0
C      1  0.4484710000000  0.5706960000000  0.4767180000000 1.0
C      1  0.5439050000000  0.4326270000000  0.4762850000000 1.0
C      1  0.4879920000000  0.4290580000000  0.4499200000000 1.0
C      1  0.4494270000000  0.4892800000000  0.4293880000000 1.0
C      1  0.4281090000000  0.4503220000000  0.4873320000000 1.0
C      1  0.5126180000000  0.5709220000000  0.4492090000000 1.0
C      1  0.5130050000000  0.4297590000000  0.5515000000000 1.0
C      1  0.4880090000000  0.5710010000000  0.5507030000000 1.0
C      1  0.5508200000000  0.5112430000000  0.4292570000000 1.0
C      1  0.5507420000000  0.4888590000000  0.5717720000000 1.0
C      1  0.4491260000000  0.5109130000000  0.5711540000000 1.0
C      1  0.5714980000000  0.5515790000000  0.4876700000000 1.0
C      1  0.5717570000000  0.4493820000000  0.5118390000000 1.0
C      1  0.4280800000000  0.5499770000000  0.5132440000000 1.0
C      1  0.4288450000000  0.4892970000000  0.4494410000000 1.0
C      1  0.4883790000000  0.4496340000000  0.4294460000000 1.0
C      1  0.4484600000000  0.4294810000000  0.4886330000000 1.0
C      1  0.5714610000000  0.5118330000000  0.4492800000000 1.0
C      1  0.4287630000000  0.5109110000000  0.5510830000000 1.0
C      1  0.5717630000000  0.4900460000000  0.5510730000000 1.0
C      1  0.5123290000000  0.5501910000000  0.4288820000000 1.0
C      1  0.4877550000000  0.5505390000000  0.5713090000000 1.0
C      1  0.5124630000000  0.4502440000000  0.5715530000000 1.0
C      1  0.5505810000000  0.5717050000000  0.4887660000000 1.0
C      1  0.4485790000000  0.5708380000000  0.5119870000000 1.0
C      1  0.5510050000000  0.4291410000000  0.5116420000000 1.0
C      1  0.5482220000000  0.5374810000000  0.4733360000000 1.0
C      1  0.4728970000000  0.5478180000000  0.5371300000000 1.0
C      1  0.5379370000000  0.4738760000000  0.5479220000000 1.0
C      1  0.4520500000000  0.4630440000000  0.4734190000000 1.0
C      1  0.4520410000000  0.5373010000000  0.5271170000000 1.0
C      1  0.5484080000000  0.4635220000000  0.5271230000000 1.0
C      1  0.5276860000000  0.4528830000000  0.5375240000000 1.0
C      1  0.5275040000000  0.5478920000000  0.4629960000000 1.0
C      1  0.4728950000000  0.4524880000000  0.4634840000000 1.0
C      1  0.4627000000000  0.5268570000000  0.5478000000000 1.0
C      1  0.4627870000000  0.4734490000000  0.4527590000000 1.0
C      1  0.5376690000000  0.5269000000000  0.4525810000000 1.0
C      1  0.5378380000000  0.5480010000000  0.4733910000000 1.0
C      1  0.5484550000000  0.4739830000000  0.5373990000000 1.0
C      1  0.4729960000000  0.5373090000000  0.5476600000000 1.0
C      1  0.4624420000000  0.4524630000000  0.4737870000000 1.0
C      1  0.5379790000000  0.4528930000000  0.5270990000000 1.0
C      1  0.4624530000000  0.5478500000000  0.5268050000000 1.0
C      1  0.4520750000000  0.5267780000000  0.5373750000000 1.0
C      1  0.5481850000000  0.5270270000000  0.4630820000000 1.0
C      1  0.4521540000000  0.4735470000000  0.4631400000000 1.0
C      1  0.5275890000000  0.4634200000000  0.5479690000000 1.0
C      1  0.4730630000000  0.4629870000000  0.4529170000000 1.0
C      1  0.5273710000000  0.5373370000000  0.4525870000000 1.0
C      1  0.4763370000000  0.4877340000000  0.4661630000000 1.0
C      1  0.4652080000000  0.4764420000000  0.4881290000000 1.0
C      1  0.4873110000000  0.4655750000000  0.4770980000000 1.0
C      1  0.5240880000000  0.5126020000000  0.4660500000000 1.0
C      1  0.5243050000000  0.4881900000000  0.5346350000000 1.0
C      1  0.4762970000000  0.5125910000000  0.5343770000000 1.0
C      1  0.5348970000000  0.5240590000000  0.4880190000000 1.0
C      1  0.5349480000000  0.4769200000000  0.5125720000000 1.0
C      1  0.4652050000000  0.5239140000000  0.5124250000000 1.0
C      1  0.5129300000000  0.5349440000000  0.4766540000000 1.0
C      1  0.5130290000000  0.4657850000000  0.5239400000000 1.0
C      1  0.4872990000000  0.5347900000000  0.5235120000000 1.0
C      1  0.4875160000000  0.4764100000000  0.4662580000000 1.0
C      1  0.4759590000000  0.4655990000000  0.4883730000000 1.0
C      1  0.4654080000000  0.4877380000000  0.4768500000000 1.0
C      1  0.5128990000000  0.5239600000000  0.4659250000000 1.0
C      1  0.4874630000000  0.5239210000000  0.5343170000000 1.0
C      1  0.5131050000000  0.4767630000000  0.5346990000000 1.0
C      1  0.5241050000000  0.5348720000000  0.4879930000000 1.0
C      1  0.4759660000000  0.5347690000000  0.5122340000000 1.0
C      1  0.5241710000000  0.4659590000000  0.5125720000000 1.0
C      1  0.5348870000000  0.5126760000000  0.4768710000000 1.0
C      1  0.4653780000000  0.5125950000000  0.5236830000000 1.0
C      1  0.5350680000000  0.4882820000000  0.5238260000000 1.0
C      1  0.4907550000000  0.4287690000000  0.4725740000000 1.0
C      1  0.4722780000000  0.4918080000000  0.4289790000000 1.0
C      1  0.4283160000000  0.4723970000000  0.4910700000000 1.0
C      1  0.5085800000000  0.5721150000000  0.4719010000000 1.0
C      1  0.5087620000000  0.4284240000000  0.5289550000000 1.0
C      1  0.4913670000000  0.5719270000000  0.5280970000000 1.0
C      1  0.5281780000000  0.5081040000000  0.4286950000000 1.0
C      1  0.5283580000000  0.4917200000000  0.5714900000000 1.0
C      1  0.4719010000000  0.5085070000000  0.5714230000000 1.0
C      1  0.5709480000000  0.5287000000000  0.4898420000000 1.0
C      1  0.5716780000000  0.4718500000000  0.5091870000000 1.0
C      1  0.4283090000000  0.5279310000000  0.5094590000000 1.0
C      1  0.4286500000000  0.4917570000000  0.4720420000000 1.0
C      1  0.4916860000000  0.4722320000000  0.4289130000000 1.0
C      1  0.4715370000000  0.4288980000000  0.4916010000000 1.0
C      1  0.5716980000000  0.5091410000000  0.4717900000000 1.0
C      1  0.4285940000000  0.5085410000000  0.5284420000000 1.0
C      1  0.5716890000000  0.4910650000000  0.5279070000000 1.0
C      1  0.5088680000000  0.5277250000000  0.4286370000000 1.0
C      1  0.4907360000000  0.5280600000000  0.5711580000000 1.0
C      1  0.5088580000000  0.4726500000000  0.5719240000000 1.0
C      1  0.5279230000000  0.5721790000000  0.4916590000000 1.0
C      1  0.4717190000000  0.5714870000000  0.5090830000000 1.0
C      1  0.5281420000000  0.4288880000000  0.5095670000000 1.0
C      1  0.5637220000000  0.5232020000000  0.5327840000000 1.0
C      1  0.5323760000000  0.5585370000000  0.5224540000000 1.0
C      1  0.5212940000000  0.5319330000000  0.5595430000000 1.0
C      1  0.4404590000000  0.4780800000000  0.5315830000000 1.0
C      1  0.4404880000000  0.5222410000000  0.4689280000000 1.0
C      1  0.5595480000000  0.4785850000000  0.4686110000000 1.0
C      1  0.4687690000000  0.4403560000000  0.5247680000000 1.0
C      1  0.4687090000000  0.5599780000000  0.4758720000000 1.0
C      1  0.5319390000000  0.4411560000000  0.4785010000000 1.0
C      1  0.4791540000000  0.4686480000000  0.5590390000000 1.0
C      1  0.4790970000000  0.5317660000000  0.4415040000000 1.0
C      1  0.5218870000000  0.4680150000000  0.4422790000000 1.0
C      1  0.5217970000000  0.5585550000000  0.5322760000000 1.0
C      1  0.5605480000000  0.5335310000000  0.5222490000000 1.0
C      1  0.5315820000000  0.5221810000000  0.5595340000000 1.0
C      1  0.4811100000000  0.4403920000000  0.5326540000000 1.0
C      1  0.5214350000000  0.4408590000000  0.4688480000000 1.0
C      1  0.4810240000000  0.5599890000000  0.4679620000000 1.0
C      1  0.4403060000000  0.4683110000000  0.5212680000000 1.0
C      1  0.5593000000000  0.4681960000000  0.4783120000000 1.0
C      1  0.4403190000000  0.5320160000000  0.4792470000000 1.0
C      1  0.4686250000000  0.4783240000000  0.5587860000000 1.0
C      1  0.5320750000000  0.4781120000000  0.4422180000000 1.0
C      1  0.4686490000000  0.5220200000000  0.4417970000000 1.0
C      1  0.4597420000000  0.4440950000000  0.5365370000000 1.0
C      1  0.4596930000000  0.5561610000000  0.4641100000000 1.0
C      1  0.5594370000000  0.4406460000000  0.4600140000000 1.0
C      1  0.5578690000000  0.5495590000000  0.5432710000000 1.0
END
