TITL C-1379268-1316-3 1.00964887396527e-07 1000000 -2826.4682397736 0 0 400 (C1) n - 1
REM
REM in /nfs/bkarasulu/CARBON/AIRSS/Generating-Clusters/GAP-ML-2020/Higher-Symm/Selected-Sizes/TryA-Only_Ih-Symm/Larger-Clusters/Try2-MINAMP_6A
REM
REM
REM
REM
REM
REM ./C.cell (31579ac4e95a012ec27f3239692ae8a5)
REM
REM compiler GCC version 9.2.1 20190827 (Red Hat 9.2.1-1)
REM options -cpp -mtune=generic -march=x86-64 -g -O0 -fpre-include=/usr/include/finclude/math-vector-fortran.h
REM seed -1692901618 -1175782110 15701736 -674901237 -791345312 1566056576 354953757 751060326 -745113231 2013857825 1949230014 -65464765 1881038210 1757698630 -1525711040 516602050 -1949523926 1523220323 -78823617 1746140038 244406229 1985443182 1347730285 -1905007362 1081512381 2056693949 91628658 178002394 1036260660 -1757345794 163884992 868891674 32257280
REM
CELL 1.54180  100.00000  100.00000  100.00000   90.00000   90.00000   90.00000
LATT -1
SFAC C  
C      1  0.4754570000000  0.5473520000000  0.5228780000000 1.0
C      1  0.5472060000000  0.5169470000000  0.4808890000000 1.0
C      1  0.5215500000000  0.4739900000000  0.5492870000000 1.0
C      1  0.4759520000000  0.4557140000000  0.4766050000000 1.0
C      1  0.5242690000000  0.5474250000000  0.4783580000000 1.0
C      1  0.5191070000000  0.4503880000000  0.5193360000000 1.0
C      1  0.5482600000000  0.4787270000000  0.5267130000000 1.0
C      1  0.4524790000000  0.5168140000000  0.5208450000000 1.0
C      1  0.4541200000000  0.4844360000000  0.4656950000000 1.0
C      1  0.5205430000000  0.5265650000000  0.4506190000000 1.0
C      1  0.4812870000000  0.4709410000000  0.4475150000000 1.0
C      1  0.4791800000000  0.5269900000000  0.5506800000000 1.0
C      1  0.4692320000000  0.5171980000000  0.5498600000000 1.0
C      1  0.5475210000000  0.4684080000000  0.5173370000000 1.0
C      1  0.5156080000000  0.5472010000000  0.4673140000000 1.0
C      1  0.4719250000000  0.4807620000000  0.4472490000000 1.0
C      1  0.5317990000000  0.4833300000000  0.5474510000000 1.0
C      1  0.5305260000000  0.5168230000000  0.4518280000000 1.0
C      1  0.5446480000000  0.5295790000000  0.4844340000000 1.0
C      1  0.4551530000000  0.5293720000000  0.5170370000000 1.0
C      1  0.4563010000000  0.4755740000000  0.4763840000000 1.0
C      1  0.5160320000000  0.4527120000000  0.5321400000000 1.0
C      1  0.4846300000000  0.4534460000000  0.4658320000000 1.0
C      1  0.4841260000000  0.5474150000000  0.5338840000000 1.0
C      1  0.5347120000000  0.5082490000000  0.4238210000000 1.0
C      1  0.5095450000000  0.4230310000000  0.5371300000000 1.0
C      1  0.4252540000000  0.5341620000000  0.5099250000000 1.0
C      1  0.5362600000000  0.4918790000000  0.5768900000000 1.0
C      1  0.4652700000000  0.5088850000000  0.5777790000000 1.0
C      1  0.4675550000000  0.4914430000000  0.4218320000000 1.0
C      1  0.5082660000000  0.5766340000000  0.4640120000000 1.0
C      1  0.4904720000000  0.4231570000000  0.4637600000000 1.0
C      1  0.4913530000000  0.5769210000000  0.5368480000000 1.0
C      1  0.4315960000000  0.4718040000000  0.4893640000000 1.0
C      1  0.5749770000000  0.5348630000000  0.4911540000000 1.0
C      1  0.5755520000000  0.4648990000000  0.5095260000000 1.0
C      1  0.5311440000000  0.4253040000000  0.5116460000000 1.0
C      1  0.5102940000000  0.5316550000000  0.4244370000000 1.0
C      1  0.4262290000000  0.5110660000000  0.5332220000000 1.0
C      1  0.5296100000000  0.5733630000000  0.4895660000000 1.0
C      1  0.4701540000000  0.5730940000000  0.5112840000000 1.0
C      1  0.4720680000000  0.4311110000000  0.4897320000000 1.0
C      1  0.5117000000000  0.4688840000000  0.5756760000000 1.0
C      1  0.4907710000000  0.4656280000000  0.4218530000000 1.0
C      1  0.4896080000000  0.5320660000000  0.5767150000000 1.0
C      1  0.4243300000000  0.4903620000000  0.4635850000000 1.0
C      1  0.5742440000000  0.4892900000000  0.5313860000000 1.0
C      1  0.5733720000000  0.5108180000000  0.4688450000000 1.0
C      1  0.4694770000000  0.5392050000000  0.5536610000000 1.0
C      1  0.5373780000000  0.5492560000000  0.4699830000000 1.0
C      1  0.5517350000000  0.4696150000000  0.5389150000000 1.0
C      1  0.4704890000000  0.4594330000000  0.4451050000000 1.0
C      1  0.5302860000000  0.5387530000000  0.4476440000000 1.0
C      1  0.5315130000000  0.4608320000000  0.5514200000000 1.0
C      1  0.5401390000000  0.4484000000000  0.5291140000000 1.0
C      1  0.4623560000000  0.5493280000000  0.5312130000000 1.0
C      1  0.4629370000000  0.4519050000000  0.4689800000000 1.0
C      1  0.5504060000000  0.5279260000000  0.4601900000000 1.0
C      1  0.4503040000000  0.4715230000000  0.4561110000000 1.0
C      1  0.4493200000000  0.5281830000000  0.5413470000000 1.0
C      1  0.4713760000000  0.5502160000000  0.5436130000000 1.0
C      1  0.5422160000000  0.4717180000000  0.5501930000000 1.0
C      1  0.5480110000000  0.5383990000000  0.4714780000000 1.0
C      1  0.4717200000000  0.4496780000000  0.4564550000000 1.0
C      1  0.5296470000000  0.4497560000000  0.5407090000000 1.0
C      1  0.5283280000000  0.5498950000000  0.4575680000000 1.0
C      1  0.5412050000000  0.5277270000000  0.4486070000000 1.0
C      1  0.4585350000000  0.5281950000000  0.5529360000000 1.0
C      1  0.4600910000000  0.4704010000000  0.4449690000000 1.0
C      1  0.5514530000000  0.4579850000000  0.5287220000000 1.0
C      1  0.4524490000000  0.4626100000000  0.4688080000000 1.0
C      1  0.4517770000000  0.5384200000000  0.5298350000000 1.0
C      1  0.4683640000000  0.4763400000000  0.5757940000000 1.0
C      1  0.4751720000000  0.5747660000000  0.4677520000000 1.0
C      1  0.5727090000000  0.4678370000000  0.4770780000000 1.0
C      1  0.4667060000000  0.5243820000000  0.4245920000000 1.0
C      1  0.5332210000000  0.4756860000000  0.4256240000000 1.0
C      1  0.5331690000000  0.5247350000000  0.5759230000000 1.0
C      1  0.4762430000000  0.4257600000000  0.5329960000000 1.0
C      1  0.5243920000000  0.5752680000000  0.5330810000000 1.0
C      1  0.5238280000000  0.4247080000000  0.4683620000000 1.0
C      1  0.5743550000000  0.5328100000000  0.5243320000000 1.0
C      1  0.4299630000000  0.4689940000000  0.5221690000000 1.0
C      1  0.4252260000000  0.5330180000000  0.4771850000000 1.0
C      1  0.4665980000000  0.5733020000000  0.4788270000000 1.0
C      1  0.4787080000000  0.4668410000000  0.5757160000000 1.0
C      1  0.5721210000000  0.4783350000000  0.4677360000000 1.0
C      1  0.4683250000000  0.4286890000000  0.5216140000000 1.0
C      1  0.5322060000000  0.4266380000000  0.4794920000000 1.0
C      1  0.5330470000000  0.5738610000000  0.5220720000000 1.0
C      1  0.4768670000000  0.5340570000000  0.4252290000000 1.0
C      1  0.5227280000000  0.5341090000000  0.5758200000000 1.0
C      1  0.5236610000000  0.4654960000000  0.4246670000000 1.0
C      1  0.5739620000000  0.5223220000000  0.5336950000000 1.0
C      1  0.4243690000000  0.5237570000000  0.4666940000000 1.0
C      1  0.4286180000000  0.4782900000000  0.5328140000000 1.0
C      1  0.4949100000000  0.5420630000000  0.5410910000000 1.0
C      1  0.5392270000000  0.5379340000000  0.4947360000000 1.0
C      1  0.5385120000000  0.4945440000000  0.5417250000000 1.0
C      1  0.4959800000000  0.4565340000000  0.4579320000000 1.0
C      1  0.5048170000000  0.5417230000000  0.4601670000000 1.0
C      1  0.5058980000000  0.4577780000000  0.5407130000000 1.0
C      1  0.5396500000000  0.4613160000000  0.5083760000000 1.0
C      1  0.4606910000000  0.5374980000000  0.5065830000000 1.0
C      1  0.4577230000000  0.4678860000000  0.4878550000000 1.0
C      1  0.5374220000000  0.5073070000000  0.4593620000000 1.0
C      1  0.4664080000000  0.4930070000000  0.4470640000000 1.0
C      1  0.4622300000000  0.5075770000000  0.5426210000000 1.0
C      1  0.4914620000000  0.5325870000000  0.5513300000000 1.0
C      1  0.5487380000000  0.4910910000000  0.5322340000000 1.0
C      1  0.5302330000000  0.5481900000000  0.4905310000000 1.0
C      1  0.4934520000000  0.4653970000000  0.4471010000000 1.0
C      1  0.5098480000000  0.4674410000000  0.5504840000000 1.0
C      1  0.5083000000000  0.5322440000000  0.4499430000000 1.0
C      1  0.5486130000000  0.5138170000000  0.4668680000000 1.0
C      1  0.4511050000000  0.5139900000000  0.5349450000000 1.0
C      1  0.4576650000000  0.4957370000000  0.4579310000000 1.0
C      1  0.5328800000000  0.4499140000000  0.5152760000000 1.0
C      1  0.4682380000000  0.4572560000000  0.4880190000000 1.0
C      1  0.4696020000000  0.5478810000000  0.5106480000000 1.0
C      1  0.4385340000000  0.5051850000000  0.5405090000000 1.0
C      1  0.5036120000000  0.5395970000000  0.4364770000000 1.0
C      1  0.5383950000000  0.4376200000000  0.5057520000000 1.0
C      1  0.4289150000000  0.4984890000000  0.4520260000000 1.0
C      1  0.5610440000000  0.5048340000000  0.4616370000000 1.0
C      1  0.5621620000000  0.4961120000000  0.5389810000000 1.0
C      1  0.5051440000000  0.4605010000000  0.5642450000000 1.0
C      1  0.4961120000000  0.5401620000000  0.5648770000000 1.0
C      1  0.4969680000000  0.4564370000000  0.4330970000000 1.0
C      1  0.5369870000000  0.5612440000000  0.4962650000000 1.0
C      1  0.4654330000000  0.4441330000000  0.4959410000000 1.0
C      1  0.4628700000000  0.5608120000000  0.5046940000000 1.0
C      1  0.4331400000000  0.5434280000000  0.5018660000000 1.0
C      1  0.5017020000000  0.4294820000000  0.5481130000000 1.0
C      1  0.5437570000000  0.5007110000000  0.4326950000000 1.0
C      1  0.4446520000000  0.4651900000000  0.4956750000000 1.0
C      1  0.5668000000000  0.4557810000000  0.5021360000000 1.0
C      1  0.5669450000000  0.5440870000000  0.4991890000000 1.0
C      1  0.5005060000000  0.5699720000000  0.4531980000000 1.0
C      1  0.4991330000000  0.5704570000000  0.5477740000000 1.0
C      1  0.4984630000000  0.4273470000000  0.4517600000000 1.0
C      1  0.5462210000000  0.4999000000000  0.5694850000000 1.0
C      1  0.4585100000000  0.4976300000000  0.4337570000000 1.0
C      1  0.4557830000000  0.5012010000000  0.5695380000000 1.0
C      1  0.5440540000000  0.5505340000000  0.4318090000000 1.0
C      1  0.5529840000000  0.4358680000000  0.5429130000000 1.0
C      1  0.4379330000000  0.5431720000000  0.5534750000000 1.0
C      1  0.5451930000000  0.4497980000000  0.5686150000000 1.0
C      1  0.4557710000000  0.5511220000000  0.5693970000000 1.0
C      1  0.4554010000000  0.4498450000000  0.4287390000000 1.0
C      1  0.5515530000000  0.5635120000000  0.4583010000000 1.0
C      1  0.4469440000000  0.4360650000000  0.4609020000000 1.0
C      1  0.4481340000000  0.5637330000000  0.5426210000000 1.0
C      1  0.4382050000000  0.4534200000000  0.4481670000000 1.0
C      1  0.5618240000000  0.5427420000000  0.4477840000000 1.0
C      1  0.5634190000000  0.4569410000000  0.5529540000000 1.0
C      1  0.5439200000000  0.4331520000000  0.5530110000000 1.0
C      1  0.5535120000000  0.5412320000000  0.4360840000000 1.0
C      1  0.4387280000000  0.5528480000000  0.5433110000000 1.0
C      1  0.5430250000000  0.5670870000000  0.4478700000000 1.0
C      1  0.4566400000000  0.5674440000000  0.5530380000000 1.0
C      1  0.4544020000000  0.4356530000000  0.4491680000000 1.0
C      1  0.5549490000000  0.4588320000000  0.5644380000000 1.0
C      1  0.4489080000000  0.4602820000000  0.4237790000000 1.0
C      1  0.4463030000000  0.5418030000000  0.5651920000000 1.0
C      1  0.4372010000000  0.4465800000000  0.4603130000000 1.0
C      1  0.5625390000000  0.4466020000000  0.5433420000000 1.0
C      1  0.5609910000000  0.5526320000000  0.4577310000000 1.0
C      1  0.5257480000000  0.4989090000000  0.4185520000000 1.0
C      1  0.5003490000000  0.4196030000000  0.5273250000000 1.0
C      1  0.4203360000000  0.5247050000000  0.5006350000000 1.0
C      1  0.5264830000000  0.5008370000000  0.5815450000000 1.0
C      1  0.4750200000000  0.4999440000000  0.5823580000000 1.0
C      1  0.4750970000000  0.5013130000000  0.4164920000000 1.0
C      1  0.4992020000000  0.5808450000000  0.4737260000000 1.0
C      1  0.4995770000000  0.4200190000000  0.4739010000000 1.0
C      1  0.5003620000000  0.5810840000000  0.5270560000000 1.0
C      1  0.4240370000000  0.4777940000000  0.4990880000000 1.0
C      1  0.5805420000000  0.5258910000000  0.5004630000000 1.0
C      1  0.5802740000000  0.4743930000000  0.5004280000000 1.0
C      1  0.5231970000000  0.4195030000000  0.5021940000000 1.0
C      1  0.5002550000000  0.5251920000000  0.4180070000000 1.0
C      1  0.4204580000000  0.5014630000000  0.5256120000000 1.0
C      1  0.5227510000000  0.5801680000000  0.4991740000000 1.0
C      1  0.4769470000000  0.5798860000000  0.5016230000000 1.0
C      1  0.4786470000000  0.4235640000000  0.4991100000000 1.0
C      1  0.5019960000000  0.4762100000000  0.5818320000000 1.0
C      1  0.5005530000000  0.4737120000000  0.4169340000000 1.0
C      1  0.4995690000000  0.5247370000000  0.5824190000000 1.0
C      1  0.4210360000000  0.4995370000000  0.4736600000000 1.0
C      1  0.5804600000000  0.4991110000000  0.5243120000000 1.0
C      1  0.5795850000000  0.5012590000000  0.4762420000000 1.0
C      1  0.5585040000000  0.4947940000000  0.5656590000000 1.0
C      1  0.4930550000000  0.5665290000000  0.5596800000000 1.0
C      1  0.5635150000000  0.5564210000000  0.4941860000000 1.0
C      1  0.5564880000000  0.5051380000000  0.4354300000000 1.0
C      1  0.4440380000000  0.4934430000000  0.4315020000000 1.0
C      1  0.4431120000000  0.5058650000000  0.5667310000000 1.0
C      1  0.4913370000000  0.4312260000000  0.4403940000000 1.0
C      1  0.5066220000000  0.5659850000000  0.4413390000000 1.0
C      1  0.5077840000000  0.4339460000000  0.5597990000000 1.0
C      1  0.5645100000000  0.4431310000000  0.5068490000000 1.0
C      1  0.4363710000000  0.5558840000000  0.5067100000000 1.0
C      1  0.4409760000000  0.4508980000000  0.4958670000000 1.0
C      1  0.5515330000000  0.5645150000000  0.4942570000000 1.0
C      1  0.4927720000000  0.5544410000000  0.5676370000000 1.0
C      1  0.5659740000000  0.4937780000000  0.5532330000000 1.0
C      1  0.5528670000000  0.4345190000000  0.5071630000000 1.0
C      1  0.4510470000000  0.4407030000000  0.4961140000000 1.0
C      1  0.4483030000000  0.5640780000000  0.5065930000000 1.0
C      1  0.4919210000000  0.4426840000000  0.4314700000000 1.0
C      1  0.5082240000000  0.4462340000000  0.5674200000000 1.0
C      1  0.5069890000000  0.5538270000000  0.4335170000000 1.0
C      1  0.5645610000000  0.5064940000000  0.4473910000000 1.0
C      1  0.4350790000000  0.5069940000000  0.5547130000000 1.0
C      1  0.4326770000000  0.4917120000000  0.4404880000000 1.0
C      1  0.5229840000000  0.4560430000000  0.4354740000000 1.0
C      1  0.4622160000000  0.4413450000000  0.5212010000000 1.0
C      1  0.4343940000000  0.5236290000000  0.4567240000000 1.0
C      1  0.5222840000000  0.5427020000000  0.5642700000000 1.0
C      1  0.4790490000000  0.4580130000000  0.5643990000000 1.0
C      1  0.4772740000000  0.5421770000000  0.4370030000000 1.0
C      1  0.4589100000000  0.5611450000000  0.4791240000000 1.0
C      1  0.5394330000000  0.4388760000000  0.4799060000000 1.0
C      1  0.5408790000000  0.5618000000000  0.5218860000000 1.0
C      1  0.4396610000000  0.4793350000000  0.5419560000000 1.0
C      1  0.5622620000000  0.5219550000000  0.5422110000000 1.0
C      1  0.5600940000000  0.4790860000000  0.4599850000000 1.0
C      1  0.5235420000000  0.4337420000000  0.4576760000000 1.0
C      1  0.4572960000000  0.5236130000000  0.4354650000000 1.0
C      1  0.4421780000000  0.4621020000000  0.5211750000000 1.0
C      1  0.5236520000000  0.5649690000000  0.5427230000000 1.0
C      1  0.4759430000000  0.5644160000000  0.4581520000000 1.0
C      1  0.4771590000000  0.4353600000000  0.5433090000000 1.0
C      1  0.4600310000000  0.4773620000000  0.5643310000000 1.0
C      1  0.5402100000000  0.4769510000000  0.4378300000000 1.0
C      1  0.5417470000000  0.5239440000000  0.5646660000000 1.0
C      1  0.4370540000000  0.5408150000000  0.4777200000000 1.0
C      1  0.5629010000000  0.5412100000000  0.5234230000000 1.0
C      1  0.5612670000000  0.4595030000000  0.4784550000000 1.0
C      1  0.4890200000000  0.5613730000000  0.4552100000000 1.0
C      1  0.5572750000000  0.4589400000000  0.4915550000000 1.0
C      1  0.4590220000000  0.4904630000000  0.5602730000000 1.0
C      1  0.4902690000000  0.4380120000000  0.5465070000000 1.0
C      1  0.5106290000000  0.5618910000000  0.5458620000000 1.0
C      1  0.5105380000000  0.4353540000000  0.4530190000000 1.0
C      1  0.5582730000000  0.5410620000000  0.5105010000000 1.0
C      1  0.4494740000000  0.4654680000000  0.5095500000000 1.0
C      1  0.4419260000000  0.5403880000000  0.4905770000000 1.0
C      1  0.4560230000000  0.5108610000000  0.4400070000000 1.0
C      1  0.5401220000000  0.4900560000000  0.4420640000000 1.0
C      1  0.5430210000000  0.5109050000000  0.5606680000000 1.0
C      1  0.4914400000000  0.4579000000000  0.5587850000000 1.0
C      1  0.5542250000000  0.4914560000000  0.4610460000000 1.0
C      1  0.4604930000000  0.5547910000000  0.4911320000000 1.0
C      1  0.4897980000000  0.5418290000000  0.4424440000000 1.0
C      1  0.5097850000000  0.5424660000000  0.5588980000000 1.0
C      1  0.5101680000000  0.4533370000000  0.4391080000000 1.0
C      1  0.5562190000000  0.5097620000000  0.5414160000000 1.0
C      1  0.4370300000000  0.5105370000000  0.4531750000000 1.0
C      1  0.4452800000000  0.4918790000000  0.5412660000000 1.0
C      1  0.4658050000000  0.4488930000000  0.5098230000000 1.0
C      1  0.5385330000000  0.4446170000000  0.4924550000000 1.0
C      1  0.5395480000000  0.5554280000000  0.5098620000000 1.0
C      1  0.5478000000000  0.5276520000000  0.4337240000000 1.0
C      1  0.5296170000000  0.4337840000000  0.5482370000000 1.0
C      1  0.4355400000000  0.5471690000000  0.5296800000000 1.0
C      1  0.5489290000000  0.4723960000000  0.5659420000000 1.0
C      1  0.4520080000000  0.5282690000000  0.5677850000000 1.0
C      1  0.4546920000000  0.4722300000000  0.4288280000000 1.0
C      1  0.5285210000000  0.5664820000000  0.4520200000000 1.0
C      1  0.4695620000000  0.4339420000000  0.4517160000000 1.0
C      1  0.4711470000000  0.5668000000000  0.5489330000000 1.0
C      1  0.4369280000000  0.4552930000000  0.4723000000000 1.0
C      1  0.5642640000000  0.5472340000000  0.4713870000000 1.0
C      1  0.5662290000000  0.4515920000000  0.5294350000000 1.0
C      1  0.5463180000000  0.4331690000000  0.5299270000000 1.0
C      1  0.5299000000000  0.5448800000000  0.4320900000000 1.0
C      1  0.4341240000000  0.5298610000000  0.5474600000000 1.0
C      1  0.5440380000000  0.5647200000000  0.4712350000000 1.0
C      1  0.4556630000000  0.5647590000000  0.5296650000000 1.0
C      1  0.4556220000000  0.4363820000000  0.4727740000000 1.0
C      1  0.5310500000000  0.4554070000000  0.5674990000000 1.0
C      1  0.4702800000000  0.4536730000000  0.4300310000000 1.0
C      1  0.4699340000000  0.5454360000000  0.5691810000000 1.0
C      1  0.4354220000000  0.4692560000000  0.4508770000000 1.0
C      1  0.5667190000000  0.4702570000000  0.5459750000000 1.0
C      1  0.5655450000000  0.5294670000000  0.4540770000000 1.0
C      1  0.4885270000000  0.4768070000000  0.5811970000000 1.0
C      1  0.4769020000000  0.5790910000000  0.4881320000000 1.0
C      1  0.5784950000000  0.4878890000000  0.4772920000000 1.0
C      1  0.4868040000000  0.5248430000000  0.4188350000000 1.0
C      1  0.5138560000000  0.4749340000000  0.4183230000000 1.0
C      1  0.5130060000000  0.5240270000000  0.5813630000000 1.0
C      1  0.4786730000000  0.4231110000000  0.5124350000000 1.0
C      1  0.5227280000000  0.5794790000000  0.5126720000000 1.0
C      1  0.5220760000000  0.4208810000000  0.4888630000000 1.0
C      1  0.5795820000000  0.5126080000000  0.5236870000000 1.0
C      1  0.4224260000000  0.4883110000000  0.5237580000000 1.0
C      1  0.4204730000000  0.5126380000000  0.4761460000000 1.0
C      1  0.4862210000000  0.5801000000000  0.4763820000000 1.0
C      1  0.4773840000000  0.4869320000000  0.5814570000000 1.0
C      1  0.5789750000000  0.4767390000000  0.4874150000000 1.0
C      1  0.4874390000000  0.4206810000000  0.5243980000000 1.0
C      1  0.5125270000000  0.4200560000000  0.4770510000000 1.0
C      1  0.5133410000000  0.5804530000000  0.5243820000000 1.0
C      1  0.4760130000000  0.5146330000000  0.4181360000000 1.0
C      1  0.5241770000000  0.5139040000000  0.5812430000000 1.0
C      1  0.5241850000000  0.4857930000000  0.4191590000000 1.0
C      1  0.5798330000000  0.5237900000000  0.5135760000000 1.0
C      1  0.4206360000000  0.5229180000000  0.4874550000000 1.0
C      1  0.4239300000000  0.4785020000000  0.5124340000000 1.0
C      1  0.5679420000000  0.5198910000000  0.4439380000000 1.0
C      1  0.5221690000000  0.4444030000000  0.5695570000000 1.0
C      1  0.4454600000000  0.5672750000000  0.5201230000000 1.0
C      1  0.5689380000000  0.4800920000000  0.5559680000000 1.0
C      1  0.4317450000000  0.5204970000000  0.5578160000000 1.0
C      1  0.4329590000000  0.4775940000000  0.4390120000000 1.0
C      1  0.5208790000000  0.5558800000000  0.4308600000000 1.0
C      1  0.4779120000000  0.4417390000000  0.4291870000000 1.0
C      1  0.4788860000000  0.5564870000000  0.5702630000000 1.0
C      1  0.4463160000000  0.4361260000000  0.4835120000000 1.0
C      1  0.5542860000000  0.5674690000000  0.4806500000000 1.0
C      1  0.5564870000000  0.4309950000000  0.5204570000000 1.0
C      1  0.5671300000000  0.4403030000000  0.5206420000000 1.0
C      1  0.5207930000000  0.5670420000000  0.4398320000000 1.0
C      1  0.4405980000000  0.5197350000000  0.5688240000000 1.0
C      1  0.5650780000000  0.5583790000000  0.4802320000000 1.0
C      1  0.4347190000000  0.5581210000000  0.5206140000000 1.0
C      1  0.4364600000000  0.4461470000000  0.4832360000000 1.0
C      1  0.5219380000000  0.4333660000000  0.5605130000000 1.0
C      1  0.4771450000000  0.4317270000000  0.4395260000000 1.0
C      1  0.4788830000000  0.5675290000000  0.5611330000000 1.0
C      1  0.4425680000000  0.4796490000000  0.4284050000000 1.0
C      1  0.5603750000000  0.4808510000000  0.5672020000000 1.0
C      1  0.5591220000000  0.5189490000000  0.4329370000000 1.0
C      1  0.4557410000000  0.5534340000000  0.4666990000000 1.0
C      1  0.5519900000000  0.4668500000000  0.4572730000000 1.0
C      1  0.4672600000000  0.4557000000000  0.5554080000000 1.0
C      1  0.4587320000000  0.4480820000000  0.5336710000000 1.0
C      1  0.5439070000000  0.5540160000000  0.5342850000000 1.0
C      1  0.5423540000000  0.4465170000000  0.4675320000000 1.0
C      1  0.5538510000000  0.5341010000000  0.5450230000000 1.0
C      1  0.4483270000000  0.4674650000000  0.5444650000000 1.0
C      1  0.4445380000000  0.5344480000000  0.4551560000000 1.0
C      1  0.4652660000000  0.5446560000000  0.4457120000000 1.0
C      1  0.5338250000000  0.4544730000000  0.4457610000000 1.0
C      1  0.5340500000000  0.5451770000000  0.5551790000000 1.0
C      1  0.4578800000000  0.4663390000000  0.5550890000000 1.0
C      1  0.5521140000000  0.4570270000000  0.4673540000000 1.0
C      1  0.4652040000000  0.5545180000000  0.4562390000000 1.0
C      1  0.4549010000000  0.5348620000000  0.4450530000000 1.0
C      1  0.5438360000000  0.5349080000000  0.5552630000000 1.0
C      1  0.5424940000000  0.4656870000000  0.4467470000000 1.0
C      1  0.5539250000000  0.5437960000000  0.5347420000000 1.0
C      1  0.4455080000000  0.5434720000000  0.4660960000000 1.0
C      1  0.4492360000000  0.4585130000000  0.5335280000000 1.0
C      1  0.4670020000000  0.4458400000000  0.5449980000000 1.0
C      1  0.5337500000000  0.4445160000000  0.4563270000000 1.0
C      1  0.5343310000000  0.5550530000000  0.5446930000000 1.0
C      1  0.4758140000000  0.4263760000000  0.4640390000000 1.0
C      1  0.4297500000000  0.4680790000000  0.4750890000000 1.0
C      1  0.4671490000000  0.4769340000000  0.4218520000000 1.0
C      1  0.4767080000000  0.5746670000000  0.5368520000000 1.0
C      1  0.5243400000000  0.4248790000000  0.5370190000000 1.0
C      1  0.5229400000000  0.5744820000000  0.4639990000000 1.0
C      1  0.4266430000000  0.5356490000000  0.5249890000000 1.0
C      1  0.5748480000000  0.4638450000000  0.5243330000000 1.0
C      1  0.5732440000000  0.5358290000000  0.4762270000000 1.0
C      1  0.4643760000000  0.5235770000000  0.5766880000000 1.0
C      1  0.5369070000000  0.4772050000000  0.5750010000000 1.0
C      1  0.5354830000000  0.5229480000000  0.4247990000000 1.0
C      1  0.4762550000000  0.4659390000000  0.4222420000000 1.0
C      1  0.4273600000000  0.4755970000000  0.4635070000000 1.0
C      1  0.4684060000000  0.4292110000000  0.4755880000000 1.0
C      1  0.4747440000000  0.5331740000000  0.5768860000000 1.0
C      1  0.5251400000000  0.5326170000000  0.4244180000000 1.0
C      1  0.5264630000000  0.4677590000000  0.5751050000000 1.0
C      1  0.4261820000000  0.5256480000000  0.5348560000000 1.0
C      1  0.5734820000000  0.5254600000000  0.4667440000000 1.0
C      1  0.5747310000000  0.4744920000000  0.5335440000000 1.0
C      1  0.4680660000000  0.5730610000000  0.5258740000000 1.0
C      1  0.5316320000000  0.5730940000000  0.4749640000000 1.0
C      1  0.5333940000000  0.4250540000000  0.5262290000000 1.0
C      1  0.5435530000000  0.4576020000000  0.4955490000000 1.0
C      1  0.4942110000000  0.4518540000000  0.5460800000000 1.0
C      1  0.4555830000000  0.5416530000000  0.4941080000000 1.0
C      1  0.5412200000000  0.4944290000000  0.4556090000000 1.0
C      1  0.4929230000000  0.5476240000000  0.4551380000000 1.0
C      1  0.4582540000000  0.4948400000000  0.5467080000000 1.0
C      1  0.4507740000000  0.5072340000000  0.4530490000000 1.0
C      1  0.5068410000000  0.4490080000000  0.4526420000000 1.0
C      1  0.5067150000000  0.5481420000000  0.5461180000000 1.0
C      1  0.4628590000000  0.4622830000000  0.5095760000000 1.0
C      1  0.5445230000000  0.5423000000000  0.5070160000000 1.0
C      1  0.5433400000000  0.5067600000000  0.5470920000000 1.0
C      1  0.5459750000000  0.5634370000000  0.4351750000000 1.0
C      1  0.4537970000000  0.5639470000000  0.5657970000000 1.0
C      1  0.5468980000000  0.4367310000000  0.5657250000000 1.0
C      1  0.4485650000000  0.4456100000000  0.4405170000000 1.0
END
