TITL C-1379267-1329-372 -3.46493586071444e-07 1000000 -2107.87445991763 0 0 300 (C3) n - 1
REM
REM in /nfs/bkarasulu/CARBON/AIRSS/Generating-Clusters/GAP-ML-2020/Higher-Symm/Selected-Sizes/TryA-Only_Ih-Symm/Larger-Clusters/Try2-MINAMP_6A
REM
REM
REM
REM
REM
REM ./C.cell (31579ac4e95a012ec27f3239692ae8a5)
REM
REM compiler GCC version 9.2.1 20190827 (Red Hat 9.2.1-1)
REM options -cpp -mtune=generic -march=x86-64 -g -O0 -fpre-include=/usr/include/finclude/math-vector-fortran.h
REM seed -1456434578 1404672719 735440148 1488812043 1609428506 1140137786 1499202324 -754024261 -1976012691 -1973417397 -313683386 -167737304 -145744789 -1526699101 1251424247 -1083768249 513048361 -1394725852 1398160689 1574393689 793246335 -1762318465 789275857 -614021347 1238282097 -1982199903 593153393 1273081431 -16502340 1491064565 -508187709 -1710884424 -1384079893
REM
CELL 1.54180  100.00000  100.00000  100.00000   90.00000   90.00000   90.00000
LATT -1
SFAC C  
C      1  0.5027530000000  0.5235920000000  0.4222070000000 1.0
C      1  0.5227710000000  0.4266800000000  0.5048760000000 1.0
C      1  0.4273380000000  0.5053360000000  0.5237430000000 1.0
C      1  0.4951230000000  0.5227690000000  0.5733220000000 1.0
C      1  0.4971070000000  0.4758240000000  0.4240310000000 1.0
C      1  0.5053370000000  0.4762560000000  0.5726640000000 1.0
C      1  0.4762580000000  0.4273360000000  0.4946630000000 1.0
C      1  0.4758230000000  0.5759690000000  0.5028930000000 1.0
C      1  0.5235900000000  0.5777940000000  0.4972480000000 1.0
C      1  0.5777910000000  0.5027550000000  0.4764080000000 1.0
C      1  0.5759670000000  0.4971080000000  0.5241760000000 1.0
C      1  0.4266810000000  0.4951230000000  0.4772300000000 1.0
C      1  0.4226700000000  0.5241000000000  0.5016930000000 1.0
C      1  0.5005780000000  0.4215180000000  0.5233620000000 1.0
C      1  0.5239150000000  0.5026160000000  0.4235700000000 1.0
C      1  0.5764260000000  0.5239160000000  0.4973840000000 1.0
C      1  0.4215190000000  0.4766370000000  0.4994240000000 1.0
C      1  0.5777950000000  0.4761630000000  0.5031200000000 1.0
C      1  0.4983080000000  0.4226680000000  0.4759000000000 1.0
C      1  0.5026160000000  0.5764280000000  0.4760850000000 1.0
C      1  0.4968780000000  0.5777950000000  0.5238390000000 1.0
C      1  0.4766380000000  0.5005760000000  0.5784830000000 1.0
C      1  0.5241000000000  0.4983070000000  0.5773320000000 1.0
C      1  0.4761620000000  0.4968790000000  0.4222030000000 1.0
C      1  0.5300960000000  0.4797510000000  0.4488730000000 1.0
C      1  0.4787340000000  0.4474650000000  0.5292470000000 1.0
C      1  0.4480480000000  0.5292450000000  0.4786680000000 1.0
C      1  0.4707540000000  0.4787330000000  0.5525350000000 1.0
C      1  0.4704190000000  0.5197300000000  0.4468320000000 1.0
C      1  0.5292440000000  0.5213320000000  0.5519540000000 1.0
C      1  0.5213320000000  0.4480480000000  0.4707540000000 1.0
C      1  0.5197280000000  0.5531670000000  0.5295830000000 1.0
C      1  0.4797520000000  0.5511260000000  0.4699030000000 1.0
C      1  0.5511240000000  0.5300970000000  0.5202490000000 1.0
C      1  0.5531660000000  0.4704190000000  0.4802700000000 1.0
C      1  0.4474680000000  0.4707530000000  0.5212670000000 1.0
C      1  0.4480190000000  0.4804220000000  0.5304640000000 1.0
C      1  0.5304260000000  0.4478360000000  0.4804980000000 1.0
C      1  0.4798360000000  0.5292920000000  0.4470250000000 1.0
C      1  0.5529730000000  0.4798360000000  0.4707080000000 1.0
C      1  0.4478370000000  0.5195010000000  0.4695730000000 1.0
C      1  0.5510120000000  0.5203500000000  0.5294460000000 1.0
C      1  0.4695380000000  0.4480170000000  0.5195780000000 1.0
C      1  0.5292890000000  0.5529740000000  0.5201650000000 1.0
C      1  0.4705550000000  0.5510130000000  0.4796500000000 1.0
C      1  0.5195000000000  0.5304260000000  0.5521660000000 1.0
C      1  0.4804230000000  0.4695360000000  0.5519830000000 1.0
C      1  0.5203490000000  0.4705550000000  0.4489850000000 1.0
C      1  0.4319070000000  0.5193450000000  0.4684120000000 1.0
C      1  0.5201880000000  0.4685810000000  0.4332650000000 1.0
C      1  0.4675790000000  0.4322570000000  0.5190160000000 1.0
C      1  0.5667330000000  0.5201890000000  0.5314190000000 1.0
C      1  0.5688290000000  0.4796860000000  0.4688320000000 1.0
C      1  0.4322600000000  0.4809830000000  0.5324220000000 1.0
C      1  0.4809850000000  0.4675770000000  0.5677430000000 1.0
C      1  0.4796850000000  0.5311680000000  0.4311680000000 1.0
C      1  0.5193450000000  0.5315880000000  0.5680950000000 1.0
C      1  0.5315880000000  0.4319070000000  0.4806540000000 1.0
C      1  0.5311660000000  0.5688300000000  0.5203160000000 1.0
C      1  0.4685810000000  0.5667340000000  0.4798110000000 1.0
C      1  0.4687370000000  0.5201150000000  0.4309610000000 1.0
C      1  0.4313580000000  0.4695950000000  0.5219560000000 1.0
C      1  0.5213100000000  0.4317980000000  0.4691770000000 1.0
C      1  0.5308220000000  0.5213090000000  0.5682030000000 1.0
C      1  0.4695960000000  0.4780430000000  0.5686440000000 1.0
C      1  0.5313220000000  0.4795930000000  0.4328760000000 1.0
C      1  0.5690370000000  0.4687390000000  0.4798850000000 1.0
C      1  0.4317990000000  0.5308220000000  0.4786910000000 1.0
C      1  0.5671210000000  0.5313230000000  0.5204070000000 1.0
C      1  0.4780450000000  0.4313560000000  0.5304050000000 1.0
C      1  0.5201130000000  0.5690380000000  0.5312630000000 1.0
C      1  0.4795930000000  0.5671230000000  0.4686770000000 1.0
C      1  0.4295840000000  0.4800350000000  0.4761900000000 1.0
C      1  0.4828610000000  0.4738190000000  0.4243920000000 1.0
C      1  0.4750780000000  0.4310050000000  0.4796960000000 1.0
C      1  0.5756070000000  0.4828620000000  0.5261810000000 1.0
C      1  0.5772420000000  0.5169800000000  0.4742900000000 1.0
C      1  0.4310070000000  0.5203030000000  0.5249230000000 1.0
C      1  0.5203040000000  0.4750770000000  0.5689960000000 1.0
C      1  0.5169780000000  0.5257090000000  0.4227550000000 1.0
C      1  0.4800360000000  0.5238100000000  0.5704190000000 1.0
C      1  0.5238110000000  0.4295830000000  0.5199640000000 1.0
C      1  0.5257090000000  0.5772460000000  0.4830220000000 1.0
C      1  0.4738170000000  0.5756080000000  0.5171380000000 1.0
C      1  0.4738990000000  0.4826290000000  0.4233190000000 1.0
C      1  0.4226720000000  0.4736100000000  0.4857730000000 1.0
C      1  0.4846570000000  0.4241750000000  0.4730140000000 1.0
C      1  0.5269860000000  0.4846560000000  0.5758250000000 1.0
C      1  0.4736110000000  0.5142270000000  0.5773300000000 1.0
C      1  0.5260120000000  0.5169200000000  0.4236660000000 1.0
C      1  0.5766800000000  0.4739000000000  0.5173710000000 1.0
C      1  0.4241770000000  0.5269850000000  0.5153440000000 1.0
C      1  0.5763300000000  0.5260140000000  0.4830800000000 1.0
C      1  0.5142290000000  0.4226710000000  0.5263890000000 1.0
C      1  0.4826270000000  0.5766780000000  0.5261010000000 1.0
C      1  0.5169200000000  0.5763320000000  0.4739880000000 1.0
C      1  0.5013800000000  0.5419190000000  0.5597460000000 1.0
C      1  0.5396110000000  0.5599780000000  0.5009110000000 1.0
C      1  0.5574740000000  0.5006290000000  0.5395490000000 1.0
C      1  0.4990900000000  0.5396140000000  0.4400200000000 1.0
C      1  0.4992020000000  0.4579950000000  0.5581000000000 1.0
C      1  0.5006280000000  0.4604500000000  0.4425240000000 1.0
C      1  0.4604520000000  0.5574740000000  0.4993710000000 1.0
C      1  0.4579970000000  0.4419000000000  0.5007990000000 1.0
C      1  0.5419190000000  0.4402570000000  0.4986190000000 1.0
C      1  0.4402580000000  0.5013800000000  0.4580810000000 1.0
C      1  0.4419020000000  0.4992000000000  0.5420040000000 1.0
C      1  0.5599760000000  0.4990910000000  0.4603860000000 1.0
C      1  0.5587010000000  0.5401630000000  0.5010410000000 1.0
C      1  0.5006670000000  0.5606030000000  0.5401100000000 1.0
C      1  0.5388940000000  0.5019230000000  0.5592450000000 1.0
C      1  0.4407570000000  0.5388930000000  0.4980770000000 1.0
C      1  0.5606020000000  0.4598930000000  0.4993310000000 1.0
C      1  0.4393120000000  0.4612520000000  0.5020820000000 1.0
C      1  0.4989590000000  0.5587050000000  0.4598360000000 1.0
C      1  0.5019230000000  0.4407550000000  0.4611050000000 1.0
C      1  0.4979190000000  0.4393100000000  0.5387480000000 1.0
C      1  0.4598930000000  0.5006680000000  0.4393970000000 1.0
C      1  0.5401620000000  0.4989600000000  0.4412950000000 1.0
C      1  0.4612520000000  0.4979170000000  0.5606900000000 1.0
C      1  0.4885740000000  0.4543760000000  0.4462010000000 1.0
C      1  0.4517030000000  0.4458210000000  0.4890670000000 1.0
C      1  0.4427540000000  0.4894870000000  0.4515340000000 1.0
C      1  0.5109340000000  0.4517010000000  0.5541790000000 1.0
C      1  0.5113760000000  0.5455870000000  0.4432870000000 1.0
C      1  0.4894870000000  0.5484660000000  0.5572500000000 1.0
C      1  0.5484660000000  0.4427540000000  0.5105120000000 1.0
C      1  0.5455830000000  0.5567110000000  0.4886240000000 1.0
C      1  0.4543790000000  0.5537970000000  0.5114260000000 1.0
C      1  0.5537980000000  0.4885740000000  0.5456240000000 1.0
C      1  0.5567090000000  0.5113770000000  0.4544140000000 1.0
C      1  0.4458220000000  0.5109330000000  0.5482990000000 1.0
C      1  0.4418400000000  0.4562750000000  0.4891730000000 1.0
C      1  0.4891080000000  0.4438480000000  0.4563210000000 1.0
C      1  0.4535970000000  0.4884230000000  0.4419790000000 1.0
C      1  0.5580210000000  0.4535970000000  0.5115760000000 1.0
C      1  0.4438510000000  0.5436770000000  0.5108930000000 1.0
C      1  0.5558070000000  0.5463300000000  0.4887720000000 1.0
C      1  0.5108280000000  0.4418380000000  0.5437250000000 1.0
C      1  0.4884230000000  0.5580220000000  0.5464070000000 1.0
C      1  0.5112280000000  0.5558120000000  0.4536680000000 1.0
C      1  0.5436780000000  0.4891070000000  0.5561520000000 1.0
C      1  0.4562760000000  0.5108270000000  0.5581630000000 1.0
C      1  0.5463280000000  0.5112290000000  0.4441890000000 1.0
C      1  0.5698200000000  0.4685630000000  0.4584310000000 1.0
C      1  0.4701050000000  0.4567520000000  0.5689450000000 1.0
C      1  0.4581700000000  0.5682200000000  0.4687280000000 1.0
C      1  0.4310570000000  0.4701040000000  0.5432470000000 1.0
C      1  0.4305430000000  0.5300150000000  0.4574310000000 1.0
C      1  0.5682190000000  0.5312720000000  0.5418300000000 1.0
C      1  0.5312710000000  0.4581700000000  0.4317790000000 1.0
C      1  0.5300160000000  0.5425690000000  0.5694590000000 1.0
C      1  0.4685620000000  0.5415690000000  0.4301790000000 1.0
C      1  0.5415670000000  0.5698210000000  0.5314390000000 1.0
C      1  0.5425700000000  0.4305430000000  0.4699840000000 1.0
C      1  0.4567540000000  0.4310550000000  0.5298960000000 1.0
C      1  0.4595000000000  0.4669790000000  0.5698010000000 1.0
C      1  0.5700000000000  0.4582500000000  0.4688790000000 1.0
C      1  0.4685250000000  0.5685470000000  0.4583610000000 1.0
C      1  0.5416380000000  0.4685250000000  0.4314520000000 1.0
C      1  0.4582480000000  0.5311200000000  0.4299990000000 1.0
C      1  0.5408230000000  0.5324570000000  0.5695240000000 1.0
C      1  0.4302010000000  0.4594990000000  0.5330200000000 1.0
C      1  0.5685460000000  0.5416390000000  0.5314750000000 1.0
C      1  0.4304770000000  0.5408230000000  0.4675430000000 1.0
C      1  0.5311180000000  0.5700000000000  0.5417520000000 1.0
C      1  0.4669810000000  0.4301990000000  0.5405000000000 1.0
C      1  0.5324580000000  0.4304770000000  0.4591760000000 1.0
C      1  0.5259770000000  0.5439460000000  0.4446720000000 1.0
C      1  0.5314320000000  0.4399880000000  0.5285930000000 1.0
C      1  0.4419220000000  0.5287910000000  0.5322890000000 1.0
C      1  0.4714070000000  0.5314310000000  0.5600140000000 1.0
C      1  0.4652790000000  0.4652090000000  0.4450980000000 1.0
C      1  0.5287920000000  0.4677110000000  0.5580810000000 1.0
C      1  0.4677120000000  0.4419190000000  0.4712080000000 1.0
C      1  0.4652100000000  0.5549010000000  0.5347230000000 1.0
C      1  0.5439410000000  0.5553270000000  0.4740230000000 1.0
C      1  0.5553240000000  0.5259780000000  0.4560550000000 1.0
C      1  0.5549010000000  0.4652800000000  0.5347900000000 1.0
C      1  0.4399890000000  0.4714060000000  0.4685690000000 1.0
C      1  0.4456520000000  0.5403250000000  0.5249650000000 1.0
C      1  0.5248810000000  0.4450560000000  0.5402120000000 1.0
C      1  0.5352310000000  0.5347380000000  0.4423720000000 1.0
C      1  0.5576240000000  0.5352320000000  0.4652630000000 1.0
C      1  0.4450580000000  0.4597880000000  0.4751200000000 1.0
C      1  0.5536890000000  0.4556470000000  0.5258590000000 1.0
C      1  0.4750360000000  0.4456490000000  0.4596740000000 1.0
C      1  0.5347350000000  0.5576280000000  0.4647690000000 1.0
C      1  0.4741410000000  0.5536880000000  0.5443560000000 1.0
C      1  0.4597890000000  0.5248790000000  0.5549450000000 1.0
C      1  0.5403260000000  0.4750350000000  0.5543510000000 1.0
C      1  0.4556480000000  0.4741410000000  0.4463110000000 1.0
C      1  0.4672030000000  0.5690580000000  0.4941730000000 1.0
C      1  0.5713780000000  0.4939260000000  0.4674300000000 1.0
C      1  0.4956330000000  0.4666410000000  0.5690460000000 1.0
C      1  0.5325680000000  0.5713800000000  0.5060760000000 1.0
C      1  0.5325230000000  0.4301340000000  0.4952060000000 1.0
C      1  0.4666430000000  0.4309540000000  0.5043680000000 1.0
C      1  0.4309560000000  0.4956320000000  0.5333580000000 1.0
C      1  0.4301350000000  0.5047930000000  0.4674780000000 1.0
C      1  0.5690570000000  0.5058270000000  0.5327970000000 1.0
C      1  0.5058260000000  0.4672030000000  0.4309410000000 1.0
C      1  0.5047930000000  0.5325220000000  0.5698680000000 1.0
C      1  0.4939250000000  0.5325700000000  0.4286190000000 1.0
C      1  0.4938090000000  0.5697920000000  0.4672960000000 1.0
C      1  0.4677520000000  0.4919220000000  0.5718560000000 1.0
C      1  0.5717130000000  0.4672120000000  0.4941140000000 1.0
C      1  0.5058840000000  0.5717130000000  0.5327910000000 1.0
C      1  0.4919240000000  0.4281440000000  0.5322490000000 1.0
C      1  0.5073380000000  0.4291950000000  0.4672710000000 1.0
C      1  0.5327030000000  0.4938090000000  0.4302080000000 1.0
C      1  0.4672110000000  0.5058860000000  0.4282860000000 1.0
C      1  0.5327290000000  0.5073380000000  0.5708060000000 1.0
C      1  0.4281460000000  0.4677510000000  0.5080770000000 1.0
C      1  0.5697890000000  0.5327040000000  0.5061910000000 1.0
C      1  0.4291960000000  0.5327280000000  0.4926630000000 1.0
C      1  0.5619560000000  0.5535970000000  0.5319310000000 1.0
C      1  0.5525730000000  0.5325630000000  0.5626450000000 1.0
C      1  0.5311960000000  0.5631890000000  0.5535680000000 1.0
C      1  0.4373560000000  0.5525730000000  0.4674370000000 1.0
C      1  0.4366580000000  0.4475180000000  0.5324700000000 1.0
C      1  0.5631890000000  0.4464340000000  0.4688020000000 1.0
C      1  0.4464330000000  0.5311970000000  0.4368110000000 1.0
C      1  0.4475200000000  0.4675290000000  0.5633440000000 1.0
C      1  0.5535970000000  0.4680700000000  0.4380410000000 1.0
C      1  0.4680690000000  0.5619580000000  0.4464020000000 1.0
C      1  0.4675310000000  0.4366560000000  0.5524810000000 1.0
C      1  0.5325640000000  0.4373560000000  0.4474260000000 1.0
C      1  0.5305010000000  0.5542600000000  0.5625050000000 1.0
C      1  0.5613750000000  0.5320320000000  0.5535970000000 1.0
C      1  0.5532100000000  0.5627120000000  0.5319190000000 1.0
C      1  0.4680810000000  0.5532110000000  0.4372880000000 1.0
C      1  0.5320320000000  0.4464030000000  0.4386240000000 1.0
C      1  0.4690210000000  0.4453950000000  0.5614950000000 1.0
C      1  0.4374960000000  0.5305010000000  0.4457400000000 1.0
C      1  0.5627110000000  0.4680830000000  0.4467880000000 1.0
C      1  0.4385060000000  0.4690190000000  0.5546040000000 1.0
C      1  0.4464030000000  0.5613750000000  0.4679680000000 1.0
C      1  0.5542600000000  0.4374970000000  0.4694980000000 1.0
C      1  0.4453970000000  0.4385040000000  0.5309800000000 1.0
C      1  0.4893030000000  0.4509520000000  0.5374360000000 1.0
C      1  0.4521070000000  0.5371660000000  0.4892600000000 1.0
C      1  0.5386570000000  0.4900770000000  0.4527100000000 1.0
C      1  0.5107400000000  0.4521050000000  0.4628330000000 1.0
C      1  0.5096730000000  0.5491900000000  0.5383060000000 1.0
C      1  0.4900770000000  0.5472900000000  0.4613410000000 1.0
C      1  0.5472860000000  0.5386580000000  0.5099230000000 1.0
C      1  0.5491900000000  0.4616970000000  0.4903250000000 1.0
C      1  0.4509550000000  0.4625640000000  0.5106980000000 1.0
C      1  0.4625650000000  0.4893010000000  0.5490480000000 1.0
C      1  0.4616970000000  0.5096750000000  0.4508090000000 1.0
C      1  0.5371650000000  0.5107390000000  0.5478950000000 1.0
C      1  0.5396510000000  0.4517410000000  0.4901160000000 1.0
C      1  0.4901050000000  0.5377110000000  0.4513080000000 1.0
C      1  0.4527170000000  0.4899320000000  0.5394520000000 1.0
C      1  0.4605500000000  0.4527150000000  0.5100680000000 1.0
C      1  0.5377080000000  0.5486900000000  0.5098960000000 1.0
C      1  0.4622550000000  0.5465110000000  0.4898800000000 1.0
C      1  0.5098830000000  0.5396520000000  0.5482620000000 1.0
C      1  0.4899330000000  0.4605480000000  0.5472850000000 1.0
C      1  0.5101190000000  0.4622530000000  0.4534870000000 1.0
C      1  0.5486890000000  0.4901050000000  0.4622890000000 1.0
C      1  0.4517410000000  0.5098840000000  0.4603480000000 1.0
C      1  0.5465100000000  0.5101200000000  0.5377470000000 1.0
C      1  0.5013790000000  0.4889700000000  0.5778090000000 1.0
C      1  0.4892450000000  0.5794390000000  0.4997780000000 1.0
C      1  0.5802620000000  0.4999990000000  0.4901250000000 1.0
C      1  0.5002220000000  0.4892460000000  0.4205600000000 1.0
C      1  0.4993880000000  0.5099590000000  0.5780090000000 1.0
C      1  0.4999980000000  0.5098750000000  0.4197360000000 1.0
C      1  0.5098730000000  0.5802630000000  0.5000020000000 1.0
C      1  0.5099610000000  0.4219920000000  0.5006120000000 1.0
C      1  0.4889720000000  0.4221920000000  0.4986210000000 1.0
C      1  0.4221930000000  0.5013780000000  0.5110290000000 1.0
C      1  0.4219940000000  0.4993880000000  0.4900400000000 1.0
C      1  0.5794380000000  0.5002230000000  0.5107540000000 1.0
C      1  0.5802550000000  0.4898200000000  0.5003670000000 1.0
C      1  0.4995160000000  0.5795340000000  0.4895700000000 1.0
C      1  0.4904720000000  0.4984190000000  0.5791300000000 1.0
C      1  0.4208720000000  0.4904720000000  0.5015800000000 1.0
C      1  0.5795320000000  0.5104310000000  0.5004830000000 1.0
C      1  0.4213190000000  0.5103260000000  0.4995070000000 1.0
C      1  0.4996320000000  0.5802550000000  0.5101820000000 1.0
C      1  0.4984210000000  0.4208700000000  0.5095280000000 1.0
C      1  0.5004940000000  0.4213170000000  0.4896730000000 1.0
C      1  0.5104300000000  0.4995170000000  0.4204650000000 1.0
C      1  0.4898190000000  0.4996330000000  0.4197430000000 1.0
C      1  0.5103270000000  0.5004920000000  0.5786840000000 1.0
C      1  0.5445830000000  0.5257920000000  0.4452030000000 1.0
C      1  0.5246200000000  0.4556380000000  0.5514630000000 1.0
C      1  0.4560750000000  0.5511240000000  0.5259590000000 1.0
C      1  0.4485390000000  0.5246190000000  0.5443630000000 1.0
C      1  0.4740410000000  0.4560730000000  0.4488750000000 1.0
C      1  0.4761560000000  0.5436710000000  0.5554530000000 1.0
C      1  0.5257910000000  0.5547970000000  0.4554140000000 1.0
C      1  0.5547930000000  0.5445850000000  0.4742090000000 1.0
C      1  0.5436710000000  0.4445500000000  0.5238440000000 1.0
C      1  0.5511250000000  0.4740410000000  0.5439260000000 1.0
C      1  0.4445510000000  0.4761550000000  0.4563290000000 1.0
C      1  0.4556390000000  0.4485370000000  0.4753800000000 1.0
END
