TITL C-1379265-1223-50 -2.75472178644245e-06 1000000 -2882.77887220234 0 0 420 (Th) n - 1
REM
REM in /nfs/bkarasulu/CARBON/AIRSS/Generating-Clusters/GAP-ML-2020/Higher-Symm/Selected-Sizes/TryA-Only_Ih-Symm/Larger-Clusters/Try2-MINAMP_6A
REM
REM
REM
REM
REM
REM ./C.cell (31579ac4e95a012ec27f3239692ae8a5)
REM
REM compiler GCC version 9.2.1 20190827 (Red Hat 9.2.1-1)
REM options -cpp -mtune=generic -march=x86-64 -g -O0 -fpre-include=/usr/include/finclude/math-vector-fortran.h
REM seed -1640551395 388797560 -951546904 -1358102561 1241279058 993344371 -1204806976 -808881178 373405777 639109278 -1755529458 1220117340 -654868520 2027398876 -1165893744 -1728785831 2048511337 1867048427 48608889 28341733 290622459 1238847657 321127717 1746015595 689012939 -1817798672 727299576 2130883935 428154252 707065018 1451222200 -1304149553 -1453762128
REM
CELL 1.54180  100.00000  100.00000  100.00000   90.00000   90.00000   90.00000
LATT -1
SFAC C  
C      1  0.5195880000000  0.5575980000000  0.5535500000000 1.0
C      1  0.5575980000000  0.5535500000000  0.5195880000000 1.0
C      1  0.5535500000000  0.5195880000000  0.5575980000000 1.0
C      1  0.4804120000000  0.5575980000000  0.4464500000000 1.0
C      1  0.4804120000000  0.4424020000000  0.5535500000000 1.0
C      1  0.5195880000000  0.4424020000000  0.4464500000000 1.0
C      1  0.4424020000000  0.5535500000000  0.4804120000000 1.0
C      1  0.4424020000000  0.4464500000000  0.5195880000000 1.0
C      1  0.5575980000000  0.4464500000000  0.4804120000000 1.0
C      1  0.4464500000000  0.5195880000000  0.4424020000000 1.0
C      1  0.4464500000000  0.4804120000000  0.5575980000000 1.0
C      1  0.5535500000000  0.4804120000000  0.4424020000000 1.0
C      1  0.5195880000000  0.4424020000000  0.5535500000000 1.0
C      1  0.5575980000000  0.4464500000000  0.5195880000000 1.0
C      1  0.5535500000000  0.4804120000000  0.5575980000000 1.0
C      1  0.4804120000000  0.4424020000000  0.4464500000000 1.0
C      1  0.4804120000000  0.5575980000000  0.5535500000000 1.0
C      1  0.5195880000000  0.5575980000000  0.4464500000000 1.0
C      1  0.4424020000000  0.4464500000000  0.4804120000000 1.0
C      1  0.4424020000000  0.5535500000000  0.5195880000000 1.0
C      1  0.5575980000000  0.5535500000000  0.4804120000000 1.0
C      1  0.4464500000000  0.4804120000000  0.4424020000000 1.0
C      1  0.4464500000000  0.5195880000000  0.5575980000000 1.0
C      1  0.5535500000000  0.5195880000000  0.4424020000000 1.0
C      1  0.4811450000000  0.4467780000000  0.4337840000000 1.0
C      1  0.4467780000000  0.4337840000000  0.4811450000000 1.0
C      1  0.4337840000000  0.4811450000000  0.4467780000000 1.0
C      1  0.5188550000000  0.4467780000000  0.5662160000000 1.0
C      1  0.5188550000000  0.5532220000000  0.4337840000000 1.0
C      1  0.4811450000000  0.5532220000000  0.5662160000000 1.0
C      1  0.5532220000000  0.4337840000000  0.5188550000000 1.0
C      1  0.5532220000000  0.5662160000000  0.4811450000000 1.0
C      1  0.4467780000000  0.5662160000000  0.5188550000000 1.0
C      1  0.5662160000000  0.4811450000000  0.5532220000000 1.0
C      1  0.5662160000000  0.5188550000000  0.4467780000000 1.0
C      1  0.4337840000000  0.5188550000000  0.5532220000000 1.0
C      1  0.4811450000000  0.5532220000000  0.4337840000000 1.0
C      1  0.4467780000000  0.5662160000000  0.4811450000000 1.0
C      1  0.4337840000000  0.5188550000000  0.4467780000000 1.0
C      1  0.5188550000000  0.5532220000000  0.5662160000000 1.0
C      1  0.5188550000000  0.4467780000000  0.4337840000000 1.0
C      1  0.4811450000000  0.4467780000000  0.5662160000000 1.0
C      1  0.5532220000000  0.5662160000000  0.5188550000000 1.0
C      1  0.5532220000000  0.4337840000000  0.4811450000000 1.0
C      1  0.4467780000000  0.4337840000000  0.5188550000000 1.0
C      1  0.5662160000000  0.5188550000000  0.5532220000000 1.0
C      1  0.5662160000000  0.4811450000000  0.4467780000000 1.0
C      1  0.4337840000000  0.4811450000000  0.5532220000000 1.0
C      1  0.4477020000000  0.5315290000000  0.4714770000000 1.0
C      1  0.5315290000000  0.4714770000000  0.4477020000000 1.0
C      1  0.4714770000000  0.4477020000000  0.5315290000000 1.0
C      1  0.5522980000000  0.5315290000000  0.5285230000000 1.0
C      1  0.5522980000000  0.4684710000000  0.4714770000000 1.0
C      1  0.4477020000000  0.4684710000000  0.5285230000000 1.0
C      1  0.4684710000000  0.4714770000000  0.5522980000000 1.0
C      1  0.4684710000000  0.5285230000000  0.4477020000000 1.0
C      1  0.5315290000000  0.5285230000000  0.5522980000000 1.0
C      1  0.5285230000000  0.4477020000000  0.4684710000000 1.0
C      1  0.5285230000000  0.5522980000000  0.5315290000000 1.0
C      1  0.4714770000000  0.5522980000000  0.4684710000000 1.0
C      1  0.4477020000000  0.4684710000000  0.4714770000000 1.0
C      1  0.5315290000000  0.5285230000000  0.4477020000000 1.0
C      1  0.4714770000000  0.5522980000000  0.5315290000000 1.0
C      1  0.5522980000000  0.4684710000000  0.5285230000000 1.0
C      1  0.5522980000000  0.5315290000000  0.4714770000000 1.0
C      1  0.4477020000000  0.5315290000000  0.5285230000000 1.0
C      1  0.4684710000000  0.5285230000000  0.5522980000000 1.0
C      1  0.4684710000000  0.4714770000000  0.4477020000000 1.0
C      1  0.5315290000000  0.4714770000000  0.5522980000000 1.0
C      1  0.5285230000000  0.5522980000000  0.4684710000000 1.0
C      1  0.5285230000000  0.4477020000000  0.5315290000000 1.0
C      1  0.4714770000000  0.4477020000000  0.4684710000000 1.0
C      1  0.5554420000000  0.4921740000000  0.4699890000000 1.0
C      1  0.4921740000000  0.4699890000000  0.5554420000000 1.0
C      1  0.4699890000000  0.5554420000000  0.4921740000000 1.0
C      1  0.4445580000000  0.4921740000000  0.5300110000000 1.0
C      1  0.4445580000000  0.5078260000000  0.4699890000000 1.0
C      1  0.5554420000000  0.5078260000000  0.5300110000000 1.0
C      1  0.5078260000000  0.4699890000000  0.4445580000000 1.0
C      1  0.5078260000000  0.5300110000000  0.5554420000000 1.0
C      1  0.4921740000000  0.5300110000000  0.4445580000000 1.0
C      1  0.5300110000000  0.5554420000000  0.5078260000000 1.0
C      1  0.5300110000000  0.4445580000000  0.4921740000000 1.0
C      1  0.4699890000000  0.4445580000000  0.5078260000000 1.0
C      1  0.5554420000000  0.5078260000000  0.4699890000000 1.0
C      1  0.4921740000000  0.5300110000000  0.5554420000000 1.0
C      1  0.4699890000000  0.4445580000000  0.4921740000000 1.0
C      1  0.4445580000000  0.5078260000000  0.5300110000000 1.0
C      1  0.4445580000000  0.4921740000000  0.4699890000000 1.0
C      1  0.5554420000000  0.4921740000000  0.5300110000000 1.0
C      1  0.5078260000000  0.5300110000000  0.4445580000000 1.0
C      1  0.5078260000000  0.4699890000000  0.5554420000000 1.0
C      1  0.4921740000000  0.4699890000000  0.4445580000000 1.0
C      1  0.5300110000000  0.4445580000000  0.5078260000000 1.0
C      1  0.5300110000000  0.5554420000000  0.4921740000000 1.0
C      1  0.4699890000000  0.5554420000000  0.5078260000000 1.0
C      1  0.5455300000000  0.4816090000000  0.4310760000000 1.0
C      1  0.4816090000000  0.4310760000000  0.5455300000000 1.0
C      1  0.4310760000000  0.5455300000000  0.4816090000000 1.0
C      1  0.4544700000000  0.4816090000000  0.5689240000000 1.0
C      1  0.4544700000000  0.5183910000000  0.4310760000000 1.0
C      1  0.5455300000000  0.5183910000000  0.5689240000000 1.0
C      1  0.5183910000000  0.4310760000000  0.4544700000000 1.0
C      1  0.5183910000000  0.5689240000000  0.5455300000000 1.0
C      1  0.4816090000000  0.5689240000000  0.4544700000000 1.0
C      1  0.5689240000000  0.5455300000000  0.5183910000000 1.0
C      1  0.5689240000000  0.4544700000000  0.4816090000000 1.0
C      1  0.4310760000000  0.4544700000000  0.5183910000000 1.0
C      1  0.5455300000000  0.5183910000000  0.4310760000000 1.0
C      1  0.4816090000000  0.5689240000000  0.5455300000000 1.0
C      1  0.4310760000000  0.4544700000000  0.4816090000000 1.0
C      1  0.4544700000000  0.5183910000000  0.5689240000000 1.0
C      1  0.4544700000000  0.4816090000000  0.4310760000000 1.0
C      1  0.5455300000000  0.4816090000000  0.5689240000000 1.0
C      1  0.5183910000000  0.5689240000000  0.4544700000000 1.0
C      1  0.5183910000000  0.4310760000000  0.5455300000000 1.0
C      1  0.4816090000000  0.4310760000000  0.4544700000000 1.0
C      1  0.5689240000000  0.4544700000000  0.5183910000000 1.0
C      1  0.5689240000000  0.5455300000000  0.4816090000000 1.0
C      1  0.4310760000000  0.5455300000000  0.5183910000000 1.0
C      1  0.5162250000000  0.4374620000000  0.4920090000000 1.0
C      1  0.4374620000000  0.4920090000000  0.5162250000000 1.0
C      1  0.4920090000000  0.5162250000000  0.4374620000000 1.0
C      1  0.4837750000000  0.4374620000000  0.5079910000000 1.0
C      1  0.4837750000000  0.5625380000000  0.4920090000000 1.0
C      1  0.5162250000000  0.5625380000000  0.5079910000000 1.0
C      1  0.5625380000000  0.4920090000000  0.4837750000000 1.0
C      1  0.5625380000000  0.5079910000000  0.5162250000000 1.0
C      1  0.4374620000000  0.5079910000000  0.4837750000000 1.0
C      1  0.5079910000000  0.5162250000000  0.5625380000000 1.0
C      1  0.5079910000000  0.4837750000000  0.4374620000000 1.0
C      1  0.4920090000000  0.4837750000000  0.5625380000000 1.0
C      1  0.5162250000000  0.5625380000000  0.4920090000000 1.0
C      1  0.4374620000000  0.5079910000000  0.5162250000000 1.0
C      1  0.4920090000000  0.4837750000000  0.4374620000000 1.0
C      1  0.4837750000000  0.5625380000000  0.5079910000000 1.0
C      1  0.4837750000000  0.4374620000000  0.4920090000000 1.0
C      1  0.5162250000000  0.4374620000000  0.5079910000000 1.0
C      1  0.5625380000000  0.5079910000000  0.4837750000000 1.0
C      1  0.5625380000000  0.4920090000000  0.5162250000000 1.0
C      1  0.4374620000000  0.4920090000000  0.4837750000000 1.0
C      1  0.5079910000000  0.4837750000000  0.5625380000000 1.0
C      1  0.5079910000000  0.5162250000000  0.4374620000000 1.0
C      1  0.4920090000000  0.5162250000000  0.5625380000000 1.0
C      1  0.4669630000000  0.4536200000000  0.5191700000000 1.0
C      1  0.4536200000000  0.5191700000000  0.4669630000000 1.0
C      1  0.5191700000000  0.4669630000000  0.4536200000000 1.0
C      1  0.5330370000000  0.4536200000000  0.4808300000000 1.0
C      1  0.5330370000000  0.5463800000000  0.5191700000000 1.0
C      1  0.4669630000000  0.5463800000000  0.4808300000000 1.0
C      1  0.5463800000000  0.5191700000000  0.5330370000000 1.0
C      1  0.5463800000000  0.4808300000000  0.4669630000000 1.0
C      1  0.4536200000000  0.4808300000000  0.5330370000000 1.0
C      1  0.4808300000000  0.4669630000000  0.5463800000000 1.0
C      1  0.4808300000000  0.5330370000000  0.4536200000000 1.0
C      1  0.5191700000000  0.5330370000000  0.5463800000000 1.0
C      1  0.4669630000000  0.5463800000000  0.5191700000000 1.0
C      1  0.4536200000000  0.4808300000000  0.4669630000000 1.0
C      1  0.5191700000000  0.5330370000000  0.4536200000000 1.0
C      1  0.5330370000000  0.5463800000000  0.4808300000000 1.0
C      1  0.5330370000000  0.4536200000000  0.5191700000000 1.0
C      1  0.4669630000000  0.4536200000000  0.4808300000000 1.0
C      1  0.5463800000000  0.4808300000000  0.5330370000000 1.0
C      1  0.5463800000000  0.5191700000000  0.4669630000000 1.0
C      1  0.4536200000000  0.5191700000000  0.5330370000000 1.0
C      1  0.4808300000000  0.5330370000000  0.5463800000000 1.0
C      1  0.4808300000000  0.4669630000000  0.4536200000000 1.0
C      1  0.5191700000000  0.4669630000000  0.5463800000000 1.0
C      1  0.4230870000000  0.4849360000000  0.5183430000000 1.0
C      1  0.4849360000000  0.5183430000000  0.4230870000000 1.0
C      1  0.5183430000000  0.4230870000000  0.4849360000000 1.0
C      1  0.5769130000000  0.4849360000000  0.4816570000000 1.0
C      1  0.5769130000000  0.5150640000000  0.5183430000000 1.0
C      1  0.4230870000000  0.5150640000000  0.4816570000000 1.0
C      1  0.5150640000000  0.5183430000000  0.5769130000000 1.0
C      1  0.5150640000000  0.4816570000000  0.4230870000000 1.0
C      1  0.4849360000000  0.4816570000000  0.5769130000000 1.0
C      1  0.4816570000000  0.4230870000000  0.5150640000000 1.0
C      1  0.4816570000000  0.5769130000000  0.4849360000000 1.0
C      1  0.5183430000000  0.5769130000000  0.5150640000000 1.0
C      1  0.4230870000000  0.5150640000000  0.5183430000000 1.0
C      1  0.4849360000000  0.4816570000000  0.4230870000000 1.0
C      1  0.5183430000000  0.5769130000000  0.4849360000000 1.0
C      1  0.5769130000000  0.5150640000000  0.4816570000000 1.0
C      1  0.5769130000000  0.4849360000000  0.5183430000000 1.0
C      1  0.4230870000000  0.4849360000000  0.4816570000000 1.0
C      1  0.5150640000000  0.4816570000000  0.5769130000000 1.0
C      1  0.5150640000000  0.5183430000000  0.4230870000000 1.0
C      1  0.4849360000000  0.5183430000000  0.5769130000000 1.0
C      1  0.4816570000000  0.5769130000000  0.5150640000000 1.0
C      1  0.4816570000000  0.4230870000000  0.4849360000000 1.0
C      1  0.5183430000000  0.4230870000000  0.5150640000000 1.0
C      1  0.4725500000000  0.5669640000000  0.5344910000000 1.0
C      1  0.5669640000000  0.5344910000000  0.4725500000000 1.0
C      1  0.5344910000000  0.4725500000000  0.5669640000000 1.0
C      1  0.5274500000000  0.5669640000000  0.4655090000000 1.0
C      1  0.5274500000000  0.4330360000000  0.5344910000000 1.0
C      1  0.4725500000000  0.4330360000000  0.4655090000000 1.0
C      1  0.4330360000000  0.5344910000000  0.5274500000000 1.0
C      1  0.4330360000000  0.4655090000000  0.4725500000000 1.0
C      1  0.5669640000000  0.4655090000000  0.5274500000000 1.0
C      1  0.4655090000000  0.4725500000000  0.4330360000000 1.0
C      1  0.4655090000000  0.5274500000000  0.5669640000000 1.0
C      1  0.5344910000000  0.5274500000000  0.4330360000000 1.0
C      1  0.4725500000000  0.4330360000000  0.5344910000000 1.0
C      1  0.5669640000000  0.4655090000000  0.4725500000000 1.0
C      1  0.5344910000000  0.5274500000000  0.5669640000000 1.0
C      1  0.5274500000000  0.4330360000000  0.4655090000000 1.0
C      1  0.5274500000000  0.5669640000000  0.5344910000000 1.0
C      1  0.4725500000000  0.5669640000000  0.4655090000000 1.0
C      1  0.4330360000000  0.4655090000000  0.5274500000000 1.0
C      1  0.4330360000000  0.5344910000000  0.4725500000000 1.0
C      1  0.5669640000000  0.5344910000000  0.5274500000000 1.0
C      1  0.4655090000000  0.5274500000000  0.4330360000000 1.0
C      1  0.4655090000000  0.4725500000000  0.5669640000000 1.0
C      1  0.5344910000000  0.4725500000000  0.4330360000000 1.0
C      1  0.5294370000000  0.5762950000000  0.5243570000000 1.0
C      1  0.5762950000000  0.5243570000000  0.5294370000000 1.0
C      1  0.5243570000000  0.5294370000000  0.5762950000000 1.0
C      1  0.4705630000000  0.5762950000000  0.4756430000000 1.0
C      1  0.4705630000000  0.4237050000000  0.5243570000000 1.0
C      1  0.5294370000000  0.4237050000000  0.4756430000000 1.0
C      1  0.4237050000000  0.5243570000000  0.4705630000000 1.0
C      1  0.4237050000000  0.4756430000000  0.5294370000000 1.0
C      1  0.5762950000000  0.4756430000000  0.4705630000000 1.0
C      1  0.4756430000000  0.5294370000000  0.4237050000000 1.0
C      1  0.4756430000000  0.4705630000000  0.5762950000000 1.0
C      1  0.5243570000000  0.4705630000000  0.4237050000000 1.0
C      1  0.5294370000000  0.4237050000000  0.5243570000000 1.0
C      1  0.5762950000000  0.4756430000000  0.5294370000000 1.0
C      1  0.5243570000000  0.4705630000000  0.5762950000000 1.0
C      1  0.4705630000000  0.4237050000000  0.4756430000000 1.0
C      1  0.4705630000000  0.5762950000000  0.5243570000000 1.0
C      1  0.5294370000000  0.5762950000000  0.4756430000000 1.0
C      1  0.4237050000000  0.4756430000000  0.4705630000000 1.0
C      1  0.4237050000000  0.5243570000000  0.5294370000000 1.0
C      1  0.5762950000000  0.5243570000000  0.4705630000000 1.0
C      1  0.4756430000000  0.4705630000000  0.4237050000000 1.0
C      1  0.4756430000000  0.5294370000000  0.5762950000000 1.0
C      1  0.5243570000000  0.5294370000000  0.4237050000000 1.0
C      1  0.4329460000000  0.4622070000000  0.5068270000000 1.0
C      1  0.4622070000000  0.5068270000000  0.4329460000000 1.0
C      1  0.5068270000000  0.4329460000000  0.4622070000000 1.0
C      1  0.5670540000000  0.4622070000000  0.4931730000000 1.0
C      1  0.5670540000000  0.5377930000000  0.5068270000000 1.0
C      1  0.4329460000000  0.5377930000000  0.4931730000000 1.0
C      1  0.5377930000000  0.5068270000000  0.5670540000000 1.0
C      1  0.5377930000000  0.4931730000000  0.4329460000000 1.0
C      1  0.4622070000000  0.4931730000000  0.5670540000000 1.0
C      1  0.4931730000000  0.4329460000000  0.5377930000000 1.0
C      1  0.4931730000000  0.5670540000000  0.4622070000000 1.0
C      1  0.5068270000000  0.5670540000000  0.5377930000000 1.0
C      1  0.4329460000000  0.5377930000000  0.5068270000000 1.0
C      1  0.4622070000000  0.4931730000000  0.4329460000000 1.0
C      1  0.5068270000000  0.5670540000000  0.4622070000000 1.0
C      1  0.5670540000000  0.5377930000000  0.4931730000000 1.0
C      1  0.5670540000000  0.4622070000000  0.5068270000000 1.0
C      1  0.4329460000000  0.4622070000000  0.4931730000000 1.0
C      1  0.5377930000000  0.4931730000000  0.5670540000000 1.0
C      1  0.5377930000000  0.5068270000000  0.4329460000000 1.0
C      1  0.4622070000000  0.5068270000000  0.5670540000000 1.0
C      1  0.4931730000000  0.5670540000000  0.5377930000000 1.0
C      1  0.4931730000000  0.4329460000000  0.4622070000000 1.0
C      1  0.5068270000000  0.4329460000000  0.5377930000000 1.0
C      1  0.4833090000000  0.5072770000000  0.5854470000000 1.0
C      1  0.5072770000000  0.5854470000000  0.4833090000000 1.0
C      1  0.5854470000000  0.4833090000000  0.5072770000000 1.0
C      1  0.5166910000000  0.5072770000000  0.4145530000000 1.0
C      1  0.5166910000000  0.4927230000000  0.5854470000000 1.0
C      1  0.4833090000000  0.4927230000000  0.4145530000000 1.0
C      1  0.4927230000000  0.5854470000000  0.5166910000000 1.0
C      1  0.4927230000000  0.4145530000000  0.4833090000000 1.0
C      1  0.5072770000000  0.4145530000000  0.5166910000000 1.0
C      1  0.4145530000000  0.4833090000000  0.4927230000000 1.0
C      1  0.4145530000000  0.5166910000000  0.5072770000000 1.0
C      1  0.5854470000000  0.5166910000000  0.4927230000000 1.0
C      1  0.4833090000000  0.4927230000000  0.5854470000000 1.0
C      1  0.5072770000000  0.4145530000000  0.4833090000000 1.0
C      1  0.5854470000000  0.5166910000000  0.5072770000000 1.0
C      1  0.5166910000000  0.4927230000000  0.4145530000000 1.0
C      1  0.5166910000000  0.5072770000000  0.5854470000000 1.0
C      1  0.4833090000000  0.5072770000000  0.4145530000000 1.0
C      1  0.4927230000000  0.4145530000000  0.5166910000000 1.0
C      1  0.4927230000000  0.5854470000000  0.4833090000000 1.0
C      1  0.5072770000000  0.5854470000000  0.5166910000000 1.0
C      1  0.4145530000000  0.5166910000000  0.4927230000000 1.0
C      1  0.4145530000000  0.4833090000000  0.5072770000000 1.0
C      1  0.5854470000000  0.4833090000000  0.4927230000000 1.0
C      1  0.4685280000000  0.5079290000000  0.4471310000000 1.0
C      1  0.5079290000000  0.4471310000000  0.4685280000000 1.0
C      1  0.4471310000000  0.4685280000000  0.5079290000000 1.0
C      1  0.5314720000000  0.5079290000000  0.5528690000000 1.0
C      1  0.5314720000000  0.4920710000000  0.4471310000000 1.0
C      1  0.4685280000000  0.4920710000000  0.5528690000000 1.0
C      1  0.4920710000000  0.4471310000000  0.5314720000000 1.0
C      1  0.4920710000000  0.5528690000000  0.4685280000000 1.0
C      1  0.5079290000000  0.5528690000000  0.5314720000000 1.0
C      1  0.5528690000000  0.4685280000000  0.4920710000000 1.0
C      1  0.5528690000000  0.5314720000000  0.5079290000000 1.0
C      1  0.4471310000000  0.5314720000000  0.4920710000000 1.0
C      1  0.4685280000000  0.4920710000000  0.4471310000000 1.0
C      1  0.5079290000000  0.5528690000000  0.4685280000000 1.0
C      1  0.4471310000000  0.5314720000000  0.5079290000000 1.0
C      1  0.5314720000000  0.4920710000000  0.5528690000000 1.0
C      1  0.5314720000000  0.5079290000000  0.4471310000000 1.0
C      1  0.4685280000000  0.5079290000000  0.5528690000000 1.0
C      1  0.4920710000000  0.5528690000000  0.5314720000000 1.0
C      1  0.4920710000000  0.4471310000000  0.4685280000000 1.0
C      1  0.5079290000000  0.4471310000000  0.5314720000000 1.0
C      1  0.5528690000000  0.5314720000000  0.4920710000000 1.0
C      1  0.5528690000000  0.4685280000000  0.5079290000000 1.0
C      1  0.4471310000000  0.4685280000000  0.4920710000000 1.0
C      1  0.4537950000000  0.4596360000000  0.4814730000000 1.0
C      1  0.4596360000000  0.4814730000000  0.4537950000000 1.0
C      1  0.4814730000000  0.4537950000000  0.4596360000000 1.0
C      1  0.5462050000000  0.4596360000000  0.5185270000000 1.0
C      1  0.5462050000000  0.5403640000000  0.4814730000000 1.0
C      1  0.4537950000000  0.5403640000000  0.5185270000000 1.0
C      1  0.5403640000000  0.4814730000000  0.5462050000000 1.0
C      1  0.5403640000000  0.5185270000000  0.4537950000000 1.0
C      1  0.4596360000000  0.5185270000000  0.5462050000000 1.0
C      1  0.5185270000000  0.4537950000000  0.5403640000000 1.0
C      1  0.5185270000000  0.5462050000000  0.4596360000000 1.0
C      1  0.4814730000000  0.5462050000000  0.5403640000000 1.0
C      1  0.4537950000000  0.5403640000000  0.4814730000000 1.0
C      1  0.4596360000000  0.5185270000000  0.4537950000000 1.0
C      1  0.4814730000000  0.5462050000000  0.4596360000000 1.0
C      1  0.5462050000000  0.5403640000000  0.5185270000000 1.0
C      1  0.5462050000000  0.4596360000000  0.4814730000000 1.0
C      1  0.4537950000000  0.4596360000000  0.5185270000000 1.0
C      1  0.5403640000000  0.5185270000000  0.5462050000000 1.0
C      1  0.5403640000000  0.4814730000000  0.4537950000000 1.0
C      1  0.4596360000000  0.4814730000000  0.5462050000000 1.0
C      1  0.5185270000000  0.5462050000000  0.5403640000000 1.0
C      1  0.5185270000000  0.4537950000000  0.4596360000000 1.0
C      1  0.4814730000000  0.4537950000000  0.5403640000000 1.0
C      1  0.4594010000000  0.4334200000000  0.4931010000000 1.0
C      1  0.4334200000000  0.4931010000000  0.4594010000000 1.0
C      1  0.4931010000000  0.4594010000000  0.4334200000000 1.0
C      1  0.5405990000000  0.4334200000000  0.5068990000000 1.0
C      1  0.5405990000000  0.5665800000000  0.4931010000000 1.0
C      1  0.4594010000000  0.5665800000000  0.5068990000000 1.0
C      1  0.5665800000000  0.4931010000000  0.5405990000000 1.0
C      1  0.5665800000000  0.5068990000000  0.4594010000000 1.0
C      1  0.4334200000000  0.5068990000000  0.5405990000000 1.0
C      1  0.5068990000000  0.4594010000000  0.5665800000000 1.0
C      1  0.5068990000000  0.5405990000000  0.4334200000000 1.0
C      1  0.4931010000000  0.5405990000000  0.5665800000000 1.0
C      1  0.4594010000000  0.5665800000000  0.4931010000000 1.0
C      1  0.4334200000000  0.5068990000000  0.4594010000000 1.0
C      1  0.4931010000000  0.5405990000000  0.4334200000000 1.0
C      1  0.5405990000000  0.5665800000000  0.5068990000000 1.0
C      1  0.5405990000000  0.4334200000000  0.4931010000000 1.0
C      1  0.4594010000000  0.4334200000000  0.5068990000000 1.0
C      1  0.5665800000000  0.5068990000000  0.5405990000000 1.0
C      1  0.5665800000000  0.4931010000000  0.4594010000000 1.0
C      1  0.4334200000000  0.4931010000000  0.5405990000000 1.0
C      1  0.5068990000000  0.5405990000000  0.5665800000000 1.0
C      1  0.5068990000000  0.4594010000000  0.4334200000000 1.0
C      1  0.4931010000000  0.4594010000000  0.5665800000000 1.0
C      1  0.4253200000000  0.4816900000000  0.5423530000000 1.0
C      1  0.4816900000000  0.5423530000000  0.4253200000000 1.0
C      1  0.5423530000000  0.4253200000000  0.4816900000000 1.0
C      1  0.5746800000000  0.4816900000000  0.4576470000000 1.0
C      1  0.5746800000000  0.5183100000000  0.5423530000000 1.0
C      1  0.4253200000000  0.5183100000000  0.4576470000000 1.0
C      1  0.5183100000000  0.5423530000000  0.5746800000000 1.0
C      1  0.5183100000000  0.4576470000000  0.4253200000000 1.0
C      1  0.4816900000000  0.4576470000000  0.5746800000000 1.0
C      1  0.4576470000000  0.4253200000000  0.5183100000000 1.0
C      1  0.4576470000000  0.5746800000000  0.4816900000000 1.0
C      1  0.5423530000000  0.5746800000000  0.5183100000000 1.0
C      1  0.4253200000000  0.5183100000000  0.5423530000000 1.0
C      1  0.4816900000000  0.4576470000000  0.4253200000000 1.0
C      1  0.5423530000000  0.5746800000000  0.4816900000000 1.0
C      1  0.5746800000000  0.5183100000000  0.4576470000000 1.0
C      1  0.5746800000000  0.4816900000000  0.5423530000000 1.0
C      1  0.4253200000000  0.4816900000000  0.4576470000000 1.0
C      1  0.5183100000000  0.4576470000000  0.5746800000000 1.0
C      1  0.5183100000000  0.5423530000000  0.4253200000000 1.0
C      1  0.4816900000000  0.5423530000000  0.5746800000000 1.0
C      1  0.4576470000000  0.5746800000000  0.5183100000000 1.0
C      1  0.4576470000000  0.4253200000000  0.4816900000000 1.0
C      1  0.5423530000000  0.4253200000000  0.5183100000000 1.0
C      1  0.4929690000000  0.4454770000000  0.5162310000000 1.0
C      1  0.4454770000000  0.5162310000000  0.4929690000000 1.0
C      1  0.5162310000000  0.4929690000000  0.4454770000000 1.0
C      1  0.5070310000000  0.4454770000000  0.4837690000000 1.0
C      1  0.5070310000000  0.5545230000000  0.5162310000000 1.0
C      1  0.4929690000000  0.5545230000000  0.4837690000000 1.0
C      1  0.5545230000000  0.5162310000000  0.5070310000000 1.0
C      1  0.5545230000000  0.4837690000000  0.4929690000000 1.0
C      1  0.4454770000000  0.4837690000000  0.5070310000000 1.0
C      1  0.4837690000000  0.4929690000000  0.5545230000000 1.0
C      1  0.4837690000000  0.5070310000000  0.4454770000000 1.0
C      1  0.5162310000000  0.5070310000000  0.5545230000000 1.0
C      1  0.4929690000000  0.5545230000000  0.5162310000000 1.0
C      1  0.4454770000000  0.4837690000000  0.4929690000000 1.0
C      1  0.5162310000000  0.5070310000000  0.4454770000000 1.0
C      1  0.5070310000000  0.5545230000000  0.4837690000000 1.0
C      1  0.5070310000000  0.4454770000000  0.5162310000000 1.0
C      1  0.4929690000000  0.4454770000000  0.4837690000000 1.0
C      1  0.5545230000000  0.4837690000000  0.5070310000000 1.0
C      1  0.5545230000000  0.5162310000000  0.4929690000000 1.0
C      1  0.4454770000000  0.5162310000000  0.5070310000000 1.0
C      1  0.4837690000000  0.5070310000000  0.5545230000000 1.0
C      1  0.4837690000000  0.4929690000000  0.4454770000000 1.0
C      1  0.5162310000000  0.4929690000000  0.5545230000000 1.0
C      1  0.5000000000000  0.4078490000000  0.5068730000000 1.0
C      1  0.4078490000000  0.5068730000000  0.5000000000000 1.0
C      1  0.5068730000000  0.5000000000000  0.4078490000000 1.0
C      1  0.5000000000000  0.4078490000000  0.4931270000000 1.0
C      1  0.5000000000000  0.5921510000000  0.5068730000000 1.0
C      1  0.5000000000000  0.5921510000000  0.4931270000000 1.0
C      1  0.5921510000000  0.5068730000000  0.5000000000000 1.0
C      1  0.5921510000000  0.4931270000000  0.5000000000000 1.0
C      1  0.4078490000000  0.4931270000000  0.5000000000000 1.0
C      1  0.4931270000000  0.5000000000000  0.5921510000000 1.0
C      1  0.4931270000000  0.5000000000000  0.4078490000000 1.0
C      1  0.5068730000000  0.5000000000000  0.5921510000000 1.0
END
