TITL C-1379266-1300-410 -1.48224362390387e-07 1000000 -3631.96369147727 0 0 520 (C1) n - 1
REM
REM in /nfs/bkarasulu/CARBON/AIRSS/Generating-Clusters/GAP-ML-2020/Higher-Symm/Selected-Sizes/TryA-Only_Ih-Symm/Larger-Clusters/Try2-MINAMP_6A
REM
REM
REM
REM
REM
REM ./C.cell (31579ac4e95a012ec27f3239692ae8a5)
REM
REM compiler GCC version 9.2.1 20190827 (Red Hat 9.2.1-1)
REM options -cpp -mtune=generic -march=x86-64 -g -O0 -fpre-include=/usr/include/finclude/math-vector-fortran.h
REM seed 1113131246 -1112710465 -2100873690 1091624695 869670377 1994422963 1558626112 1765964747 1443533058 103298275 -1964051549 -1249264191 -2108510315 1608236578 -27644437 -1175512431 1686090218 -1619893349 -200619779 -1011768441 -189311306 1158148332 -576221009 -657040690 -193822499 1535718158 1165969177 -144405380 696201691 1839020486 1386919671 -1823158169 1798250312
REM
CELL 1.54180  100.00000  100.00000  100.00000   90.00000   90.00000   90.00000
LATT -1
SFAC C  
C      1  0.5555820000000  0.4498720000000  0.5133840000000 1.0
C      1  0.5077880000000  0.5576750000000  0.4533530000000 1.0
C      1  0.4557890000000  0.5102090000000  0.5552300000000 1.0
C      1  0.5567380000000  0.5456570000000  0.4914720000000 1.0
C      1  0.4451960000000  0.5473650000000  0.5103160000000 1.0
C      1  0.4438990000000  0.4543000000000  0.4914530000000 1.0
C      1  0.5052280000000  0.4432280000000  0.5474800000000 1.0
C      1  0.4930300000000  0.4426090000000  0.4535030000000 1.0
C      1  0.4955620000000  0.5576630000000  0.5475170000000 1.0
C      1  0.4542580000000  0.4911730000000  0.4437570000000 1.0
C      1  0.5446410000000  0.4888420000000  0.5552550000000 1.0
C      1  0.5464270000000  0.5099430000000  0.4425410000000 1.0
C      1  0.5576760000000  0.5135940000000  0.4504910000000 1.0
C      1  0.5054560000000  0.4541270000000  0.5574840000000 1.0
C      1  0.4564820000000  0.5568930000000  0.5096010000000 1.0
C      1  0.5556390000000  0.4906620000000  0.5457900000000 1.0
C      1  0.4446220000000  0.5088640000000  0.5460530000000 1.0
C      1  0.4438370000000  0.4898880000000  0.4539320000000 1.0
C      1  0.5074070000000  0.5473710000000  0.4431580000000 1.0
C      1  0.4930170000000  0.4530910000000  0.4425170000000 1.0
C      1  0.4956070000000  0.5466800000000  0.5575750000000 1.0
C      1  0.4545750000000  0.4447070000000  0.4895780000000 1.0
C      1  0.5461610000000  0.5555180000000  0.4894770000000 1.0
C      1  0.5439130000000  0.4426960000000  0.5090120000000 1.0
C      1  0.4964690000000  0.5765480000000  0.4763270000000 1.0
C      1  0.4752720000000  0.4972220000000  0.5769270000000 1.0
C      1  0.5768530000000  0.4743390000000  0.4961940000000 1.0
C      1  0.4939440000000  0.4223920000000  0.5230260000000 1.0
C      1  0.5038260000000  0.4234670000000  0.4751510000000 1.0
C      1  0.5062720000000  0.5774260000000  0.5235740000000 1.0
C      1  0.4758270000000  0.5032290000000  0.4223830000000 1.0
C      1  0.5234900000000  0.5017260000000  0.5766930000000 1.0
C      1  0.5237700000000  0.4977960000000  0.4227840000000 1.0
C      1  0.5774770000000  0.5230350000000  0.5038230000000 1.0
C      1  0.4236540000000  0.5245610000000  0.4967300000000 1.0
C      1  0.4222970000000  0.4763710000000  0.5042930000000 1.0
C      1  0.4932820000000  0.4763070000000  0.5766910000000 1.0
C      1  0.4782600000000  0.5773180000000  0.4965510000000 1.0
C      1  0.5773660000000  0.4956430000000  0.4751530000000 1.0
C      1  0.4955780000000  0.5239330000000  0.4220830000000 1.0
C      1  0.5038050000000  0.4750540000000  0.4216880000000 1.0
C      1  0.5048160000000  0.5230110000000  0.5763560000000 1.0
C      1  0.4740900000000  0.4220180000000  0.5018380000000 1.0
C      1  0.5263190000000  0.5780920000000  0.5021560000000 1.0
C      1  0.5223590000000  0.4235140000000  0.4962680000000 1.0
C      1  0.5770860000000  0.5028900000000  0.5238080000000 1.0
C      1  0.4226760000000  0.4965880000000  0.5243590000000 1.0
C      1  0.4229680000000  0.5043460000000  0.4762860000000 1.0
C      1  0.4993840000000  0.4894030000000  0.4237320000000 1.0
C      1  0.4186630000000  0.5013170000000  0.4897840000000 1.0
C      1  0.4882950000000  0.4247730000000  0.4980760000000 1.0
C      1  0.4991880000000  0.5088770000000  0.5729340000000 1.0
C      1  0.4988300000000  0.5103670000000  0.4187530000000 1.0
C      1  0.4983760000000  0.4892090000000  0.5795550000000 1.0
C      1  0.4247760000000  0.5012180000000  0.5100050000000 1.0
C      1  0.5813160000000  0.4980690000000  0.4889420000000 1.0
C      1  0.5753190000000  0.4981750000000  0.5093180000000 1.0
C      1  0.4916920000000  0.5815820000000  0.4989180000000 1.0
C      1  0.5121190000000  0.5754640000000  0.4984750000000 1.0
C      1  0.5088300000000  0.4190270000000  0.4984130000000 1.0
C      1  0.4994030000000  0.4192790000000  0.4883300000000 1.0
C      1  0.4245020000000  0.4907820000000  0.4995330000000 1.0
C      1  0.4894030000000  0.5001030000000  0.4183910000000 1.0
C      1  0.5013350000000  0.5751000000000  0.5091200000000 1.0
C      1  0.4990010000000  0.4250930000000  0.5087160000000 1.0
C      1  0.5012640000000  0.5813000000000  0.4889700000000 1.0
C      1  0.4189930000000  0.5112040000000  0.4996780000000 1.0
C      1  0.5810910000000  0.4880110000000  0.4988520000000 1.0
C      1  0.5755070000000  0.5086070000000  0.4989420000000 1.0
C      1  0.4889580000000  0.4995490000000  0.5792590000000 1.0
C      1  0.5093360000000  0.4978100000000  0.5732510000000 1.0
C      1  0.5090530000000  0.5008040000000  0.4251890000000 1.0
C      1  0.4990050000000  0.4296350000000  0.5655070000000 1.0
C      1  0.5641980000000  0.5053930000000  0.4268010000000 1.0
C      1  0.4300890000000  0.5533540000000  0.4952630000000 1.0
C      1  0.4931260000000  0.5721580000000  0.4479100000000 1.0
C      1  0.5019990000000  0.5733730000000  0.5645200000000 1.0
C      1  0.5001780000000  0.4256150000000  0.4388420000000 1.0
C      1  0.5509490000000  0.5047280000000  0.5667910000000 1.0
C      1  0.4375270000000  0.4999120000000  0.4302180000000 1.0
C      1  0.4475580000000  0.4954920000000  0.5676000000000 1.0
C      1  0.4328220000000  0.4382510000000  0.5039660000000 1.0
C      1  0.5705570000000  0.4376330000000  0.5003010000000 1.0
C      1  0.5674080000000  0.5620510000000  0.5044010000000 1.0
C      1  0.4917290000000  0.5522280000000  0.4286410000000 1.0
C      1  0.5614260000000  0.4262730000000  0.5049790000000 1.0
C      1  0.4327320000000  0.4975070000000  0.5629040000000 1.0
C      1  0.4917550000000  0.4436450000000  0.5698680000000 1.0
C      1  0.5021400000000  0.5618830000000  0.5746890000000 1.0
C      1  0.4985380000000  0.4357960000000  0.4272720000000 1.0
C      1  0.5524860000000  0.5667150000000  0.5054770000000 1.0
C      1  0.4477590000000  0.4333050000000  0.5053430000000 1.0
C      1  0.4504230000000  0.5719100000000  0.4953660000000 1.0
C      1  0.4313910000000  0.5046400000000  0.4446930000000 1.0
C      1  0.5723960000000  0.5000640000000  0.4385550000000 1.0
C      1  0.5659720000000  0.5034000000000  0.5625140000000 1.0
C      1  0.5415760000000  0.5567790000000  0.4642200000000 1.0
C      1  0.4721540000000  0.5444290000000  0.5552000000000 1.0
C      1  0.5602360000000  0.4698150000000  0.5438720000000 1.0
C      1  0.5386160000000  0.4432440000000  0.5326570000000 1.0
C      1  0.4589030000000  0.4442790000000  0.4642140000000 1.0
C      1  0.4618020000000  0.5561850000000  0.5327110000000 1.0
C      1  0.4698160000000  0.4574180000000  0.4439430000000 1.0
C      1  0.5283120000000  0.4549850000000  0.5530120000000 1.0
C      1  0.5305660000000  0.5440100000000  0.4434160000000 1.0
C      1  0.5521210000000  0.5358630000000  0.4532080000000 1.0
C      1  0.4403880000000  0.5296720000000  0.5436230000000 1.0
C      1  0.4483840000000  0.4660410000000  0.4542410000000 1.0
C      1  0.5393140000000  0.4641860000000  0.5561140000000 1.0
C      1  0.4723830000000  0.5558710000000  0.5439790000000 1.0
C      1  0.5618080000000  0.5438940000000  0.4706650000000 1.0
C      1  0.5415880000000  0.5337580000000  0.4434470000000 1.0
C      1  0.4588610000000  0.4677840000000  0.4444020000000 1.0
C      1  0.4605780000000  0.5349510000000  0.5544590000000 1.0
C      1  0.4696660000000  0.4471270000000  0.4546440000000 1.0
C      1  0.5308710000000  0.5537160000000  0.4546210000000 1.0
C      1  0.5280620000000  0.4441760000000  0.5432200000000 1.0
C      1  0.5494640000000  0.4529000000000  0.5351890000000 1.0
C      1  0.4508650000000  0.5465750000000  0.5339140000000 1.0
C      1  0.4390210000000  0.4567760000000  0.4707630000000 1.0
C      1  0.5376660000000  0.5310610000000  0.4281490000000 1.0
C      1  0.4259310000000  0.5355950000000  0.5297470000000 1.0
C      1  0.5251810000000  0.4282690000000  0.5394550000000 1.0
C      1  0.5387820000000  0.4670900000000  0.5717290000000 1.0
C      1  0.4620000000000  0.4702660000000  0.4288580000000 1.0
C      1  0.4635340000000  0.5313070000000  0.5698220000000 1.0
C      1  0.4252290000000  0.4589370000000  0.4718820000000 1.0
C      1  0.5770460000000  0.4653850000000  0.5299880000000 1.0
C      1  0.5755560000000  0.5417980000000  0.4726910000000 1.0
C      1  0.5287930000000  0.5765230000000  0.4618900000000 1.0
C      1  0.4745810000000  0.5714070000000  0.5401550000000 1.0
C      1  0.4711540000000  0.4245960000000  0.4625730000000 1.0
C      1  0.5368650000000  0.4276200000000  0.5316740000000 1.0
C      1  0.4265280000000  0.5288400000000  0.5418660000000 1.0
C      1  0.5294420000000  0.5426720000000  0.4272910000000 1.0
C      1  0.5413470000000  0.5723510000000  0.4671100000000 1.0
C      1  0.4587220000000  0.4285650000000  0.4671030000000 1.0
C      1  0.4631530000000  0.5720110000000  0.5318760000000 1.0
C      1  0.4241240000000  0.4713170000000  0.4654200000000 1.0
C      1  0.5785290000000  0.5294580000000  0.4665030000000 1.0
C      1  0.5740820000000  0.4715980000000  0.5422990000000 1.0
C      1  0.5262320000000  0.4620530000000  0.5757560000000 1.0
C      1  0.4723530000000  0.5424720000000  0.5707430000000 1.0
C      1  0.4697860000000  0.4584400000000  0.4281770000000 1.0
C      1  0.4437940000000  0.5011970000000  0.4894170000000 1.0
C      1  0.4847320000000  0.4390760000000  0.4937320000000 1.0
C      1  0.4950570000000  0.4859560000000  0.4388680000000 1.0
C      1  0.4396520000000  0.5058200000000  0.5124270000000 1.0
C      1  0.5554910000000  0.4986980000000  0.4892570000000 1.0
C      1  0.5606480000000  0.4932370000000  0.5118680000000 1.0
C      1  0.4930750000000  0.5554690000000  0.4963820000000 1.0
C      1  0.5156760000000  0.5613770000000  0.4936850000000 1.0
C      1  0.5070210000000  0.4448550000000  0.4962760000000 1.0
C      1  0.4950680000000  0.5122470000000  0.5584030000000 1.0
C      1  0.5062690000000  0.5172160000000  0.4445700000000 1.0
C      1  0.5002910000000  0.4885380000000  0.5494980000000 1.0
C      1  0.4391970000000  0.4880350000000  0.4946240000000 1.0
C      1  0.4929620000000  0.4997820000000  0.4430680000000 1.0
C      1  0.4960130000000  0.4454040000000  0.4877120000000 1.0
C      1  0.4443010000000  0.5107370000000  0.4992010000000 1.0
C      1  0.5555310000000  0.4889780000000  0.4986830000000 1.0
C      1  0.5609450000000  0.5116290000000  0.4937540000000 1.0
C      1  0.4895860000000  0.5005910000000  0.5487210000000 1.0
C      1  0.5123630000000  0.4930690000000  0.5588350000000 1.0
C      1  0.5072590000000  0.5035770000000  0.4406350000000 1.0
C      1  0.4948210000000  0.5608150000000  0.5098500000000 1.0
C      1  0.5052640000000  0.4394290000000  0.5097120000000 1.0
C      1  0.5042410000000  0.5548230000000  0.4881400000000 1.0
C      1  0.4821830000000  0.4462730000000  0.4627180000000 1.0
C      1  0.4653030000000  0.4817030000000  0.4464370000000 1.0
C      1  0.4459390000000  0.4652040000000  0.4823010000000 1.0
C      1  0.4857540000000  0.5538350000000  0.5368340000000 1.0
C      1  0.5184390000000  0.5544750000000  0.4627280000000 1.0
C      1  0.5145250000000  0.4465090000000  0.5366620000000 1.0
C      1  0.4663180000000  0.5197670000000  0.5517450000000 1.0
C      1  0.5353280000000  0.5195780000000  0.4457160000000 1.0
C      1  0.5339150000000  0.4795160000000  0.5525170000000 1.0
C      1  0.4486720000000  0.5380640000000  0.5210860000000 1.0
C      1  0.5548620000000  0.5349930000000  0.4817410000000 1.0
C      1  0.5528060000000  0.4604360000000  0.5221740000000 1.0
C      1  0.4835000000000  0.4643220000000  0.4462540000000 1.0
C      1  0.4649310000000  0.4472620000000  0.4798160000000 1.0
C      1  0.4471380000000  0.4790960000000  0.4629300000000 1.0
C      1  0.4853250000000  0.5362100000000  0.5527140000000 1.0
C      1  0.5157590000000  0.4634710000000  0.5535130000000 1.0
C      1  0.5174000000000  0.5371190000000  0.4463790000000 1.0
C      1  0.4684070000000  0.5535040000000  0.5185730000000 1.0
C      1  0.5317870000000  0.4460220000000  0.5183400000000 1.0
C      1  0.5357190000000  0.5532620000000  0.4798100000000 1.0
C      1  0.4470850000000  0.5180700000000  0.5351920000000 1.0
C      1  0.5539820000000  0.4811650000000  0.5348920000000 1.0
C      1  0.5545380000000  0.5224420000000  0.4609550000000 1.0
C      1  0.4688710000000  0.4473630000000  0.5118820000000 1.0
C      1  0.5137710000000  0.4691510000000  0.4455270000000 1.0
C      1  0.4455030000000  0.5132860000000  0.4671420000000 1.0
C      1  0.4687840000000  0.5541380000000  0.4865640000000 1.0
C      1  0.5314810000000  0.5525430000000  0.5115280000000 1.0
C      1  0.5311830000000  0.4473910000000  0.4871050000000 1.0
C      1  0.5146210000000  0.5299830000000  0.5536440000000 1.0
C      1  0.4855720000000  0.5325680000000  0.4454260000000 1.0
C      1  0.4824350000000  0.4661060000000  0.5564140000000 1.0
C      1  0.4465060000000  0.4879950000000  0.5301980000000 1.0
C      1  0.5541390000000  0.4867520000000  0.4675270000000 1.0
C      1  0.5529760000000  0.5110700000000  0.5294350000000 1.0
C      1  0.4694040000000  0.5127200000000  0.4464000000000 1.0
C      1  0.5139070000000  0.4476240000000  0.4684790000000 1.0
C      1  0.4467570000000  0.4703930000000  0.5120240000000 1.0
C      1  0.4665590000000  0.4860800000000  0.5542140000000 1.0
C      1  0.5306290000000  0.5112210000000  0.5523620000000 1.0
C      1  0.5311110000000  0.4885120000000  0.4460080000000 1.0
C      1  0.5143190000000  0.5539170000000  0.5295300000000 1.0
C      1  0.4855800000000  0.4454410000000  0.5304810000000 1.0
C      1  0.4857930000000  0.5542560000000  0.4674190000000 1.0
C      1  0.4461070000000  0.5330750000000  0.4873690000000 1.0
C      1  0.5541660000000  0.4673920000000  0.4861640000000 1.0
C      1  0.5532550000000  0.5292360000000  0.5115610000000 1.0
C      1  0.4195230000000  0.4822150000000  0.4581940000000 1.0
C      1  0.4559470000000  0.4226230000000  0.4799550000000 1.0
C      1  0.4830900000000  0.4567510000000  0.4221310000000 1.0
C      1  0.4230420000000  0.5145650000000  0.5436860000000 1.0
C      1  0.5848430000000  0.5186210000000  0.4617720000000 1.0
C      1  0.5768620000000  0.4859930000000  0.5439150000000 1.0
C      1  0.4622390000000  0.5783820000000  0.5189350000000 1.0
C      1  0.5442970000000  0.5779990000000  0.4801000000000 1.0
C      1  0.5386230000000  0.4223310000000  0.5180350000000 1.0
C      1  0.4852470000000  0.5421000000000  0.5774000000000 1.0
C      1  0.5169420000000  0.5432230000000  0.4207140000000 1.0
C      1  0.5178690000000  0.4523190000000  0.5794640000000 1.0
C      1  0.4221630000000  0.4569280000000  0.4864040000000 1.0
C      1  0.4567570000000  0.4830780000000  0.4221910000000 1.0
C      1  0.4819880000000  0.4192420000000  0.4565160000000 1.0
C      1  0.4204530000000  0.5423960000000  0.5188650000000 1.0
C      1  0.5834580000000  0.4605890000000  0.5192420000000 1.0
C      1  0.5780930000000  0.5432510000000  0.4871320000000 1.0
C      1  0.4579860000000  0.5201740000000  0.5777370000000 1.0
C      1  0.5413360000000  0.4799870000000  0.5774120000000 1.0
C      1  0.5423860000000  0.5183680000000  0.4208880000000 1.0
C      1  0.4870370000000  0.5790860000000  0.5439490000000 1.0
C      1  0.5124770000000  0.4212740000000  0.5440130000000 1.0
C      1  0.5201940000000  0.5804930000000  0.4523200000000 1.0
C      1  0.4722750000000  0.4638200000000  0.5456510000000 1.0
C      1  0.5445650000000  0.4757050000000  0.4650520000000 1.0
C      1  0.4646700000000  0.5456250000000  0.4746160000000 1.0
C      1  0.4739320000000  0.5355270000000  0.4541970000000 1.0
C      1  0.5251180000000  0.5331090000000  0.5433080000000 1.0
C      1  0.5251720000000  0.4662410000000  0.4548300000000 1.0
C      1  0.5435220000000  0.5222460000000  0.5323350000000 1.0
C      1  0.4550220000000  0.5249670000000  0.4652890000000 1.0
C      1  0.4549520000000  0.4760080000000  0.5336990000000 1.0
C      1  0.4654170000000  0.4561780000000  0.5235670000000 1.0
C      1  0.5351740000000  0.4555050000000  0.4747780000000 1.0
C      1  0.5341170000000  0.5427710000000  0.5226370000000 1.0
C      1  0.4737020000000  0.5458930000000  0.4640680000000 1.0
C      1  0.5449310000000  0.4655630000000  0.4745940000000 1.0
C      1  0.4631840000000  0.4744730000000  0.5451560000000 1.0
C      1  0.4741910000000  0.4549870000000  0.5341830000000 1.0
C      1  0.5247250000000  0.5432240000000  0.5326960000000 1.0
C      1  0.5257750000000  0.4557560000000  0.4645990000000 1.0
C      1  0.5436320000000  0.5321230000000  0.5225940000000 1.0
C      1  0.4556580000000  0.4666850000000  0.5235010000000 1.0
C      1  0.4549880000000  0.5351690000000  0.4752010000000 1.0
C      1  0.4652070000000  0.5247530000000  0.4551060000000 1.0
C      1  0.5343540000000  0.4766330000000  0.4551290000000 1.0
C      1  0.5340260000000  0.5225680000000  0.5429140000000 1.0
C      1  0.4296630000000  0.5193250000000  0.4159150000000 1.0
C      1  0.4252090000000  0.4311020000000  0.5267120000000 1.0
C      1  0.5170020000000  0.4097180000000  0.4277120000000 1.0
C      1  0.4465540000000  0.4727270000000  0.5775780000000 1.0
C      1  0.5792830000000  0.4974850000000  0.4077570000000 1.0
C      1  0.5501770000000  0.5278660000000  0.5750760000000 1.0
C      1  0.4172240000000  0.5685610000000  0.4782950000000 1.0
C      1  0.5752350000000  0.5707300000000  0.5264850000000 1.0
C      1  0.5893280000000  0.4240870000000  0.4897190000000 1.0
C      1  0.5189730000000  0.5885550000000  0.5757110000000 1.0
C      1  0.4752170000000  0.5844720000000  0.4334360000000 1.0
C      1  0.4919020000000  0.4153910000000  0.5852130000000 1.0
C      1  0.4482380000000  0.4248490000000  0.5283130000000 1.0
C      1  0.4190340000000  0.5248290000000  0.4359770000000 1.0
C      1  0.5140640000000  0.4249190000000  0.4101050000000 1.0
C      1  0.4354600000000  0.5846240000000  0.4782730000000 1.0
C      1  0.5756920000000  0.4065610000000  0.4972400000000 1.0
C      1  0.5525940000000  0.5764840000000  0.5277250000000 1.0
C      1  0.4237370000000  0.4755150000000  0.5710160000000 1.0
C      1  0.5733940000000  0.5262190000000  0.5697760000000 1.0
C      1  0.5913770000000  0.4886800000000  0.4258770000000 1.0
C      1  0.5192540000000  0.5709980000000  0.5909990000000 1.0
C      1  0.4767180000000  0.4330600000000  0.5877490000000 1.0
C      1  0.4736050000000  0.5668750000000  0.4169500000000 1.0
C      1  0.4598280000000  0.4921910000000  0.4801020000000 1.0
C      1  0.4826100000000  0.4611650000000  0.4928180000000 1.0
C      1  0.4943620000000  0.4827300000000  0.4607090000000 1.0
C      1  0.4612470000000  0.5081990000000  0.5171820000000 1.0
C      1  0.5406230000000  0.5085350000000  0.4788200000000 1.0
C      1  0.5393170000000  0.4908390000000  0.5166030000000 1.0
C      1  0.4840170000000  0.5388190000000  0.5060930000000 1.0
C      1  0.5177580000000  0.5392030000000  0.4923730000000 1.0
C      1  0.5159900000000  0.4617810000000  0.5070570000000 1.0
C      1  0.4963050000000  0.5188430000000  0.5373510000000 1.0
C      1  0.5069950000000  0.5189740000000  0.4592190000000 1.0
C      1  0.5078120000000  0.4841230000000  0.5381750000000 1.0
C      1  0.4607350000000  0.4831850000000  0.4918940000000 1.0
C      1  0.4839930000000  0.4932880000000  0.4601550000000 1.0
C      1  0.4940050000000  0.4588100000000  0.4821860000000 1.0
C      1  0.4603290000000  0.5199750000000  0.5082630000000 1.0
C      1  0.5401870000000  0.4788500000000  0.5078890000000 1.0
C      1  0.5396070000000  0.5171570000000  0.4908050000000 1.0
C      1  0.4858010000000  0.5091250000000  0.5378220000000 1.0
C      1  0.5186900000000  0.4933890000000  0.5377170000000 1.0
C      1  0.5171960000000  0.5078980000000  0.4602870000000 1.0
C      1  0.4952640000000  0.5399210000000  0.5158750000000 1.0
C      1  0.5049470000000  0.4605450000000  0.5169080000000 1.0
C      1  0.5061780000000  0.5421540000000  0.4815490000000 1.0
C      1  0.5050130000000  0.4532100000000  0.5726860000000 1.0
C      1  0.5666840000000  0.5023630000000  0.4523400000000 1.0
C      1  0.4549670000000  0.5717320000000  0.5091890000000 1.0
C      1  0.5056840000000  0.5475020000000  0.4280470000000 1.0
C      1  0.4941570000000  0.5508670000000  0.5714620000000 1.0
C      1  0.4908560000000  0.4474780000000  0.4293320000000 1.0
C      1  0.5681880000000  0.4928750000000  0.5528290000000 1.0
C      1  0.4293120000000  0.4920010000000  0.4530810000000 1.0
C      1  0.4315950000000  0.5076030000000  0.5527240000000 1.0
C      1  0.4522480000000  0.4303370000000  0.4911900000000 1.0
C      1  0.5489380000000  0.4290000000000  0.5110230000000 1.0
C      1  0.5482100000000  0.5699490000000  0.4912040000000 1.0
C      1  0.5072550000000  0.5734160000000  0.4533760000000 1.0
C      1  0.5652850000000  0.4515950000000  0.5025670000000 1.0
C      1  0.4538070000000  0.5092810000000  0.5697680000000 1.0
C      1  0.5062330000000  0.4297490000000  0.5534240000000 1.0
C      1  0.4941310000000  0.5713180000000  0.5530840000000 1.0
C      1  0.4922130000000  0.4281900000000  0.4508550000000 1.0
C      1  0.5695140000000  0.5522690000000  0.4939560000000 1.0
C      1  0.4309530000000  0.4478720000000  0.4932500000000 1.0
C      1  0.4298330000000  0.5477840000000  0.5090280000000 1.0
C      1  0.4477360000000  0.4900090000000  0.4306590000000 1.0
C      1  0.5516910000000  0.5115590000000  0.4288040000000 1.0
C      1  0.5460050000000  0.4907480000000  0.5697110000000 1.0
C      1  0.5089140000000  0.4155220000000  0.4358240000000 1.0
C      1  0.4350490000000  0.5083540000000  0.4201020000000 1.0
C      1  0.4249360000000  0.4360550000000  0.5146890000000 1.0
C      1  0.5102780000000  0.5838860000000  0.5676330000000 1.0
C      1  0.4844600000000  0.5787210000000  0.4407000000000 1.0
C      1  0.4977910000000  0.4198630000000  0.5747460000000 1.0
C      1  0.4541750000000  0.4833180000000  0.5744930000000 1.0
C      1  0.5697560000000  0.5026290000000  0.4144520000000 1.0
C      1  0.5433230000000  0.5165460000000  0.5726280000000 1.0
C      1  0.4231810000000  0.5608150000000  0.4871000000000 1.0
C      1  0.5751990000000  0.5648600000000  0.5149860000000 1.0
C      1  0.5817740000000  0.4336180000000  0.4937970000000 1.0
C      1  0.5058080000000  0.4326090000000  0.4161410000000 1.0
C      1  0.4552750000000  0.4271410000000  0.5170420000000 1.0
C      1  0.4219810000000  0.5157030000000  0.4443530000000 1.0
C      1  0.5106710000000  0.5634690000000  0.5852800000000 1.0
C      1  0.4812100000000  0.4414620000000  0.5791820000000 1.0
C      1  0.4830070000000  0.5595080000000  0.4223570000000 1.0
C      1  0.4429830000000  0.5787720000000  0.4871500000000 1.0
C      1  0.5663230000000  0.4136670000000  0.5021120000000 1.0
C      1  0.5450450000000  0.5730350000000  0.5171400000000 1.0
C      1  0.4244320000000  0.4872970000000  0.5656820000000 1.0
C      1  0.5736870000000  0.5141520000000  0.5650010000000 1.0
C      1  0.5834500000000  0.4930490000000  0.4349890000000 1.0
C      1  0.5144680000000  0.4600260000000  0.5290500000000 1.0
C      1  0.5285980000000  0.5188560000000  0.4591960000000 1.0
C      1  0.4619840000000  0.5301720000000  0.5190260000000 1.0
C      1  0.5170710000000  0.5411050000000  0.4706720000000 1.0
C      1  0.4861430000000  0.5406430000000  0.5282920000000 1.0
C      1  0.4837040000000  0.4598560000000  0.4706460000000 1.0
C      1  0.5283160000000  0.4814890000000  0.5389770000000 1.0
C      1  0.4724460000000  0.4824400000000  0.4597460000000 1.0
C      1  0.4739050000000  0.5185170000000  0.5388700000000 1.0
C      1  0.4605980000000  0.4709830000000  0.4821070000000 1.0
C      1  0.5392350000000  0.4688630000000  0.5190250000000 1.0
C      1  0.5401790000000  0.5295720000000  0.4813520000000 1.0
C      1  0.5172040000000  0.5303040000000  0.4601290000000 1.0
C      1  0.5268500000000  0.4600380000000  0.5180610000000 1.0
C      1  0.4618500000000  0.5182000000000  0.5292770000000 1.0
C      1  0.5153640000000  0.4710370000000  0.5394610000000 1.0
C      1  0.4859200000000  0.5299820000000  0.5387690000000 1.0
C      1  0.4841850000000  0.4710020000000  0.4601230000000 1.0
C      1  0.5286540000000  0.5400270000000  0.4815320000000 1.0
C      1  0.4719960000000  0.4605680000000  0.4817780000000 1.0
C      1  0.4737870000000  0.5397810000000  0.5177090000000 1.0
C      1  0.4609270000000  0.4812920000000  0.4699870000000 1.0
C      1  0.5404020000000  0.5195350000000  0.4687930000000 1.0
C      1  0.5396300000000  0.4811250000000  0.5289920000000 1.0
C      1  0.5159350000000  0.4954560000000  0.4509850000000 1.0
C      1  0.4519550000000  0.5222670000000  0.4973920000000 1.0
C      1  0.4940050000000  0.4502370000000  0.5156500000000 1.0
C      1  0.5174200000000  0.5041080000000  0.5485490000000 1.0
C      1  0.4843090000000  0.5067710000000  0.4527060000000 1.0
C      1  0.4798490000000  0.4899600000000  0.5503230000000 1.0
C      1  0.4511900000000  0.4844830000000  0.5042300000000 1.0
C      1  0.5476030000000  0.4778000000000  0.4963280000000 1.0
C      1  0.5491550000000  0.5152780000000  0.5032260000000 1.0
C      1  0.4909600000000  0.5421310000000  0.4787190000000 1.0
C      1  0.5061830000000  0.5500400000000  0.5149900000000 1.0
C      1  0.5091460000000  0.4601830000000  0.4802740000000 1.0
C      1  0.5169220000000  0.4555340000000  0.4930980000000 1.0
C      1  0.4513940000000  0.4959860000000  0.5159860000000 1.0
C      1  0.4929450000000  0.5200910000000  0.4531910000000 1.0
C      1  0.5181330000000  0.5498020000000  0.5039870000000 1.0
C      1  0.4822230000000  0.4505260000000  0.5045110000000 1.0
C      1  0.4827120000000  0.5457150000000  0.4923360000000 1.0
C      1  0.4512080000000  0.5028690000000  0.4777250000000 1.0
C      1  0.5478120000000  0.4967980000000  0.4778790000000 1.0
C      1  0.5490220000000  0.5030590000000  0.5152680000000 1.0
C      1  0.4889190000000  0.4793900000000  0.5519110000000 1.0
C      1  0.5064830000000  0.5161590000000  0.5485450000000 1.0
C      1  0.5055940000000  0.4827620000000  0.4507700000000 1.0
C      1  0.5309690000000  0.4899040000000  0.5740510000000 1.0
C      1  0.5761860000000  0.5299740000000  0.4919470000000 1.0
C      1  0.4951030000000  0.5770720000000  0.5317670000000 1.0
C      1  0.5306140000000  0.5098600000000  0.4230140000000 1.0
C      1  0.4685710000000  0.5096250000000  0.5744580000000 1.0
C      1  0.4692290000000  0.4908710000000  0.4232570000000 1.0
C      1  0.5741420000000  0.4638770000000  0.5073490000000 1.0
C      1  0.4240260000000  0.4695690000000  0.4924020000000 1.0
C      1  0.4268470000000  0.5325900000000  0.5085580000000 1.0
C      1  0.4926620000000  0.4244280000000  0.4663580000000 1.0
C      1  0.5048390000000  0.4230170000000  0.5316100000000 1.0
C      1  0.5071660000000  0.5746980000000  0.4679310000000 1.0
C      1  0.5339630000000  0.5754400000000  0.4900860000000 1.0
C      1  0.5754760000000  0.4909560000000  0.5305860000000 1.0
C      1  0.4929250000000  0.5299460000000  0.5749080000000 1.0
C      1  0.5263120000000  0.4244750000000  0.5096890000000 1.0
C      1  0.4732740000000  0.5751930000000  0.5097180000000 1.0
C      1  0.4664450000000  0.4248310000000  0.4898490000000 1.0
C      1  0.5752600000000  0.5069080000000  0.4648510000000 1.0
C      1  0.4258380000000  0.4926540000000  0.4679060000000 1.0
C      1  0.4248260000000  0.5085970000000  0.5309330000000 1.0
C      1  0.4914140000000  0.4685830000000  0.4234850000000 1.0
C      1  0.5075140000000  0.5322380000000  0.4248350000000 1.0
C      1  0.5040350000000  0.4678770000000  0.5741200000000 1.0
C      1  0.4560650000000  0.4468440000000  0.5046840000000 1.0
C      1  0.5070900000000  0.4565570000000  0.4460440000000 1.0
C      1  0.4448040000000  0.5069450000000  0.4535210000000 1.0
C      1  0.4559650000000  0.5568070000000  0.4940650000000 1.0
C      1  0.5444410000000  0.5532080000000  0.5046430000000 1.0
C      1  0.5433500000000  0.4473930000000  0.4950450000000 1.0
C      1  0.5090860000000  0.5432300000000  0.5529550000000 1.0
C      1  0.4917800000000  0.5464490000000  0.4433130000000 1.0
C      1  0.4899570000000  0.4532740000000  0.5564810000000 1.0
C      1  0.4466980000000  0.4948560000000  0.5425020000000 1.0
C      1  0.5553680000000  0.4926840000000  0.4545880000000 1.0
C      1  0.5523660000000  0.5044020000000  0.5419260000000 1.0
C      1  0.4570990000000  0.5054260000000  0.4464480000000 1.0
C      1  0.5069930000000  0.4473050000000  0.4562310000000 1.0
C      1  0.4472840000000  0.4580760000000  0.5051810000000 1.0
C      1  0.4551440000000  0.4947390000000  0.5539490000000 1.0
C      1  0.5433910000000  0.5040750000000  0.5529610000000 1.0
C      1  0.5441010000000  0.4958890000000  0.4470070000000 1.0
C      1  0.5089770000000  0.5533200000000  0.5430230000000 1.0
C      1  0.4912520000000  0.4456960000000  0.5437180000000 1.0
C      1  0.4923340000000  0.5573020000000  0.4539490000000 1.0
C      1  0.4445380000000  0.5470870000000  0.4940470000000 1.0
C      1  0.5549320000000  0.4544830000000  0.4923000000000 1.0
C      1  0.5530770000000  0.5418150000000  0.5050530000000 1.0
C      1  0.4313100000000  0.4847200000000  0.5256150000000 1.0
C      1  0.5245260000000  0.4331190000000  0.4850400000000 1.0
C      1  0.4839260000000  0.5251540000000  0.4311750000000 1.0
C      1  0.4315560000000  0.5164150000000  0.4744150000000 1.0
C      1  0.5683170000000  0.5146650000000  0.5250830000000 1.0
C      1  0.5687300000000  0.4837080000000  0.4741630000000 1.0
C      1  0.5299330000000  0.5697140000000  0.5151710000000 1.0
C      1  0.4755730000000  0.5680470000000  0.4850810000000 1.0
C      1  0.4704510000000  0.4301140000000  0.5149260000000 1.0
C      1  0.4803420000000  0.4740560000000  0.5697810000000 1.0
C      1  0.5163450000000  0.4747440000000  0.4306620000000 1.0
C      1  0.5175050000000  0.5246110000000  0.5685390000000 1.0
C      1  0.4320010000000  0.5260850000000  0.4844130000000 1.0
C      1  0.5255620000000  0.4852990000000  0.4310420000000 1.0
C      1  0.4816720000000  0.4305750000000  0.5244910000000 1.0
C      1  0.4312360000000  0.4749930000000  0.5158450000000 1.0
C      1  0.5685140000000  0.5244970000000  0.5153880000000 1.0
C      1  0.5685800000000  0.4737950000000  0.4838490000000 1.0
C      1  0.5283020000000  0.5145560000000  0.5691170000000 1.0
C      1  0.4693900000000  0.4841880000000  0.5705530000000 1.0
C      1  0.4745640000000  0.5148350000000  0.4316870000000 1.0
C      1  0.4850390000000  0.5675040000000  0.4750990000000 1.0
C      1  0.5149400000000  0.4335760000000  0.4749310000000 1.0
C      1  0.5185990000000  0.5689090000000  0.5246860000000 1.0
C      1  0.4870300000000  0.5245200000000  0.5621430000000 1.0
C      1  0.5636870000000  0.4836480000000  0.5234850000000 1.0
C      1  0.5259620000000  0.5642990000000  0.4835350000000 1.0
C      1  0.4857540000000  0.4749300000000  0.4359110000000 1.0
C      1  0.5167960000000  0.4708860000000  0.5668500000000 1.0
C      1  0.5144850000000  0.5262780000000  0.4366770000000 1.0
C      1  0.5668020000000  0.5196370000000  0.4699500000000 1.0
C      1  0.4372570000000  0.5148400000000  0.5242200000000 1.0
C      1  0.4346210000000  0.4806900000000  0.4721330000000 1.0
C      1  0.5195910000000  0.4364060000000  0.5158410000000 1.0
C      1  0.4745550000000  0.4362080000000  0.4834920000000 1.0
C      1  0.4804100000000  0.5635080000000  0.5160640000000 1.0
C      1  0.4853290000000  0.5663030000000  0.5293170000000 1.0
C      1  0.5643310000000  0.5232840000000  0.4843670000000 1.0
C      1  0.5232280000000  0.4834230000000  0.5626940000000 1.0
C      1  0.4809740000000  0.4335800000000  0.4706250000000 1.0
C      1  0.5197360000000  0.5676160000000  0.4707220000000 1.0
C      1  0.5145560000000  0.4339250000000  0.5290720000000 1.0
C      1  0.5655430000000  0.4690910000000  0.5198600000000 1.0
C      1  0.4360280000000  0.5287110000000  0.5201190000000 1.0
C      1  0.4362600000000  0.4762200000000  0.4858340000000 1.0
C      1  0.5272240000000  0.5198220000000  0.4335850000000 1.0
C      1  0.4729100000000  0.4812680000000  0.4337450000000 1.0
C      1  0.4737620000000  0.5195850000000  0.5645800000000 1.0
C      1  0.5867630000000  0.4112050000000  0.4912800000000 1.0
C      1  0.5199040000000  0.4142670000000  0.4155910000000 1.0
C      1  0.5896230000000  0.4906930000000  0.4129210000000 1.0
C      1  0.4342120000000  0.4689790000000  0.5762960000000 1.0
C      1  0.4705820000000  0.5778980000000  0.4232000000000 1.0
C      1  0.4242870000000  0.5789860000000  0.4747490000000 1.0
C      1  0.4361960000000  0.4263660000000  0.5328120000000 1.0
C      1  0.4818110000000  0.4214660000000  0.5916090000000 1.0
C      1  0.4221210000000  0.5273900000000  0.4233360000000 1.0
C      1  0.5622670000000  0.5324390000000  0.5741220000000 1.0
C      1  0.5646790000000  0.5766110000000  0.5325350000000 1.0
C      1  0.5238960000000  0.5826850000000  0.5866340000000 1.0
C      1  0.5509650000000  0.4599300000000  0.5475280000000 1.0
C      1  0.5532330000000  0.5481050000000  0.4603570000000 1.0
C      1  0.4492860000000  0.5398000000000  0.5464130000000 1.0
C      1  0.4475270000000  0.4532080000000  0.4605010000000 1.0
END
