TITL C-1379266-1300-267 -3.65531228656157e-07 1000000 -4127.18685413463 0 0 580 (C2) n - 1
REM
REM in /nfs/bkarasulu/CARBON/AIRSS/Generating-Clusters/GAP-ML-2020/Higher-Symm/Selected-Sizes/TryA-Only_Ih-Symm/Larger-Clusters/Try2-MINAMP_6A
REM
REM
REM
REM
REM
REM ./C.cell (31579ac4e95a012ec27f3239692ae8a5)
REM
REM compiler GCC version 9.2.1 20190827 (Red Hat 9.2.1-1)
REM options -cpp -mtune=generic -march=x86-64 -g -O0 -fpre-include=/usr/include/finclude/math-vector-fortran.h
REM seed -900387697 842069390 -1769828411 2011146748 2127157355 1999344152 -1526899062 -857855246 -1460807687 2038823017 1431981464 -446615045 956577876 -196498358 467730395 90771713 -291633020 -1022445161 -2071880616 926450432 -1564775459 763740588 -1885830434 1492028959 563568077 -969721803 -394599424 -1418232165 -1059245814 1328687788 1602342738 -1682232644 1804890112
REM
CELL 1.54180  100.00000  100.00000  100.00000   90.00000   90.00000   90.00000
LATT -1
SFAC C  
C      1  0.4479840000000  0.5163880000000  0.5336160000000 1.0
C      1  0.5160530000000  0.5332910000000  0.4481890000000 1.0
C      1  0.5345680000000  0.4486230000000  0.5153880000000 1.0
C      1  0.5503990000000  0.4823680000000  0.5340790000000 1.0
C      1  0.4479840000000  0.4835130000000  0.4662820000000 1.0
C      1  0.5503990000000  0.5175340000000  0.4658190000000 1.0
C      1  0.4842840000000  0.4652290000000  0.4481410000000 1.0
C      1  0.5160530000000  0.4666110000000  0.5517090000000 1.0
C      1  0.4842840000000  0.5346730000000  0.5517570000000 1.0
C      1  0.4660070000000  0.5503930000000  0.5176390000000 1.0
C      1  0.5345680000000  0.5512780000000  0.4845100000000 1.0
C      1  0.4660070000000  0.4495080000000  0.4822590000000 1.0
C      1  0.5175360000000  0.4498730000000  0.5338080000000 1.0
C      1  0.5335470000000  0.5160770000000  0.4480220000000 1.0
C      1  0.4480840000000  0.5337030000000  0.5162240000000 1.0
C      1  0.4844000000000  0.5516360000000  0.5346480000000 1.0
C      1  0.4844000000000  0.4482650000000  0.4652500000000 1.0
C      1  0.5175360000000  0.5500280000000  0.4660900000000 1.0
C      1  0.4657470000000  0.4820530000000  0.4494410000000 1.0
C      1  0.4657470000000  0.5178480000000  0.5504570000000 1.0
C      1  0.5335470000000  0.4838240000000  0.5518760000000 1.0
C      1  0.5516430000000  0.4656440000000  0.5154350000000 1.0
C      1  0.5516430000000  0.5342580000000  0.4844630000000 1.0
C      1  0.4480840000000  0.4661990000000  0.4836740000000 1.0
C      1  0.5134540000000  0.4264490000000  0.5370810000000 1.0
C      1  0.4247270000000  0.5367980000000  0.5120730000000 1.0
C      1  0.5365080000000  0.5121430000000  0.4246190000000 1.0
C      1  0.4878670000000  0.5748900000000  0.5371210000000 1.0
C      1  0.5134540000000  0.5734520000000  0.4628170000000 1.0
C      1  0.4878670000000  0.4250120000000  0.4627770000000 1.0
C      1  0.5749710000000  0.4631370000000  0.5121630000000 1.0
C      1  0.4247270000000  0.4631030000000  0.4878260000000 1.0
C      1  0.5749710000000  0.5367640000000  0.4877350000000 1.0
C      1  0.4623170000000  0.4860470000000  0.4260520000000 1.0
C      1  0.5365090000000  0.4877580000000  0.5752790000000 1.0
C      1  0.4623170000000  0.5138550000000  0.5738470000000 1.0
C      1  0.4245880000000  0.5123470000000  0.5365470000000 1.0
C      1  0.5371630000000  0.4253420000000  0.5119650000000 1.0
C      1  0.5118760000000  0.5362860000000  0.4248140000000 1.0
C      1  0.5737960000000  0.4862770000000  0.5375240000000 1.0
C      1  0.5737960000000  0.5136240000000  0.4623740000000 1.0
C      1  0.4245880000000  0.4875550000000  0.4633510000000 1.0
C      1  0.4628420000000  0.5737870000000  0.5135200000000 1.0
C      1  0.4628420000000  0.4261140000000  0.4863780000000 1.0
C      1  0.5371630000000  0.5745590000000  0.4879330000000 1.0
C      1  0.4875530000000  0.4626240000000  0.4248410000000 1.0
C      1  0.4875530000000  0.5372780000000  0.5750570000000 1.0
C      1  0.5118760000000  0.4636160000000  0.5750840000000 1.0
C      1  0.4354480000000  0.4745450000000  0.4855320000000 1.0
C      1  0.4740730000000  0.4840290000000  0.4363750000000 1.0
C      1  0.4858750000000  0.4359010000000  0.4739930000000 1.0
C      1  0.5641010000000  0.5255970000000  0.4857680000000 1.0
C      1  0.4354480000000  0.5253570000000  0.5143660000000 1.0
C      1  0.5641010000000  0.4743040000000  0.5141290000000 1.0
C      1  0.5251140000000  0.5142050000000  0.4354450000000 1.0
C      1  0.4740730000000  0.5158720000000  0.5635230000000 1.0
C      1  0.5251140000000  0.4856960000000  0.5644530000000 1.0
C      1  0.5155830000000  0.5630540000000  0.4745080000000 1.0
C      1  0.4858750000000  0.5640010000000  0.5259050000000 1.0
C      1  0.5155830000000  0.4368470000000  0.5253900000000 1.0
C      1  0.4744920000000  0.4365440000000  0.4842820000000 1.0
C      1  0.4855730000000  0.4738620000000  0.4356850000000 1.0
C      1  0.4353970000000  0.4853780000000  0.4746910000000 1.0
C      1  0.5258900000000  0.5637030000000  0.4859110000000 1.0
C      1  0.5258900000000  0.4361990000000  0.5139870000000 1.0
C      1  0.4744920000000  0.5633580000000  0.5156160000000 1.0
C      1  0.5141620000000  0.5249190000000  0.4355520000000 1.0
C      1  0.5141630000000  0.4749830000000  0.5643460000000 1.0
C      1  0.4855730000000  0.5260390000000  0.5642130000000 1.0
C      1  0.5634550000000  0.5155420000000  0.4741770000000 1.0
C      1  0.5634550000000  0.4843600000000  0.5257210000000 1.0
C      1  0.4353970000000  0.5145230000000  0.5252070000000 1.0
C      1  0.5856100000000  0.5170550000000  0.5076270000000 1.0
C      1  0.5174150000000  0.5074350000000  0.5858630000000 1.0
C      1  0.5076410000000  0.5853960000000  0.5177120000000 1.0
C      1  0.4140850000000  0.4822280000000  0.5072510000000 1.0
C      1  0.5856100000000  0.4828470000000  0.4922710000000 1.0
C      1  0.4140850000000  0.5176740000000  0.4926470000000 1.0
C      1  0.4820800000000  0.4933490000000  0.5855150000000 1.0
C      1  0.5174150000000  0.4924670000000  0.4140350000000 1.0
C      1  0.4820790000000  0.5065530000000  0.4143830000000 1.0
C      1  0.4931670000000  0.4150260000000  0.5171570000000 1.0
C      1  0.5076410000000  0.4145050000000  0.4821860000000 1.0
C      1  0.4931670000000  0.5848750000000  0.4827410000000 1.0
C      1  0.5179400000000  0.5852790000000  0.5074600000000 1.0
C      1  0.5072040000000  0.5177730000000  0.5859200000000 1.0
C      1  0.5854740000000  0.5066740000000  0.5177600000000 1.0
C      1  0.4829460000000  0.4149160000000  0.5068890000000 1.0
C      1  0.4829460000000  0.5849860000000  0.4930090000000 1.0
C      1  0.5179400000000  0.4146220000000  0.4924380000000 1.0
C      1  0.4921980000000  0.4829460000000  0.5855020000000 1.0
C      1  0.4921970000000  0.5169550000000  0.4143960000000 1.0
C      1  0.5072040000000  0.4821280000000  0.4139780000000 1.0
C      1  0.4139870000000  0.4925720000000  0.5174620000000 1.0
C      1  0.4139870000000  0.5073290000000  0.4824360000000 1.0
C      1  0.5854740000000  0.4932280000000  0.4821370000000 1.0
C      1  0.4160210000000  0.4825680000000  0.5274760000000 1.0
C      1  0.4820520000000  0.5268610000000  0.4164550000000 1.0
C      1  0.5279150000000  0.4163610000000  0.4823210000000 1.0
C      1  0.5835920000000  0.5165660000000  0.5279250000000 1.0
C      1  0.4160210000000  0.5173340000000  0.4724220000000 1.0
C      1  0.5835920000000  0.4833360000000  0.4719730000000 1.0
C      1  0.5173540000000  0.4722020000000  0.4157840000000 1.0
C      1  0.4820520000000  0.4730410000000  0.5834430000000 1.0
C      1  0.5173540000000  0.5277000000000  0.5841140000000 1.0
C      1  0.4728830000000  0.5829610000000  0.4830340000000 1.0
C      1  0.5279150000000  0.5835410000000  0.5175760000000 1.0
C      1  0.4728830000000  0.4169410000000  0.5168640000000 1.0
C      1  0.4831020000000  0.4170680000000  0.5271330000000 1.0
C      1  0.5275190000000  0.4824900000000  0.4158250000000 1.0
C      1  0.4161140000000  0.5276150000000  0.4825510000000 1.0
C      1  0.5176650000000  0.5836650000000  0.5277720000000 1.0
C      1  0.5176650000000  0.4162370000000  0.4721260000000 1.0
C      1  0.4831020000000  0.5828330000000  0.4727650000000 1.0
C      1  0.4719980000000  0.5164620000000  0.4165170000000 1.0
C      1  0.4719980000000  0.4834400000000  0.5833810000000 1.0
C      1  0.5275190000000  0.5174120000000  0.5840730000000 1.0
C      1  0.5837830000000  0.4729400000000  0.4820830000000 1.0
C      1  0.5837830000000  0.5269610000000  0.5178140000000 1.0
C      1  0.4161140000000  0.4722860000000  0.5173470000000 1.0
C      1  0.4995070000000  0.5104330000000  0.4253830000000 1.0
C      1  0.5113870000000  0.4257180000000  0.4996540000000 1.0
C      1  0.4249790000000  0.4999430000000  0.5109980000000 1.0
C      1  0.4998400000000  0.4884150000000  0.4251120000000 1.0
C      1  0.4995070000000  0.4894690000000  0.5745150000000 1.0
C      1  0.4998400000000  0.5114860000000  0.5747860000000 1.0
C      1  0.4891660000000  0.5738730000000  0.5003970000000 1.0
C      1  0.5113870000000  0.5741840000000  0.5002440000000 1.0
C      1  0.4891660000000  0.4260290000000  0.4995010000000 1.0
C      1  0.5743660000000  0.4994790000000  0.5112410000000 1.0
C      1  0.4249790000000  0.4999590000000  0.4889000000000 1.0
C      1  0.5743660000000  0.5004220000000  0.4886570000000 1.0
C      1  0.5107760000000  0.4996110000000  0.4250980000000 1.0
C      1  0.4250230000000  0.5110490000000  0.4999370000000 1.0
C      1  0.5004750000000  0.4261300000000  0.5108210000000 1.0
C      1  0.4884390000000  0.4991360000000  0.4254100000000 1.0
C      1  0.4884390000000  0.5007660000000  0.5744880000000 1.0
C      1  0.5107760000000  0.5002910000000  0.5748000000000 1.0
C      1  0.5744260000000  0.4890330000000  0.4996400000000 1.0
C      1  0.5744260000000  0.5108690000000  0.5002580000000 1.0
C      1  0.4250240000000  0.4888520000000  0.4999610000000 1.0
C      1  0.5003260000000  0.5742880000000  0.5112970000000 1.0
C      1  0.5003260000000  0.4256130000000  0.4886010000000 1.0
C      1  0.5004750000000  0.5737720000000  0.4890770000000 1.0
C      1  0.5006780000000  0.5396400000000  0.4780170000000 1.0
C      1  0.5402470000000  0.4778220000000  0.4998250000000 1.0
C      1  0.4775660000000  0.5009130000000  0.5402130000000 1.0
C      1  0.5000680000000  0.4597760000000  0.4772480000000 1.0
C      1  0.5006780000000  0.4602610000000  0.5218810000000 1.0
C      1  0.5000680000000  0.5401250000000  0.5226500000000 1.0
C      1  0.4595180000000  0.5221810000000  0.5001610000000 1.0
C      1  0.5402470000000  0.5220800000000  0.5000730000000 1.0
C      1  0.4595180000000  0.4777210000000  0.4997370000000 1.0
C      1  0.5223000000000  0.5000710000000  0.5404860000000 1.0
C      1  0.4775660000000  0.4989890000000  0.4596850000000 1.0
C      1  0.5223000000000  0.4998310000000  0.4594120000000 1.0
C      1  0.5402150000000  0.5005240000000  0.4775190000000 1.0
C      1  0.4778550000000  0.5398610000000  0.5008040000000 1.0
C      1  0.5000510000000  0.4782030000000  0.5401870000000 1.0
C      1  0.4594240000000  0.4996840000000  0.4776490000000 1.0
C      1  0.4594240000000  0.5002170000000  0.5222500000000 1.0
C      1  0.5402150000000  0.4993770000000  0.5223790000000 1.0
C      1  0.5224850000000  0.4599950000000  0.4997020000000 1.0
C      1  0.5224850000000  0.5399060000000  0.5001960000000 1.0
C      1  0.4778550000000  0.4600410000000  0.4990940000000 1.0
C      1  0.4999620000000  0.5225600000000  0.5404420000000 1.0
C      1  0.4999620000000  0.4773420000000  0.4594560000000 1.0
C      1  0.5000510000000  0.5216980000000  0.4597110000000 1.0
C      1  0.5415410000000  0.4693050000000  0.4469980000000 1.0
C      1  0.4697330000000  0.4483290000000  0.5405810000000 1.0
C      1  0.4476770000000  0.5409350000000  0.4693530000000 1.0
C      1  0.4586650000000  0.5298810000000  0.4477630000000 1.0
C      1  0.5415410000000  0.5305960000000  0.5529000000000 1.0
C      1  0.4586650000000  0.4700200000000  0.5521350000000 1.0
C      1  0.5310460000000  0.5524090000000  0.5417490000000 1.0
C      1  0.4697330000000  0.5515730000000  0.4593170000000 1.0
C      1  0.5310460000000  0.4474930000000  0.4581490000000 1.0
C      1  0.5527010000000  0.4591090000000  0.4687520000000 1.0
C      1  0.4476770000000  0.4589670000000  0.5305450000000 1.0
C      1  0.5527010000000  0.5407930000000  0.5311460000000 1.0
C      1  0.4692430000000  0.5404500000000  0.4479180000000 1.0
C      1  0.4474430000000  0.4695640000000  0.5411230000000 1.0
C      1  0.5416080000000  0.4477290000000  0.4687300000000 1.0
C      1  0.5310480000000  0.4586180000000  0.4469450000000 1.0
C      1  0.5310480000000  0.5412840000000  0.5529530000000 1.0
C      1  0.4692430000000  0.4594520000000  0.5519800000000 1.0
C      1  0.5525740000000  0.5301440000000  0.5416450000000 1.0
C      1  0.5525730000000  0.4697570000000  0.4582530000000 1.0
C      1  0.4474430000000  0.5303380000000  0.4587750000000 1.0
C      1  0.4591770000000  0.5518090000000  0.4698570000000 1.0
C      1  0.4591770000000  0.4480930000000  0.5300410000000 1.0
C      1  0.5416080000000  0.5521730000000  0.5311680000000 1.0
C      1  0.4231660000000  0.4574010000000  0.5006380000000 1.0
C      1  0.4569990000000  0.4990530000000  0.4238470000000 1.0
C      1  0.5006480000000  0.4232590000000  0.4572030000000 1.0
C      1  0.5768540000000  0.5421330000000  0.5005890000000 1.0
C      1  0.4231660000000  0.5425010000000  0.4992600000000 1.0
C      1  0.5768540000000  0.4577680000000  0.4993090000000 1.0
C      1  0.5423330000000  0.4994200000000  0.4228460000000 1.0
C      1  0.4570000000000  0.5008490000000  0.5760520000000 1.0
C      1  0.5423330000000  0.5004820000000  0.5770520000000 1.0
C      1  0.5003960000000  0.5756110000000  0.4575830000000 1.0
C      1  0.5006480000000  0.5766420000000  0.5426950000000 1.0
C      1  0.5003960000000  0.4242900000000  0.5423150000000 1.0
C      1  0.4576310000000  0.4239200000000  0.4994250000000 1.0
C      1  0.5003780000000  0.4571720000000  0.4229910000000 1.0
C      1  0.4229190000000  0.5003450000000  0.4576230000000 1.0
C      1  0.5427660000000  0.5762860000000  0.5007170000000 1.0
C      1  0.5427660000000  0.4236160000000  0.4991810000000 1.0
C      1  0.4576310000000  0.5759820000000  0.5004730000000 1.0
C      1  0.4990310000000  0.5419040000000  0.4232370000000 1.0
C      1  0.4990310000000  0.4579970000000  0.5766610000000 1.0
C      1  0.5003780000000  0.5427300000000  0.5769070000000 1.0
C      1  0.5761150000000  0.5006900000000  0.4569640000000 1.0
C      1  0.5761150000000  0.4992120000000  0.5429340000000 1.0
C      1  0.4229190000000  0.4995560000000  0.5422750000000 1.0
C      1  0.4944170000000  0.4480820000000  0.5296240000000 1.0
C      1  0.4473120000000  0.5298500000000  0.4936240000000 1.0
C      1  0.5299760000000  0.4934490000000  0.4470790000000 1.0
C      1  0.5069860000000  0.5525720000000  0.5300220000000 1.0
C      1  0.4944170000000  0.5518200000000  0.4702740000000 1.0
C      1  0.5069860000000  0.4473300000000  0.4698760000000 1.0
C      1  0.5527260000000  0.4705240000000  0.4928810000000 1.0
C      1  0.4473120000000  0.4700510000000  0.5062740000000 1.0
C      1  0.5527260000000  0.5293770000000  0.5070170000000 1.0
C      1  0.4697250000000  0.5051870000000  0.4475220000000 1.0
C      1  0.5299760000000  0.5064530000000  0.5528190000000 1.0
C      1  0.4697250000000  0.4947140000000  0.5523760000000 1.0
C      1  0.4471670000000  0.4937700000000  0.5298910000000 1.0
C      1  0.5299290000000  0.4475640000000  0.4928090000000 1.0
C      1  0.4934590000000  0.5293310000000  0.4475450000000 1.0
C      1  0.5524510000000  0.5055020000000  0.5302500000000 1.0
C      1  0.5524510000000  0.4944000000000  0.4696480000000 1.0
C      1  0.4471670000000  0.5061320000000  0.4700070000000 1.0
C      1  0.4701860000000  0.5520660000000  0.4945120000000 1.0
C      1  0.4701860000000  0.4478350000000  0.5053860000000 1.0
C      1  0.5299290000000  0.5523370000000  0.5070890000000 1.0
C      1  0.5068570000000  0.4700060000000  0.4469340000000 1.0
C      1  0.5068570000000  0.5298960000000  0.5529640000000 1.0
C      1  0.4934590000000  0.4705710000000  0.5523530000000 1.0
C      1  0.4587670000000  0.5507490000000  0.5039080000000 1.0
C      1  0.5508670000000  0.5039020000000  0.4583960000000 1.0
C      1  0.5029750000000  0.4593190000000  0.5510730000000 1.0
C      1  0.5412330000000  0.4492270000000  0.5018200000000 1.0
C      1  0.4587670000000  0.4491530000000  0.4959900000000 1.0
C      1  0.5412330000000  0.5506750000000  0.4980780000000 1.0
C      1  0.4484270000000  0.4965260000000  0.4588490000000 1.0
C      1  0.5508670000000  0.4960000000000  0.5415010000000 1.0
C      1  0.4484270000000  0.5033760000000  0.5410490000000 1.0
C      1  0.4978960000000  0.5412450000000  0.5512540000000 1.0
C      1  0.5029750000000  0.5405820000000  0.4488250000000 1.0
C      1  0.4978960000000  0.4586570000000  0.4486440000000 1.0
C      1  0.5510990000000  0.4591130000000  0.5018100000000 1.0
C      1  0.5037870000000  0.5503430000000  0.4588670000000 1.0
C      1  0.4584070000000  0.5041610000000  0.5508550000000 1.0
C      1  0.4486750000000  0.5410420000000  0.5031660000000 1.0
C      1  0.4486750000000  0.4588590000000  0.4967320000000 1.0
C      1  0.5510990000000  0.5407880000000  0.4980880000000 1.0
C      1  0.4979510000000  0.4488260000000  0.4585570000000 1.0
C      1  0.4979510000000  0.5510750000000  0.5413410000000 1.0
C      1  0.5037870000000  0.4495590000000  0.5410310000000 1.0
C      1  0.5410590000000  0.4967870000000  0.5514880000000 1.0
C      1  0.5410590000000  0.5031140000000  0.4484090000000 1.0
C      1  0.4584070000000  0.4957400000000  0.4490430000000 1.0
C      1  0.5262180000000  0.5145010000000  0.4621430000000 1.0
C      1  0.5151920000000  0.4629810000000  0.5261320000000 1.0
C      1  0.4621460000000  0.5262380000000  0.5148160000000 1.0
C      1  0.4734640000000  0.4845080000000  0.4624900000000 1.0
C      1  0.5262180000000  0.4854010000000  0.5377550000000 1.0
C      1  0.4734640000000  0.5153930000000  0.5374080000000 1.0
C      1  0.4854050000000  0.5377670000000  0.5268960000000 1.0
C      1  0.5151920000000  0.5369200000000  0.4737660000000 1.0
C      1  0.4854050000000  0.4621350000000  0.4730020000000 1.0
C      1  0.5377720000000  0.4734430000000  0.5144470000000 1.0
C      1  0.4621460000000  0.4736640000000  0.4850820000000 1.0
C      1  0.5377720000000  0.5264590000000  0.4854510000000 1.0
C      1  0.5146940000000  0.5258390000000  0.4622740000000 1.0
C      1  0.4620810000000  0.5148590000000  0.5262690000000 1.0
C      1  0.5267600000000  0.4624900000000  0.5143630000000 1.0
C      1  0.4853290000000  0.4730390000000  0.4619910000000 1.0
C      1  0.4853290000000  0.5268620000000  0.5379070000000 1.0
C      1  0.5146940000000  0.4740630000000  0.5376240000000 1.0
C      1  0.5373420000000  0.4848740000000  0.5263820000000 1.0
C      1  0.5373420000000  0.5150280000000  0.4735160000000 1.0
C      1  0.4620810000000  0.4850420000000  0.4736290000000 1.0
C      1  0.4736300000000  0.5372670000000  0.5153240000000 1.0
C      1  0.4736300000000  0.4626350000000  0.4845740000000 1.0
C      1  0.5267600000000  0.5374110000000  0.4855350000000 1.0
C      1  0.5599990000000  0.4855600000000  0.5718960000000 1.0
C      1  0.4859220000000  0.5711800000000  0.5605260000000 1.0
C      1  0.5711290000000  0.5601230000000  0.4860500000000 1.0
C      1  0.4388480000000  0.5149100000000  0.5704440000000 1.0
C      1  0.5599990000000  0.5143410000000  0.4280020000000 1.0
C      1  0.4388480000000  0.4849920000000  0.4294540000000 1.0
C      1  0.5143550000000  0.4297880000000  0.5605790000000 1.0
C      1  0.4859220000000  0.4287220000000  0.4393720000000 1.0
C      1  0.5143550000000  0.5701130000000  0.4393190000000 1.0
C      1  0.4283610000000  0.4396390000000  0.4858780000000 1.0
C      1  0.5711290000000  0.4397790000000  0.5138480000000 1.0
C      1  0.4283610000000  0.5602630000000  0.5140200000000 1.0
C      1  0.4858440000000  0.5606420000000  0.5711420000000 1.0
C      1  0.5704290000000  0.4850810000000  0.5610270000000 1.0
C      1  0.5605500000000  0.5706930000000  0.4860350000000 1.0
C      1  0.5138030000000  0.4401560000000  0.5715120000000 1.0
C      1  0.5138030000000  0.5597450000000  0.4283860000000 1.0
C      1  0.4858440000000  0.4392600000000  0.4287560000000 1.0
C      1  0.4279800000000  0.5144170000000  0.5600070000000 1.0
C      1  0.4279800000000  0.4854850000000  0.4398910000000 1.0
C      1  0.5704290000000  0.5148210000000  0.4388710000000 1.0
C      1  0.4393250000000  0.4292990000000  0.4854250000000 1.0
C      1  0.4393250000000  0.5706030000000  0.5144730000000 1.0
C      1  0.5605500000000  0.4292090000000  0.5138630000000 1.0
C      1  0.4857210000000  0.5732210000000  0.4620130000000 1.0
C      1  0.5743740000000  0.4620310000000  0.4846660000000 1.0
C      1  0.4613500000000  0.4861220000000  0.5736790000000 1.0
C      1  0.5153050000000  0.4258570000000  0.4613150000000 1.0
C      1  0.4857210000000  0.4266810000000  0.5378850000000 1.0
C      1  0.5153050000000  0.5740440000000  0.5385830000000 1.0
C      1  0.4259430000000  0.5382970000000  0.4847840000000 1.0
C      1  0.5743740000000  0.5378710000000  0.5152320000000 1.0
C      1  0.4259430000000  0.4616050000000  0.5151140000000 1.0
C      1  0.5383300000000  0.5150250000000  0.5743850000000 1.0
C      1  0.4613500000000  0.5137800000000  0.4262190000000 1.0
C      1  0.5383290000000  0.4848760000000  0.4255130000000 1.0
C      1  0.5738840000000  0.4859560000000  0.4612470000000 1.0
C      1  0.4620410000000  0.5735180000000  0.4858100000000 1.0
C      1  0.4845680000000  0.4622260000000  0.5738390000000 1.0
C      1  0.4257260000000  0.5148780000000  0.4616980000000 1.0
C      1  0.4257260000000  0.4850230000000  0.5382010000000 1.0
C      1  0.5738840000000  0.5139460000000  0.5386510000000 1.0
C      1  0.5386370000000  0.4261380000000  0.4845170000000 1.0
C      1  0.5386370000000  0.5737630000000  0.5153810000000 1.0
C      1  0.4620410000000  0.4263830000000  0.5140880000000 1.0
C      1  0.5150430000000  0.5384810000000  0.5744670000000 1.0
C      1  0.5150430000000  0.4614210000000  0.4254300000000 1.0
C      1  0.4845680000000  0.5376760000000  0.4260590000000 1.0
C      1  0.5003790000000  0.4516620000000  0.5101240000000 1.0
C      1  0.4507880000000  0.5104880000000  0.5000310000000 1.0
C      1  0.5104830000000  0.4996750000000  0.4508220000000 1.0
C      1  0.5001520000000  0.5486140000000  0.5108510000000 1.0
C      1  0.5003790000000  0.5482390000000  0.4897740000000 1.0
C      1  0.5001520000000  0.4512870000000  0.4890470000000 1.0
C      1  0.5488770000000  0.4895000000000  0.4998780000000 1.0
C      1  0.4507880000000  0.4894140000000  0.4998670000000 1.0
C      1  0.5488770000000  0.5104010000000  0.5000190000000 1.0
C      1  0.4893040000000  0.4992690000000  0.4510690000000 1.0
C      1  0.5104830000000  0.5002270000000  0.5490760000000 1.0
C      1  0.4893040000000  0.5006330000000  0.5488290000000 1.0
C      1  0.4507670000000  0.5000570000000  0.5104940000000 1.0
C      1  0.5107710000000  0.4513890000000  0.4996610000000 1.0
C      1  0.4998860000000  0.5100060000000  0.4509800000000 1.0
C      1  0.5487580000000  0.4996590000000  0.5105780000000 1.0
C      1  0.5487580000000  0.5002430000000  0.4893200000000 1.0
C      1  0.4507670000000  0.4998450000000  0.4894040000000 1.0
C      1  0.4896920000000  0.5483430000000  0.5004570000000 1.0
C      1  0.4896920000000  0.4515590000000  0.4994410000000 1.0
C      1  0.5107710000000  0.5485120000000  0.5002360000000 1.0
C      1  0.4998840000000  0.4890190000000  0.4508170000000 1.0
C      1  0.4998840000000  0.5108820000000  0.5490810000000 1.0
C      1  0.4998860000000  0.4898960000000  0.5489180000000 1.0
C      1  0.4732360000000  0.4457460000000  0.4557330000000 1.0
C      1  0.4464560000000  0.4592230000000  0.4705900000000 1.0
C      1  0.4571100000000  0.4683550000000  0.4495980000000 1.0
C      1  0.5311860000000  0.5500110000000  0.4573750000000 1.0
C      1  0.4732360000000  0.5541560000000  0.5441650000000 1.0
C      1  0.5311860000000  0.4498900000000  0.5425230000000 1.0
C      1  0.5540650000000  0.5438680000000  0.4733810000000 1.0
C      1  0.4464560000000  0.5406790000000  0.5293080000000 1.0
C      1  0.5540650000000  0.4560330000000  0.5265170000000 1.0
C      1  0.5403980000000  0.5292260000000  0.4464480000000 1.0
C      1  0.4571100000000  0.5315470000000  0.5503000000000 1.0
C      1  0.5403980000000  0.4706750000000  0.5534500000000 1.0
C      1  0.4463620000000  0.4703750000000  0.4594030000000 1.0
C      1  0.4572820000000  0.4494990000000  0.4685960000000 1.0
C      1  0.4731860000000  0.4556250000000  0.4457570000000 1.0
C      1  0.5502010000000  0.5312380000000  0.4572040000000 1.0
C      1  0.5502010000000  0.4686640000000  0.5426940000000 1.0
C      1  0.4463620000000  0.5295270000000  0.5404960000000 1.0
C      1  0.5440990000000  0.5537530000000  0.4733470000000 1.0
C      1  0.5440990000000  0.4461480000000  0.5265510000000 1.0
C      1  0.4572820000000  0.5504020000000  0.5313020000000 1.0
C      1  0.5291410000000  0.5403020000000  0.4465460000000 1.0
C      1  0.5291410000000  0.4596000000000  0.5533520000000 1.0
C      1  0.4731860000000  0.5442760000000  0.5541410000000 1.0
C      1  0.4375020000000  0.5105010000000  0.4278950000000 1.0
C      1  0.5114860000000  0.4275480000000  0.4374400000000 1.0
C      1  0.4278730000000  0.4377160000000  0.5113720000000 1.0
C      1  0.5622520000000  0.4889060000000  0.4271460000000 1.0
C      1  0.4375020000000  0.4894010000000  0.5720040000000 1.0
C      1  0.5622520000000  0.5109950000000  0.5727520000000 1.0
C      1  0.4888540000000  0.5714840000000  0.4381320000000 1.0
C      1  0.5114860000000  0.5723530000000  0.5624580000000 1.0
C      1  0.4888540000000  0.4284170000000  0.5617660000000 1.0
C      1  0.5724770000000  0.5617400000000  0.5116140000000 1.0
C      1  0.4278730000000  0.5621860000000  0.4885260000000 1.0
C      1  0.5724770000000  0.4381620000000  0.4882840000000 1.0
C      1  0.5114210000000  0.4375570000000  0.4273690000000 1.0
C      1  0.4273510000000  0.5109870000000  0.4378360000000 1.0
C      1  0.4381500000000  0.4278950000000  0.5109210000000 1.0
C      1  0.4883230000000  0.5615830000000  0.4279360000000 1.0
C      1  0.4883230000000  0.4383190000000  0.5719620000000 1.0
C      1  0.5114210000000  0.5623440000000  0.5725290000000 1.0
C      1  0.5722100000000  0.4893840000000  0.4373300000000 1.0
C      1  0.5722100000000  0.5105180000000  0.5625680000000 1.0
C      1  0.4273510000000  0.4889150000000  0.5620620000000 1.0
C      1  0.5624890000000  0.5718280000000  0.5116020000000 1.0
C      1  0.5624890000000  0.4280730000000  0.4882960000000 1.0
C      1  0.4381500000000  0.5720070000000  0.4889770000000 1.0
C      1  0.5211760000000  0.4525820000000  0.5740070000000 1.0
C      1  0.4516600000000  0.5720890000000  0.5223890000000 1.0
C      1  0.5719220000000  0.5225930000000  0.4512950000000 1.0
C      1  0.4782230000000  0.5480490000000  0.5735110000000 1.0
C      1  0.5211750000000  0.5473200000000  0.4258910000000 1.0
C      1  0.4782230000000  0.4518530000000  0.4263870000000 1.0
C      1  0.5478620000000  0.4267860000000  0.5213830000000 1.0
C      1  0.4516590000000  0.4278130000000  0.4775090000000 1.0
C      1  0.5478620000000  0.5731160000000  0.4785150000000 1.0
C      1  0.4256330000000  0.4781720000000  0.4524140000000 1.0
C      1  0.5719220000000  0.4773090000000  0.5486030000000 1.0
C      1  0.4256330000000  0.5217300000000  0.5474840000000 1.0
C      1  0.4512190000000  0.5227780000000  0.5719900000000 1.0
C      1  0.5734580000000  0.4523310000000  0.5214780000000 1.0
C      1  0.5223060000000  0.5716750000000  0.4516570000000 1.0
C      1  0.5474280000000  0.4783360000000  0.5742010000000 1.0
C      1  0.5474280000000  0.5215660000000  0.4256970000000 1.0
C      1  0.4512190000000  0.4771240000000  0.4279080000000 1.0
C      1  0.4258390000000  0.5477940000000  0.5213800000000 1.0
C      1  0.4258390000000  0.4521080000000  0.4785180000000 1.0
C      1  0.5734580000000  0.5475700000000  0.4784200000000 1.0
C      1  0.4784390000000  0.4263690000000  0.4520580000000 1.0
C      1  0.4784390000000  0.5735320000000  0.5478400000000 1.0
C      1  0.5223070000000  0.4282270000000  0.5482410000000 1.0
C      1  0.5006510000000  0.4439330000000  0.5758260000000 1.0
C      1  0.4435520000000  0.5753830000000  0.5016260000000 1.0
C      1  0.5754100000000  0.5020020000000  0.4429070000000 1.0
C      1  0.4988420000000  0.5567820000000  0.5758530000000 1.0
C      1  0.5006510000000  0.5559680000000  0.4240720000000 1.0
C      1  0.4988420000000  0.4431190000000  0.4240450000000 1.0
C      1  0.5568010000000  0.4246450000000  0.5008070000000 1.0
C      1  0.4435520000000  0.4245190000000  0.4982720000000 1.0
C      1  0.5568010000000  0.5752560000000  0.4990910000000 1.0
C      1  0.4236300000000  0.4986500000000  0.4435770000000 1.0
C      1  0.5754110000000  0.4979000000000  0.5569900000000 1.0
C      1  0.4236300000000  0.5012520000000  0.5563210000000 1.0
C      1  0.4429440000000  0.5020600000000  0.5753350000000 1.0
C      1  0.5758250000000  0.4437000000000  0.5008480000000 1.0
C      1  0.5015140000000  0.5749080000000  0.4435120000000 1.0
C      1  0.5563760000000  0.4986960000000  0.5763410000000 1.0
C      1  0.5563760000000  0.5012050000000  0.4235570000000 1.0
C      1  0.4429440000000  0.4978410000000  0.4245630000000 1.0
C      1  0.4240270000000  0.5565510000000  0.5008730000000 1.0
C      1  0.4240280000000  0.4433510000000  0.4990250000000 1.0
C      1  0.5758250000000  0.5562010000000  0.4990500000000 1.0
C      1  0.4989880000000  0.4241720000000  0.4431550000000 1.0
C      1  0.4989880000000  0.5757300000000  0.5567420000000 1.0
C      1  0.5015140000000  0.4249930000000  0.5563860000000 1.0
C      1  0.4989980000000  0.4380680000000  0.4804670000000 1.0
C      1  0.4376350000000  0.4807680000000  0.4986320000000 1.0
C      1  0.4802640000000  0.4973860000000  0.4380540000000 1.0
C      1  0.5022460000000  0.5612820000000  0.4807750000000 1.0
C      1  0.4989980000000  0.5618330000000  0.5194310000000 1.0
C      1  0.5022460000000  0.4386190000000  0.5191230000000 1.0
C      1  0.5620550000000  0.5190150000000  0.4988750000000 1.0
C      1  0.4376350000000  0.5191340000000  0.5012660000000 1.0
C      1  0.5620550000000  0.4808860000000  0.5010230000000 1.0
C      1  0.5190110000000  0.5010190000000  0.4376230000000 1.0
C      1  0.4802640000000  0.5025160000000  0.5618450000000 1.0
C      1  0.5190110000000  0.4988820000000  0.5622750000000 1.0
C      1  0.4375800000000  0.4985480000000  0.4808080000000 1.0
C      1  0.4807550000000  0.4384360000000  0.4976200000000 1.0
C      1  0.4986740000000  0.4804010000000  0.4376420000000 1.0
C      1  0.5617830000000  0.5021720000000  0.4803490000000 1.0
C      1  0.5617840000000  0.4977300000000  0.5195490000000 1.0
C      1  0.4375800000000  0.5013530000000  0.5190900000000 1.0
C      1  0.5194100000000  0.5616540000000  0.4990320000000 1.0
C      1  0.5194100000000  0.4382480000000  0.5008660000000 1.0
C      1  0.4807550000000  0.5614660000000  0.5022780000000 1.0
C      1  0.5010590000000  0.5186490000000  0.4378350000000 1.0
C      1  0.5010590000000  0.4812530000000  0.5620630000000 1.0
C      1  0.4986740000000  0.5195010000000  0.5622560000000 1.0
C      1  0.5580800000000  0.5194320000000  0.5318830000000 1.0
C      1  0.5205340000000  0.5315040000000  0.5586040000000 1.0
C      1  0.5318140000000  0.5580180000000  0.5207120000000 1.0
C      1  0.4415910000000  0.4799380000000  0.5313690000000 1.0
C      1  0.5580800000000  0.4804690000000  0.4680150000000 1.0
C      1  0.4415910000000  0.5199630000000  0.4685290000000 1.0
C      1  0.4795930000000  0.4692410000000  0.5578410000000 1.0
C      1  0.5205340000000  0.4683970000000  0.4412940000000 1.0
C      1  0.4795920000000  0.5306610000000  0.4420570000000 1.0
C      1  0.4689950000000  0.4425330000000  0.5194670000000 1.0
C      1  0.5318140000000  0.4418830000000  0.4791860000000 1.0
C      1  0.4689950000000  0.5573690000000  0.4804310000000 1.0
C      1  0.5206450000000  0.5581660000000  0.5318710000000 1.0
C      1  0.5316940000000  0.5201800000000  0.5585940000000 1.0
C      1  0.5582440000000  0.5308370000000  0.5207410000000 1.0
C      1  0.4803690000000  0.4426830000000  0.5308480000000 1.0
C      1  0.4803690000000  0.5572190000000  0.4690500000000 1.0
C      1  0.5206450000000  0.4417360000000  0.4680270000000 1.0
C      1  0.4683320000000  0.4806820000000  0.5578010000000 1.0
C      1  0.4683320000000  0.5192190000000  0.4420970000000 1.0
C      1  0.5316930000000  0.4797210000000  0.4413040000000 1.0
C      1  0.4417120000000  0.4685930000000  0.5200980000000 1.0
C      1  0.4417120000000  0.5313080000000  0.4798000000000 1.0
C      1  0.5582440000000  0.4690640000000  0.4791570000000 1.0
C      1  0.4479170000000  0.5200220000000  0.4280790000000 1.0
C      1  0.5212620000000  0.4276820000000  0.4476600000000 1.0
C      1  0.4280490000000  0.4479600000000  0.5211210000000 1.0
C      1  0.5521190000000  0.4790360000000  0.4273150000000 1.0
C      1  0.4479170000000  0.4798790000000  0.5718190000000 1.0
C      1  0.5521190000000  0.5208660000000  0.5725830000000 1.0
C      1  0.4794130000000  0.5712640000000  0.4485830000000 1.0
C      1  0.5212620000000  0.5722200000000  0.5522380000000 1.0
C      1  0.4794130000000  0.4286380000000  0.5513150000000 1.0
C      1  0.5723850000000  0.5514130000000  0.5212920000000 1.0
C      1  0.4280490000000  0.5519410000000  0.4787770000000 1.0
C      1  0.5723840000000  0.4484880000000  0.4786060000000 1.0
C      1  0.5211270000000  0.4478600000000  0.4273500000000 1.0
C      1  0.4276650000000  0.5207990000000  0.4480350000000 1.0
C      1  0.4486200000000  0.4282440000000  0.5203660000000 1.0
C      1  0.4785990000000  0.5513200000000  0.4282120000000 1.0
C      1  0.4786000000000  0.4485810000000  0.5716860000000 1.0
C      1  0.5211270000000  0.5520410000000  0.5725480000000 1.0
C      1  0.5721640000000  0.4797990000000  0.4476770000000 1.0
C      1  0.5721640000000  0.5201020000000  0.5522200000000 1.0
C      1  0.4276650000000  0.4791030000000  0.5518630000000 1.0
C      1  0.5522910000000  0.5718240000000  0.5213780000000 1.0
C      1  0.5522910000000  0.4280780000000  0.4785200000000 1.0
C      1  0.4486200000000  0.5716580000000  0.4795320000000 1.0
C      1  0.5628930000000  0.4694200000000  0.4469860000000 1.0
C      1  0.4687070000000  0.4478790000000  0.5619130000000 1.0
C      1  0.4480020000000  0.5622740000000  0.4692670000000 1.0
C      1  0.4373770000000  0.5307810000000  0.4472840000000 1.0
C      1  0.5628930000000  0.5304820000000  0.5529120000000 1.0
C      1  0.4373770000000  0.4691200000000  0.5526140000000 1.0
C      1  0.5313360000000  0.5527290000000  0.5630640000000 1.0
C      1  0.4687060000000  0.5520230000000  0.4379850000000 1.0
C      1  0.5313350000000  0.4471730000000  0.4368340000000 1.0
C      1  0.5530520000000  0.4376840000000  0.4684330000000 1.0
C      1  0.4480020000000  0.4376280000000  0.5306310000000 1.0
C      1  0.5530530000000  0.5622170000000  0.5314650000000 1.0
C      1  0.4691480000000  0.5618600000000  0.4480330000000 1.0
C      1  0.4473820000000  0.4695360000000  0.5624810000000 1.0
C      1  0.5629060000000  0.4477310000000  0.4684260000000 1.0
C      1  0.5313550000000  0.4372600000000  0.4468170000000 1.0
C      1  0.5313550000000  0.5626420000000  0.5530800000000 1.0
C      1  0.4691480000000  0.4380410000000  0.5518650000000 1.0
C      1  0.5530230000000  0.5308830000000  0.5629330000000 1.0
C      1  0.5530220000000  0.4690180000000  0.4369640000000 1.0
C      1  0.4473820000000  0.5303660000000  0.4374180000000 1.0
C      1  0.4378340000000  0.5525640000000  0.4688600000000 1.0
C      1  0.4378340000000  0.4473380000000  0.5310380000000 1.0
C      1  0.5629060000000  0.5521700000000  0.5314720000000 1.0
C      1  0.4665190000000  0.5672660000000  0.5431280000000 1.0
C      1  0.5670790000000  0.5429630000000  0.4665140000000 1.0
C      1  0.5430610000000  0.4665560000000  0.5679710000000 1.0
C      1  0.5343190000000  0.4347140000000  0.5439310000000 1.0
C      1  0.4665190000000  0.4326350000000  0.4567700000000 1.0
C      1  0.5343190000000  0.5651870000000  0.4559670000000 1.0
C      1  0.4319070000000  0.4564380000000  0.4666190000000 1.0
C      1  0.5670790000000  0.4569380000000  0.5333840000000 1.0
C      1  0.4319070000000  0.5434640000000  0.5332790000000 1.0
C      1  0.4556040000000  0.5347300000000  0.5654520000000 1.0
C      1  0.5430610000000  0.5333450000000  0.4319270000000 1.0
C      1  0.4556040000000  0.4651710000000  0.4344470000000 1.0
C      1  0.5653360000000  0.4654290000000  0.5441950000000 1.0
C      1  0.5430750000000  0.5668670000000  0.4665970000000 1.0
C      1  0.4663150000000  0.5433580000000  0.5671790000000 1.0
C      1  0.4318170000000  0.5335660000000  0.5431250000000 1.0
C      1  0.4318170000000  0.4663360000000  0.4567730000000 1.0
C      1  0.5653360000000  0.5344730000000  0.4557030000000 1.0
C      1  0.4558870000000  0.4343230000000  0.4655000000000 1.0
C      1  0.4558870000000  0.5655790000000  0.5343980000000 1.0
C      1  0.5430750000000  0.4330340000000  0.5333010000000 1.0
C      1  0.5330780000000  0.4568060000000  0.5679010000000 1.0
C      1  0.5330770000000  0.5430960000000  0.4319970000000 1.0
C      1  0.4663150000000  0.4565440000000  0.4327190000000 1.0
C      1  0.5432680000000  0.5431550000000  0.4626560000000 1.0
C      1  0.5432680000000  0.4567470000000  0.5372420000000 1.0
C      1  0.4625110000000  0.5435300000000  0.5433880000000 1.0
C      1  0.4625110000000  0.4563720000000  0.4565100000000 1.0
END
