TITL C-1379267-1329-35 7.86734925293525e-07 1000000 -3293.98120084129 0 0 460 (C1) n - 1
REM
REM in /nfs/bkarasulu/CARBON/AIRSS/Generating-Clusters/GAP-ML-2020/Higher-Symm/Selected-Sizes/TryA-Only_Ih-Symm/Larger-Clusters/Try2-MINAMP_6A
REM
REM
REM
REM
REM
REM ./C.cell (31579ac4e95a012ec27f3239692ae8a5)
REM
REM compiler GCC version 9.2.1 20190827 (Red Hat 9.2.1-1)
REM options -cpp -mtune=generic -march=x86-64 -g -O0 -fpre-include=/usr/include/finclude/math-vector-fortran.h
REM seed 167926148 1427275204 124643155 1248326157 -721849053 283661923 613248912 1540777576 2138896791 247778159 144776891 -1690289581 1132178220 -1429916045 -2095999642 -789678564 -248914469 1847777507 1599562644 1788300051 1553355644 -1566581933 134480035 -1560051918 1441153875 592267039 -1632948772 1657677778 1780638253 -2016101879 1389008743 -1871936217 -1030531042
REM
CELL 1.54180  100.00000  100.00000  100.00000   90.00000   90.00000   90.00000
LATT -1
SFAC C  
C      1  0.5496910000000  0.4851230000000  0.5609740000000 1.0
C      1  0.4854160000000  0.5615570000000  0.5503190000000 1.0
C      1  0.5617720000000  0.5495970000000  0.4853820000000 1.0
C      1  0.4499640000000  0.5139560000000  0.5612060000000 1.0
C      1  0.5498060000000  0.5141260000000  0.4381900000000 1.0
C      1  0.4499130000000  0.4852550000000  0.4383180000000 1.0
C      1  0.5132140000000  0.4375770000000  0.5508300000000 1.0
C      1  0.4872790000000  0.4376510000000  0.4489190000000 1.0
C      1  0.5126290000000  0.5628190000000  0.4488680000000 1.0
C      1  0.4375970000000  0.4499850000000  0.4855130000000 1.0
C      1  0.5619910000000  0.4499210000000  0.5133770000000 1.0
C      1  0.4381800000000  0.5507570000000  0.5142960000000 1.0
C      1  0.4856470000000  0.5496480000000  0.5616570000000 1.0
C      1  0.5611520000000  0.4851460000000  0.5495310000000 1.0
C      1  0.5504490000000  0.5614990000000  0.4851490000000 1.0
C      1  0.5135600000000  0.4497260000000  0.5616580000000 1.0
C      1  0.5144810000000  0.5506830000000  0.4378240000000 1.0
C      1  0.4860120000000  0.4496460000000  0.4381970000000 1.0
C      1  0.4384980000000  0.5141500000000  0.5497140000000 1.0
C      1  0.4383430000000  0.4855280000000  0.4497810000000 1.0
C      1  0.5613210000000  0.5139820000000  0.4496580000000 1.0
C      1  0.4488520000000  0.4379860000000  0.4852750000000 1.0
C      1  0.4492280000000  0.5628800000000  0.5124300000000 1.0
C      1  0.5512110000000  0.4377400000000  0.5129930000000 1.0
C      1  0.5444600000000  0.4738240000000  0.5345650000000 1.0
C      1  0.4744350000000  0.5351070000000  0.5443280000000 1.0
C      1  0.5349350000000  0.5450070000000  0.4739360000000 1.0
C      1  0.4553440000000  0.5254110000000  0.5345580000000 1.0
C      1  0.5443360000000  0.5252320000000  0.4647590000000 1.0
C      1  0.4553470000000  0.4744030000000  0.4649480000000 1.0
C      1  0.5254790000000  0.4639320000000  0.5446170000000 1.0
C      1  0.4738990000000  0.4640290000000  0.4545440000000 1.0
C      1  0.5254670000000  0.5352690000000  0.4546440000000 1.0
C      1  0.4644120000000  0.4543810000000  0.4738300000000 1.0
C      1  0.5355060000000  0.4538950000000  0.5255520000000 1.0
C      1  0.4639480000000  0.5459610000000  0.5258160000000 1.0
C      1  0.4742380000000  0.5450630000000  0.5348190000000 1.0
C      1  0.5347530000000  0.4738030000000  0.5442550000000 1.0
C      1  0.5444360000000  0.5350490000000  0.4741330000000 1.0
C      1  0.5258010000000  0.4538680000000  0.5352390000000 1.0
C      1  0.5259600000000  0.5459020000000  0.4636200000000 1.0
C      1  0.4733910000000  0.4534980000000  0.4635500000000 1.0
C      1  0.4650600000000  0.5252990000000  0.5442560000000 1.0
C      1  0.4651170000000  0.4743400000000  0.4553200000000 1.0
C      1  0.5346410000000  0.5253130000000  0.4550420000000 1.0
C      1  0.4550040000000  0.4644320000000  0.4741520000000 1.0
C      1  0.4549720000000  0.5353330000000  0.5253390000000 1.0
C      1  0.5448520000000  0.4639850000000  0.5252620000000 1.0
C      1  0.4747980000000  0.5336120000000  0.4129690000000 1.0
C      1  0.5348190000000  0.4130250000000  0.4740740000000 1.0
C      1  0.4130550000000  0.4749450000000  0.5339250000000 1.0
C      1  0.5251550000000  0.4657850000000  0.4130160000000 1.0
C      1  0.4740780000000  0.4654890000000  0.5860810000000 1.0
C      1  0.5253060000000  0.5337730000000  0.5861300000000 1.0
C      1  0.4649180000000  0.5865800000000  0.4735480000000 1.0
C      1  0.5340020000000  0.5863270000000  0.5248170000000 1.0
C      1  0.4652670000000  0.4130830000000  0.5246560000000 1.0
C      1  0.5863460000000  0.5247430000000  0.5339500000000 1.0
C      1  0.4133120000000  0.5249750000000  0.4655920000000 1.0
C      1  0.5865580000000  0.4746890000000  0.4649120000000 1.0
C      1  0.5340260000000  0.4748200000000  0.4128920000000 1.0
C      1  0.4132150000000  0.5338900000000  0.4745910000000 1.0
C      1  0.4742530000000  0.4131160000000  0.5335710000000 1.0
C      1  0.4658850000000  0.5246130000000  0.4130370000000 1.0
C      1  0.4651420000000  0.4744530000000  0.5862590000000 1.0
C      1  0.5341570000000  0.5247160000000  0.5861760000000 1.0
C      1  0.5864920000000  0.4658260000000  0.4739540000000 1.0
C      1  0.5862830000000  0.5337420000000  0.5250370000000 1.0
C      1  0.4131750000000  0.4659380000000  0.5250260000000 1.0
C      1  0.5250820000000  0.5863480000000  0.5338110000000 1.0
C      1  0.5258640000000  0.4131370000000  0.4651470000000 1.0
C      1  0.4738040000000  0.5865580000000  0.4645630000000 1.0
C      1  0.5142440000000  0.5241720000000  0.5336380000000 1.0
C      1  0.5239340000000  0.5342360000000  0.5140260000000 1.0
C      1  0.5337710000000  0.5142830000000  0.5236670000000 1.0
C      1  0.4853850000000  0.4751560000000  0.5335710000000 1.0
C      1  0.5140150000000  0.4752120000000  0.4655730000000 1.0
C      1  0.4854900000000  0.5243550000000  0.4654900000000 1.0
C      1  0.4756080000000  0.4651210000000  0.5140400000000 1.0
C      1  0.5238880000000  0.4650950000000  0.4851260000000 1.0
C      1  0.4756740000000  0.5344090000000  0.4851580000000 1.0
C      1  0.4657960000000  0.4850760000000  0.5236960000000 1.0
C      1  0.5337190000000  0.4849810000000  0.4754400000000 1.0
C      1  0.4657890000000  0.5146560000000  0.4755120000000 1.0
C      1  0.5238440000000  0.5142820000000  0.5336060000000 1.0
C      1  0.5337860000000  0.5241560000000  0.5140470000000 1.0
C      1  0.5142180000000  0.5342500000000  0.5237800000000 1.0
C      1  0.4757320000000  0.4849900000000  0.5336260000000 1.0
C      1  0.4757410000000  0.5146100000000  0.4655300000000 1.0
C      1  0.5237660000000  0.4849710000000  0.4654940000000 1.0
C      1  0.4657810000000  0.4752390000000  0.5140590000000 1.0
C      1  0.4657900000000  0.5243900000000  0.4852800000000 1.0
C      1  0.5337070000000  0.4752020000000  0.4851470000000 1.0
C      1  0.4853970000000  0.4650960000000  0.5237170000000 1.0
C      1  0.4853950000000  0.5343970000000  0.4753700000000 1.0
C      1  0.5140840000000  0.4651350000000  0.4754310000000 1.0
C      1  0.5449910000000  0.5021940000000  0.4639270000000 1.0
C      1  0.5024790000000  0.4635690000000  0.5448670000000 1.0
C      1  0.4639580000000  0.5459360000000  0.5024710000000 1.0
C      1  0.4545650000000  0.4974430000000  0.4640190000000 1.0
C      1  0.5449650000000  0.4969240000000  0.5351530000000 1.0
C      1  0.4546270000000  0.5023610000000  0.5352520000000 1.0
C      1  0.4973310000000  0.5358320000000  0.5450680000000 1.0
C      1  0.5025480000000  0.5362900000000  0.4539300000000 1.0
C      1  0.4969100000000  0.4634920000000  0.4542390000000 1.0
C      1  0.5357120000000  0.4537640000000  0.5022870000000 1.0
C      1  0.4638380000000  0.4538610000000  0.4969910000000 1.0
C      1  0.5356890000000  0.5456240000000  0.4969930000000 1.0
C      1  0.5026370000000  0.5459080000000  0.4635940000000 1.0
C      1  0.4642930000000  0.5022810000000  0.5448590000000 1.0
C      1  0.5451140000000  0.4636650000000  0.5022590000000 1.0
C      1  0.4967980000000  0.4537730000000  0.4638020000000 1.0
C      1  0.4972750000000  0.5456920000000  0.5355900000000 1.0
C      1  0.5025590000000  0.4537150000000  0.5354130000000 1.0
C      1  0.5353170000000  0.4969060000000  0.5447860000000 1.0
C      1  0.5353620000000  0.5021990000000  0.4542600000000 1.0
C      1  0.4641820000000  0.4973600000000  0.4543350000000 1.0
C      1  0.4542940000000  0.5363300000000  0.5024100000000 1.0
C      1  0.4543790000000  0.4637490000000  0.4970730000000 1.0
C      1  0.5451600000000  0.5357630000000  0.4970510000000 1.0
C      1  0.5285320000000  0.5501560000000  0.4337510000000 1.0
C      1  0.5540360000000  0.4311740000000  0.5252400000000 1.0
C      1  0.4335020000000  0.5278570000000  0.5500510000000 1.0
C      1  0.4714130000000  0.4443030000000  0.4353930000000 1.0
C      1  0.5269960000000  0.4509860000000  0.5677020000000 1.0
C      1  0.4723110000000  0.5491090000000  0.5674450000000 1.0
C      1  0.4479530000000  0.5739010000000  0.5225540000000 1.0
C      1  0.5516760000000  0.5663450000000  0.4716200000000 1.0
C      1  0.4477860000000  0.4329240000000  0.4718970000000 1.0
C      1  0.5662490000000  0.4714360000000  0.5502100000000 1.0
C      1  0.4329060000000  0.4721160000000  0.4492660000000 1.0
C      1  0.5669540000000  0.5272930000000  0.4494120000000 1.0
C      1  0.5501260000000  0.5278260000000  0.4332190000000 1.0
C      1  0.4340800000000  0.5501970000000  0.5283550000000 1.0
C      1  0.5254820000000  0.4310630000000  0.5536990000000 1.0
C      1  0.4496670000000  0.4715650000000  0.4333810000000 1.0
C      1  0.4496870000000  0.5272870000000  0.5668300000000 1.0
C      1  0.5503530000000  0.4714010000000  0.5660500000000 1.0
C      1  0.5679940000000  0.4511600000000  0.5268260000000 1.0
C      1  0.5675700000000  0.5490520000000  0.4720480000000 1.0
C      1  0.4315470000000  0.4511340000000  0.4723410000000 1.0
C      1  0.4718840000000  0.5663870000000  0.5515560000000 1.0
C      1  0.4746120000000  0.4318750000000  0.4430020000000 1.0
C      1  0.5227280000000  0.5738530000000  0.4476100000000 1.0
C      1  0.5241820000000  0.4349180000000  0.5138890000000 1.0
C      1  0.4360550000000  0.5140330000000  0.5233670000000 1.0
C      1  0.5139210000000  0.5239940000000  0.4355350000000 1.0
C      1  0.4758990000000  0.5645010000000  0.5135590000000 1.0
C      1  0.5237360000000  0.5643310000000  0.4853520000000 1.0
C      1  0.4757110000000  0.4351970000000  0.4852950000000 1.0
C      1  0.5636670000000  0.4855900000000  0.5232830000000 1.0
C      1  0.4360000000000  0.4860620000000  0.4761530000000 1.0
C      1  0.5636130000000  0.5135500000000  0.4760300000000 1.0
C      1  0.4856610000000  0.4755980000000  0.4355630000000 1.0
C      1  0.5135790000000  0.4757700000000  0.5635340000000 1.0
C      1  0.4860830000000  0.5234050000000  0.5635900000000 1.0
C      1  0.4358560000000  0.5241010000000  0.5137870000000 1.0
C      1  0.5142060000000  0.4349180000000  0.5238070000000 1.0
C      1  0.5234420000000  0.5138650000000  0.4357750000000 1.0
C      1  0.5637080000000  0.4759220000000  0.5133920000000 1.0
C      1  0.5636780000000  0.5233800000000  0.4858110000000 1.0
C      1  0.4358950000000  0.4762200000000  0.4859160000000 1.0
C      1  0.4856420000000  0.5643860000000  0.5235890000000 1.0
C      1  0.4856160000000  0.4348970000000  0.4753830000000 1.0
C      1  0.5137530000000  0.5644760000000  0.4755570000000 1.0
C      1  0.4761790000000  0.4856370000000  0.4359600000000 1.0
C      1  0.4763320000000  0.5135350000000  0.5635280000000 1.0
C      1  0.5234270000000  0.4855140000000  0.5634750000000 1.0
C      1  0.4762940000000  0.5692770000000  0.4999660000000 1.0
C      1  0.5687510000000  0.5001960000000  0.4761980000000 1.0
C      1  0.5002320000000  0.4761680000000  0.5686330000000 1.0
C      1  0.5238820000000  0.4301010000000  0.5003140000000 1.0
C      1  0.4759190000000  0.4301770000000  0.4987190000000 1.0
C      1  0.5235500000000  0.5692770000000  0.4987940000000 1.0
C      1  0.4308580000000  0.4994210000000  0.4763650000000 1.0
C      1  0.5687550000000  0.4989800000000  0.5230050000000 1.0
C      1  0.4308870000000  0.5006580000000  0.5229940000000 1.0
C      1  0.4993980000000  0.5231500000000  0.5687200000000 1.0
C      1  0.5005660000000  0.5235440000000  0.4304410000000 1.0
C      1  0.4989920000000  0.4759680000000  0.4305180000000 1.0
C      1  0.5688020000000  0.4764040000000  0.5000550000000 1.0
C      1  0.5001770000000  0.5692720000000  0.4759280000000 1.0
C      1  0.4764930000000  0.5001450000000  0.5686270000000 1.0
C      1  0.4307610000000  0.5236510000000  0.5004240000000 1.0
C      1  0.4307210000000  0.4764980000000  0.4991980000000 1.0
C      1  0.5688270000000  0.5231100000000  0.4991270000000 1.0
C      1  0.4991540000000  0.4301540000000  0.4757710000000 1.0
C      1  0.4990750000000  0.5693240000000  0.5234040000000 1.0
C      1  0.5006500000000  0.4301040000000  0.5234230000000 1.0
C      1  0.5231640000000  0.4989150000000  0.5685690000000 1.0
C      1  0.5230390000000  0.5004580000000  0.4306180000000 1.0
C      1  0.4765490000000  0.4989910000000  0.4307160000000 1.0
C      1  0.4594350000000  0.5614290000000  0.5535290000000 1.0
C      1  0.5634510000000  0.5501300000000  0.4593450000000 1.0
C      1  0.5508290000000  0.4586910000000  0.5618050000000 1.0
C      1  0.5379490000000  0.4358080000000  0.5558420000000 1.0
C      1  0.4632890000000  0.4264790000000  0.4481170000000 1.0
C      1  0.5351990000000  0.5729860000000  0.4474370000000 1.0
C      1  0.4357520000000  0.4495970000000  0.4597140000000 1.0
C      1  0.5641420000000  0.4489190000000  0.5394220000000 1.0
C      1  0.4387070000000  0.5510910000000  0.5410710000000 1.0
C      1  0.4489310000000  0.5398730000000  0.5625240000000 1.0
C      1  0.5514830000000  0.5401720000000  0.4382020000000 1.0
C      1  0.4487900000000  0.4590800000000  0.4384690000000 1.0
C      1  0.5620200000000  0.4587220000000  0.5506640000000 1.0
C      1  0.5536670000000  0.5613970000000  0.4591700000000 1.0
C      1  0.4596080000000  0.5501540000000  0.5633180000000 1.0
C      1  0.4384770000000  0.5402080000000  0.5513530000000 1.0
C      1  0.4373370000000  0.4596000000000  0.4488620000000 1.0
C      1  0.5626500000000  0.5398690000000  0.4486520000000 1.0
C      1  0.4448200000000  0.4379230000000  0.4597480000000 1.0
C      1  0.4477300000000  0.5730030000000  0.5350230000000 1.0
C      1  0.5561740000000  0.4358790000000  0.5377150000000 1.0
C      1  0.5396110000000  0.4488340000000  0.5638590000000 1.0
C      1  0.5412290000000  0.5510610000000  0.4384160000000 1.0
C      1  0.4577170000000  0.4476450000000  0.4388100000000 1.0
C      1  0.5368220000000  0.5576450000000  0.5471920000000 1.0
C      1  0.5577120000000  0.5472160000000  0.5366170000000 1.0
C      1  0.5473540000000  0.5365840000000  0.5575170000000 1.0
C      1  0.4622680000000  0.4416860000000  0.5472300000000 1.0
C      1  0.5374850000000  0.4418070000000  0.4515750000000 1.0
C      1  0.4620900000000  0.5577460000000  0.4513340000000 1.0
C      1  0.4415380000000  0.4522080000000  0.5366420000000 1.0
C      1  0.5581730000000  0.4522750000000  0.4621570000000 1.0
C      1  0.4414880000000  0.5473130000000  0.4622180000000 1.0
C      1  0.4518970000000  0.4627250000000  0.5575540000000 1.0
C      1  0.5476070000000  0.4628900000000  0.4413420000000 1.0
C      1  0.4520580000000  0.5365870000000  0.4413760000000 1.0
C      1  0.5576980000000  0.5365830000000  0.5471610000000 1.0
C      1  0.5473890000000  0.5576430000000  0.5366040000000 1.0
C      1  0.5368350000000  0.5472250000000  0.5575270000000 1.0
C      1  0.4415910000000  0.4628180000000  0.5471860000000 1.0
C      1  0.4416860000000  0.5366410000000  0.4517660000000 1.0
C      1  0.5579800000000  0.4628780000000  0.4516630000000 1.0
C      1  0.4517730000000  0.4417370000000  0.5366480000000 1.0
C      1  0.4516480000000  0.5577750000000  0.4618230000000 1.0
C      1  0.5480090000000  0.4418010000000  0.4620560000000 1.0
C      1  0.4623430000000  0.4520800000000  0.5575720000000 1.0
C      1  0.4624820000000  0.5472500000000  0.4411750000000 1.0
C      1  0.5371730000000  0.4522550000000  0.4413100000000 1.0
C      1  0.4993270000000  0.5690540000000  0.4503020000000 1.0
C      1  0.5693890000000  0.4510000000000  0.5003080000000 1.0
C      1  0.4509920000000  0.5008960000000  0.5686750000000 1.0
C      1  0.4999670000000  0.4303670000000  0.4503370000000 1.0
C      1  0.5000830000000  0.4304470000000  0.5490820000000 1.0
C      1  0.4985560000000  0.5691580000000  0.5490640000000 1.0
C      1  0.4305890000000  0.5492630000000  0.5009270000000 1.0
C      1  0.5692040000000  0.5485860000000  0.4984740000000 1.0
C      1  0.4302370000000  0.4510060000000  0.4986010000000 1.0
C      1  0.5486340000000  0.4981600000000  0.5686530000000 1.0
C      1  0.4509940000000  0.4982550000000  0.4305780000000 1.0
C      1  0.5486430000000  0.5011540000000  0.4304890000000 1.0
C      1  0.5688480000000  0.5009780000000  0.4506850000000 1.0
C      1  0.4506860000000  0.5690820000000  0.4991090000000 1.0
C      1  0.5004660000000  0.4507270000000  0.5690130000000 1.0
C      1  0.4307430000000  0.4985280000000  0.4508220000000 1.0
C      1  0.4307930000000  0.5011820000000  0.5485260000000 1.0
C      1  0.5688310000000  0.4981860000000  0.5484760000000 1.0
C      1  0.5495770000000  0.4306570000000  0.4998560000000 1.0
C      1  0.5492000000000  0.5690970000000  0.4982890000000 1.0
C      1  0.4501700000000  0.4304820000000  0.4984090000000 1.0
C      1  0.4987400000000  0.5486410000000  0.5690890000000 1.0
C      1  0.4987000000000  0.4506320000000  0.4302020000000 1.0
C      1  0.5011180000000  0.5491850000000  0.4302220000000 1.0
C      1  0.4817340000000  0.4588530000000  0.5498590000000 1.0
C      1  0.4591200000000  0.5503770000000  0.4813260000000 1.0
C      1  0.5501320000000  0.4818320000000  0.4588160000000 1.0
C      1  0.5177140000000  0.5405690000000  0.5500280000000 1.0
C      1  0.4818460000000  0.5405740000000  0.4491110000000 1.0
C      1  0.5178300000000  0.4590270000000  0.4492810000000 1.0
C      1  0.5406470000000  0.4491620000000  0.4814100000000 1.0
C      1  0.4588890000000  0.4490810000000  0.5174800000000 1.0
C      1  0.5405350000000  0.5503550000000  0.5174990000000 1.0
C      1  0.4494410000000  0.5177120000000  0.4588870000000 1.0
C      1  0.5500740000000  0.5175450000000  0.5401870000000 1.0
C      1  0.4494150000000  0.4818140000000  0.5402010000000 1.0
C      1  0.4591110000000  0.4817410000000  0.5499300000000 1.0
C      1  0.5502010000000  0.4590320000000  0.4815360000000 1.0
C      1  0.4815930000000  0.5503530000000  0.4587650000000 1.0
C      1  0.5403580000000  0.5175460000000  0.5499010000000 1.0
C      1  0.5404190000000  0.4818760000000  0.4490990000000 1.0
C      1  0.4591560000000  0.5176450000000  0.4491640000000 1.0
C      1  0.4494550000000  0.5406140000000  0.4815840000000 1.0
C      1  0.4493020000000  0.4589430000000  0.5174680000000 1.0
C      1  0.5501690000000  0.5405360000000  0.5174900000000 1.0
C      1  0.5180820000000  0.4492310000000  0.4589420000000 1.0
C      1  0.5177260000000  0.5503880000000  0.5403860000000 1.0
C      1  0.4816040000000  0.4490740000000  0.5402100000000 1.0
C      1  0.5633770000000  0.5219850000000  0.5451840000000 1.0
C      1  0.5223510000000  0.5453780000000  0.5633440000000 1.0
C      1  0.5456400000000  0.5635400000000  0.5220400000000 1.0
C      1  0.4360670000000  0.4774260000000  0.5451570000000 1.0
C      1  0.5634760000000  0.4773660000000  0.4538010000000 1.0
C      1  0.4361100000000  0.5221710000000  0.4538590000000 1.0
C      1  0.4768820000000  0.4541510000000  0.5631880000000 1.0
C      1  0.5225140000000  0.4542920000000  0.4358650000000 1.0
C      1  0.4772100000000  0.5452850000000  0.4357260000000 1.0
C      1  0.4537040000000  0.4359490000000  0.5221050000000 1.0
C      1  0.5459000000000  0.4361050000000  0.4764770000000 1.0
C      1  0.4540510000000  0.5634310000000  0.4760500000000 1.0
C      1  0.5222820000000  0.5635710000000  0.5454850000000 1.0
C      1  0.5453530000000  0.5219730000000  0.5632000000000 1.0
C      1  0.5634950000000  0.5453370000000  0.5221110000000 1.0
C      1  0.4767060000000  0.4359410000000  0.5452910000000 1.0
C      1  0.4762960000000  0.5634000000000  0.4536870000000 1.0
C      1  0.5231800000000  0.4361190000000  0.4538060000000 1.0
C      1  0.4540700000000  0.4772300000000  0.5632100000000 1.0
C      1  0.4541380000000  0.5220160000000  0.4358330000000 1.0
C      1  0.5454550000000  0.4774360000000  0.4357920000000 1.0
C      1  0.4359300000000  0.4542310000000  0.5221550000000 1.0
C      1  0.4360640000000  0.5453310000000  0.4769780000000 1.0
C      1  0.5636190000000  0.4544550000000  0.4767280000000 1.0
C      1  0.5535600000000  0.4852010000000  0.5347210000000 1.0
C      1  0.4856820000000  0.5351040000000  0.5536480000000 1.0
C      1  0.5352100000000  0.5542050000000  0.4850950000000 1.0
C      1  0.4461510000000  0.5141410000000  0.5347440000000 1.0
C      1  0.5534950000000  0.5139130000000  0.4645880000000 1.0
C      1  0.4461340000000  0.4856750000000  0.4647230000000 1.0
C      1  0.5139640000000  0.4640970000000  0.5536830000000 1.0
C      1  0.4852070000000  0.4637970000000  0.4452910000000 1.0
C      1  0.5142630000000  0.5356260000000  0.4454510000000 1.0
C      1  0.4642520000000  0.4453270000000  0.4851300000000 1.0
C      1  0.5355730000000  0.4449960000000  0.5140800000000 1.0
C      1  0.4640030000000  0.5549840000000  0.5142460000000 1.0
C      1  0.4853810000000  0.5542710000000  0.5350930000000 1.0
C      1  0.5348740000000  0.4851670000000  0.5533670000000 1.0
C      1  0.5537420000000  0.5350510000000  0.4854010000000 1.0
C      1  0.5143500000000  0.4449500000000  0.5352430000000 1.0
C      1  0.5144200000000  0.5549430000000  0.4636490000000 1.0
C      1  0.4849890000000  0.4445150000000  0.4635020000000 1.0
C      1  0.4649100000000  0.5139570000000  0.5534110000000 1.0
C      1  0.4648190000000  0.4854250000000  0.4459710000000 1.0
C      1  0.5348250000000  0.5140280000000  0.4458440000000 1.0
C      1  0.4457660000000  0.4644990000000  0.4854770000000 1.0
C      1  0.4457990000000  0.5356900000000  0.5141160000000 1.0
C      1  0.5539190000000  0.4642190000000  0.5137500000000 1.0
C      1  0.5651210000000  0.4890800000000  0.4436880000000 1.0
C      1  0.4884190000000  0.4438910000000  0.5651320000000 1.0
C      1  0.4437580000000  0.5653440000000  0.4873590000000 1.0
C      1  0.4344700000000  0.5103890000000  0.4437790000000 1.0
C      1  0.5650360000000  0.5101820000000  0.5553380000000 1.0
C      1  0.4344690000000  0.4891300000000  0.5553550000000 1.0
C      1  0.5106510000000  0.5555920000000  0.5652240000000 1.0
C      1  0.4887270000000  0.5557230000000  0.4339250000000 1.0
C      1  0.5110670000000  0.4439510000000  0.4340360000000 1.0
C      1  0.5562490000000  0.4344610000000  0.4878950000000 1.0
C      1  0.4434480000000  0.4343540000000  0.5104540000000 1.0
C      1  0.5559200000000  0.5651850000000  0.5103380000000 1.0
C      1  0.4875820000000  0.5653040000000  0.4433770000000 1.0
C      1  0.4440030000000  0.4889940000000  0.5648930000000 1.0
C      1  0.5656070000000  0.4441730000000  0.4882420000000 1.0
C      1  0.5118170000000  0.4343410000000  0.4435110000000 1.0
C      1  0.5105990000000  0.5652370000000  0.5557830000000 1.0
C      1  0.4880890000000  0.4342440000000  0.5556960000000 1.0
C      1  0.5554980000000  0.5101660000000  0.5648650000000 1.0
C      1  0.5555840000000  0.4891670000000  0.4341480000000 1.0
C      1  0.4440270000000  0.5102330000000  0.4342490000000 1.0
C      1  0.4342970000000  0.5557740000000  0.4885170000000 1.0
C      1  0.4340410000000  0.4440340000000  0.5105090000000 1.0
C      1  0.5653570000000  0.5555380000000  0.5103910000000 1.0
C      1  0.4523600000000  0.5289510000000  0.4901540000000 1.0
C      1  0.5283330000000  0.4898330000000  0.4520550000000 1.0
C      1  0.4901490000000  0.4516290000000  0.5283420000000 1.0
C      1  0.5471740000000  0.4707740000000  0.4899380000000 1.0
C      1  0.4522900000000  0.4708630000000  0.5093830000000 1.0
C      1  0.5472470000000  0.5286150000000  0.5093580000000 1.0
C      1  0.4712320000000  0.5096920000000  0.4521040000000 1.0
C      1  0.5284080000000  0.5093190000000  0.5470030000000 1.0
C      1  0.4711420000000  0.4898320000000  0.5470470000000 1.0
C      1  0.5095530000000  0.5477400000000  0.5283930000000 1.0
C      1  0.4901470000000  0.5477990000000  0.4706640000000 1.0
C      1  0.5093270000000  0.4517020000000  0.4707760000000 1.0
C      1  0.5286570000000  0.4516660000000  0.4898410000000 1.0
C      1  0.4903090000000  0.5288630000000  0.4520300000000 1.0
C      1  0.4523840000000  0.4900280000000  0.5282720000000 1.0
C      1  0.4709880000000  0.5478140000000  0.4899490000000 1.0
C      1  0.4709500000000  0.4516830000000  0.5093210000000 1.0
C      1  0.5285470000000  0.5477110000000  0.5093000000000 1.0
C      1  0.5091960000000  0.4706940000000  0.4521510000000 1.0
C      1  0.5096080000000  0.5286380000000  0.5471150000000 1.0
C      1  0.4901370000000  0.4706360000000  0.5469940000000 1.0
C      1  0.5471720000000  0.5093380000000  0.5282330000000 1.0
C      1  0.5471650000000  0.4898110000000  0.4708700000000 1.0
C      1  0.4523580000000  0.5098460000000  0.4710010000000 1.0
C      1  0.5361390000000  0.4964090000000  0.4260090000000 1.0
C      1  0.4959070000000  0.4258680000000  0.5364600000000 1.0
C      1  0.4260870000000  0.5366970000000  0.4963230000000 1.0
C      1  0.4634640000000  0.5030390000000  0.4260670000000 1.0
C      1  0.5361890000000  0.5029780000000  0.5732170000000 1.0
C      1  0.4634160000000  0.4960990000000  0.5732030000000 1.0
C      1  0.5032630000000  0.5737330000000  0.5365480000000 1.0
C      1  0.4952300000000  0.5733870000000  0.4629250000000 1.0
C      1  0.5041990000000  0.4259310000000  0.4629620000000 1.0
C      1  0.5737200000000  0.4635530000000  0.4957010000000 1.0
C      1  0.4259060000000  0.4635150000000  0.5033240000000 1.0
C      1  0.5735800000000  0.5361040000000  0.5032640000000 1.0
C      1  0.4965030000000  0.5365990000000  0.4257720000000 1.0
C      1  0.4262250000000  0.4965210000000  0.5360350000000 1.0
C      1  0.5369960000000  0.4260500000000  0.4956280000000 1.0
C      1  0.5033540000000  0.4631780000000  0.4257270000000 1.0
C      1  0.5035320000000  0.5361550000000  0.5734530000000 1.0
C      1  0.4958300000000  0.4632520000000  0.5733820000000 1.0
C      1  0.5734020000000  0.5030140000000  0.5360350000000 1.0
C      1  0.5733800000000  0.4962210000000  0.4631240000000 1.0
C      1  0.4262330000000  0.5033510000000  0.4632680000000 1.0
C      1  0.4633050000000  0.5734180000000  0.4950010000000 1.0
C      1  0.4627100000000  0.4259120000000  0.5030080000000 1.0
C      1  0.5366910000000  0.5736890000000  0.5029930000000 1.0
C      1  0.5757480000000  0.4617970000000  0.4813950000000 1.0
C      1  0.4612960000000  0.4818370000000  0.5754020000000 1.0
C      1  0.4810370000000  0.5754990000000  0.4610480000000 1.0
C      1  0.4239450000000  0.5382290000000  0.4819180000000 1.0
C      1  0.5756440000000  0.5379910000000  0.5175870000000 1.0
C      1  0.4238200000000  0.4616480000000  0.5176200000000 1.0
C      1  0.5381510000000  0.5173080000000  0.5753880000000 1.0
C      1  0.4615340000000  0.5173280000000  0.4237680000000 1.0
C      1  0.5381340000000  0.4821360000000  0.4236980000000 1.0
C      1  0.5184990000000  0.4239620000000  0.4612210000000 1.0
C      1  0.4815190000000  0.4238370000000  0.5379390000000 1.0
C      1  0.5176640000000  0.5757550000000  0.5382610000000 1.0
C      1  0.4614290000000  0.5755260000000  0.4808030000000 1.0
C      1  0.4815140000000  0.4614620000000  0.5753380000000 1.0
C      1  0.5756720000000  0.4819930000000  0.4610070000000 1.0
C      1  0.5387220000000  0.4239430000000  0.4813130000000 1.0
C      1  0.5384080000000  0.5757170000000  0.5173970000000 1.0
C      1  0.4609530000000  0.4238140000000  0.5173670000000 1.0
C      1  0.5178530000000  0.5380450000000  0.5755040000000 1.0
C      1  0.5177560000000  0.4615290000000  0.4237130000000 1.0
C      1  0.4821000000000  0.5381180000000  0.4236360000000 1.0
C      1  0.4239870000000  0.5176300000000  0.4612380000000 1.0
C      1  0.4239310000000  0.4822300000000  0.5379290000000 1.0
C      1  0.5755750000000  0.5173410000000  0.5379960000000 1.0
C      1  0.5090580000000  0.4401890000000  0.4807430000000 1.0
C      1  0.4409020000000  0.4808890000000  0.5090030000000 1.0
C      1  0.4811090000000  0.5091970000000  0.4406540000000 1.0
C      1  0.4904970000000  0.5591500000000  0.4806190000000 1.0
C      1  0.5091070000000  0.5593170000000  0.5185650000000 1.0
C      1  0.4905810000000  0.4400880000000  0.5184480000000 1.0
C      1  0.5586740000000  0.5186630000000  0.5089670000000 1.0
C      1  0.4409360000000  0.5190260000000  0.4906040000000 1.0
C      1  0.5585430000000  0.4807720000000  0.4903300000000 1.0
C      1  0.5184640000000  0.4903020000000  0.4406110000000 1.0
C      1  0.4809290000000  0.4902100000000  0.5584920000000 1.0
C      1  0.5186310000000  0.5088910000000  0.5584810000000 1.0
C      1  0.4408940000000  0.5094650000000  0.4808820000000 1.0
C      1  0.4808150000000  0.4400940000000  0.5088640000000 1.0
C      1  0.5087920000000  0.4806830000000  0.4406960000000 1.0
C      1  0.5586170000000  0.4902750000000  0.4806550000000 1.0
C      1  0.5586470000000  0.5089220000000  0.5184520000000 1.0
C      1  0.4409470000000  0.4906140000000  0.5184810000000 1.0
C      1  0.5187330000000  0.5592960000000  0.5088680000000 1.0
C      1  0.5188390000000  0.4401030000000  0.4903010000000 1.0
C      1  0.4809430000000  0.5591490000000  0.4902610000000 1.0
C      1  0.4907430000000  0.5188740000000  0.4406160000000 1.0
C      1  0.4905120000000  0.4806020000000  0.5584090000000 1.0
C      1  0.5092000000000  0.5186810000000  0.5585420000000 1.0
C      1  0.5447180000000  0.5628310000000  0.4476120000000 1.0
C      1  0.4478890000000  0.5628630000000  0.5445600000000 1.0
C      1  0.5466820000000  0.4315230000000  0.5463810000000 1.0
C      1  0.4533830000000  0.4362480000000  0.4481580000000 1.0
END
