TITL C-1379265-1223-193 1.69378279822766e-07 1000000 -2204.59582861496 0 0 300 (C1) n - 1
REM
REM in /nfs/bkarasulu/CARBON/AIRSS/Generating-Clusters/GAP-ML-2020/Higher-Symm/Selected-Sizes/TryA-Only_Ih-Symm/Larger-Clusters/Try2-MINAMP_6A
REM
REM
REM
REM
REM
REM ./C.cell (31579ac4e95a012ec27f3239692ae8a5)
REM
REM compiler GCC version 9.2.1 20190827 (Red Hat 9.2.1-1)
REM options -cpp -mtune=generic -march=x86-64 -g -O0 -fpre-include=/usr/include/finclude/math-vector-fortran.h
REM seed -611281762 1574833244 157183374 2137344978 132320844 -2132583150 -354263927 224060568 -1894732509 -1126032494 -2060366422 -1442027632 -125590833 -1809511693 -1285604629 1103213141 -101971671 1867362236 -1381519012 1096366919 -638357108 497576949 -1194948642 -1428990944 -153372429 -2107379625 1551120139 205835756 -1941889934 619557102 -394741574 135059357 1527753839
REM
CELL 1.54180  100.00000  100.00000  100.00000   90.00000   90.00000   90.00000
LATT -1
SFAC C  
C      1  0.4438490000000  0.5605830000000  0.4873410000000 1.0
C      1  0.4815930000000  0.4466450000000  0.5673080000000 1.0
C      1  0.5608370000000  0.4872070000000  0.4432850000000 1.0
C      1  0.5570130000000  0.4390180000000  0.4862190000000 1.0
C      1  0.5564090000000  0.5606640000000  0.5128480000000 1.0
C      1  0.4469520000000  0.4404110000000  0.5132410000000 1.0
C      1  0.5134290000000  0.5575170000000  0.5609330000000 1.0
C      1  0.5135060000000  0.4434950000000  0.4382270000000 1.0
C      1  0.4869060000000  0.5563050000000  0.4394320000000 1.0
C      1  0.4396660000000  0.5125010000000  0.4444490000000 1.0
C      1  0.4317390000000  0.4860710000000  0.5574020000000 1.0
C      1  0.5600250000000  0.5127200000000  0.5560890000000 1.0
C      1  0.4439210000000  0.5605680000000  0.5133340000000 1.0
C      1  0.4874440000000  0.4432990000000  0.4383150000000 1.0
C      1  0.5585910000000  0.4867200000000  0.5555640000000 1.0
C      1  0.5564000000000  0.4389510000000  0.5122790000000 1.0
C      1  0.5563620000000  0.5607710000000  0.4868810000000 1.0
C      1  0.4448180000000  0.4380370000000  0.4871160000000 1.0
C      1  0.5128680000000  0.5563950000000  0.4393110000000 1.0
C      1  0.5083030000000  0.4447440000000  0.5567590000000 1.0
C      1  0.4873510000000  0.5582140000000  0.5611640000000 1.0
C      1  0.4399300000000  0.5132860000000  0.5580650000000 1.0
C      1  0.4397980000000  0.4865060000000  0.4444640000000 1.0
C      1  0.5606860000000  0.5131680000000  0.4434630000000 1.0
C      1  0.5315530000000  0.4320740000000  0.5130550000000 1.0
C      1  0.5143530000000  0.5312110000000  0.4332260000000 1.0
C      1  0.4352130000000  0.5144480000000  0.5324160000000 1.0
C      1  0.4689660000000  0.5669790000000  0.5147070000000 1.0
C      1  0.4697840000000  0.4319220000000  0.4845190000000 1.0
C      1  0.5311880000000  0.5668300000000  0.4855280000000 1.0
C      1  0.4858610000000  0.4686260000000  0.4329580000000 1.0
C      1  0.4854200000000  0.5334210000000  0.5679660000000 1.0
C      1  0.5114160000000  0.4700610000000  0.5636940000000 1.0
C      1  0.5654620000000  0.4854200000000  0.5306260000000 1.0
C      1  0.5666370000000  0.5144670000000  0.4686570000000 1.0
C      1  0.4349630000000  0.4850470000000  0.4698360000000 1.0
C      1  0.5320130000000  0.4323650000000  0.4841760000000 1.0
C      1  0.5143100000000  0.5323560000000  0.5668790000000 1.0
C      1  0.4343130000000  0.5139190000000  0.4697330000000 1.0
C      1  0.4689210000000  0.5667240000000  0.4858110000000 1.0
C      1  0.4705200000000  0.4311800000000  0.5133940000000 1.0
C      1  0.5312820000000  0.5669380000000  0.5143520000000 1.0
C      1  0.4826800000000  0.4716800000000  0.5647800000000 1.0
C      1  0.4855500000000  0.5310860000000  0.4334150000000 1.0
C      1  0.5146990000000  0.4688180000000  0.4327320000000 1.0
C      1  0.5667310000000  0.4856190000000  0.4684750000000 1.0
C      1  0.5661160000000  0.5142450000000  0.5309400000000 1.0
C      1  0.4377500000000  0.4856640000000  0.5326220000000 1.0
C      1  0.5640380000000  0.5060700000000  0.5675120000000 1.0
C      1  0.5680060000000  0.5649230000000  0.5066640000000 1.0
C      1  0.5075530000000  0.5692920000000  0.5651260000000 1.0
C      1  0.4285220000000  0.4943000000000  0.5679500000000 1.0
C      1  0.4351250000000  0.5062750000000  0.4329890000000 1.0
C      1  0.5651670000000  0.4934830000000  0.4317680000000 1.0
C      1  0.4346100000000  0.4365580000000  0.5082580000000 1.0
C      1  0.4322470000000  0.5647370000000  0.4935510000000 1.0
C      1  0.5685250000000  0.4349450000000  0.4927130000000 1.0
C      1  0.4890210000000  0.4353120000000  0.5683870000000 1.0
C      1  0.4930160000000  0.5678910000000  0.4350370000000 1.0
C      1  0.5073510000000  0.4320190000000  0.4335920000000 1.0
C      1  0.5650770000000  0.5071000000000  0.4318560000000 1.0
C      1  0.5679560000000  0.5650580000000  0.4930450000000 1.0
C      1  0.5066360000000  0.5679420000000  0.4349860000000 1.0
C      1  0.4351150000000  0.4926580000000  0.4330290000000 1.0
C      1  0.4339200000000  0.5071320000000  0.5688470000000 1.0
C      1  0.5629620000000  0.4924870000000  0.5673490000000 1.0
C      1  0.4339070000000  0.4344170000000  0.4947430000000 1.0
C      1  0.4322350000000  0.5645900000000  0.5071680000000 1.0
C      1  0.5682250000000  0.4349480000000  0.5063290000000 1.0
C      1  0.4937320000000  0.4319290000000  0.4336050000000 1.0
C      1  0.4939420000000  0.5697330000000  0.5650150000000 1.0
C      1  0.5016210000000  0.4341180000000  0.5625160000000 1.0
C      1  0.5475600000000  0.5322710000000  0.4494700000000 1.0
C      1  0.4496790000000  0.5484340000000  0.5331800000000 1.0
C      1  0.5294540000000  0.4499150000000  0.5454500000000 1.0
C      1  0.4528940000000  0.4671680000000  0.4497360000000 1.0
C      1  0.4520850000000  0.5337320000000  0.5520990000000 1.0
C      1  0.5451840000000  0.4679220000000  0.5488080000000 1.0
C      1  0.5489980000000  0.4522120000000  0.5310680000000 1.0
C      1  0.5503680000000  0.5476900000000  0.4677490000000 1.0
C      1  0.4503240000000  0.4513140000000  0.4677780000000 1.0
C      1  0.4676400000000  0.5521070000000  0.5487030000000 1.0
C      1  0.4682220000000  0.4487490000000  0.4516820000000 1.0
C      1  0.5320740000000  0.5504900000000  0.4523340000000 1.0
C      1  0.5474750000000  0.5323640000000  0.5503940000000 1.0
C      1  0.4497350000000  0.5474570000000  0.4682280000000 1.0
C      1  0.5327820000000  0.4493200000000  0.4513310000000 1.0
C      1  0.4457440000000  0.4648850000000  0.5605780000000 1.0
C      1  0.4525250000000  0.5319310000000  0.4500360000000 1.0
C      1  0.5479550000000  0.4678440000000  0.4489470000000 1.0
C      1  0.5509620000000  0.4521190000000  0.4669690000000 1.0
C      1  0.5504280000000  0.5477490000000  0.5321020000000 1.0
C      1  0.4552670000000  0.4518930000000  0.5332100000000 1.0
C      1  0.4678400000000  0.5503310000000  0.4526170000000 1.0
C      1  0.4668280000000  0.4398200000000  0.5504080000000 1.0
C      1  0.5323870000000  0.5510040000000  0.5477220000000 1.0
C      1  0.4422530000000  0.5494950000000  0.5213530000000 1.0
C      1  0.5177900000000  0.4420720000000  0.5466610000000 1.0
C      1  0.5493240000000  0.5207490000000  0.4416720000000 1.0
C      1  0.5574650000000  0.4503400000000  0.5199490000000 1.0
C      1  0.5581450000000  0.5494060000000  0.4792950000000 1.0
C      1  0.4431370000000  0.4496740000000  0.4797940000000 1.0
C      1  0.4794140000000  0.5597010000000  0.5499920000000 1.0
C      1  0.4798240000000  0.4410990000000  0.4496070000000 1.0
C      1  0.5205030000000  0.5582360000000  0.4506340000000 1.0
C      1  0.4510770000000  0.4789050000000  0.4422830000000 1.0
C      1  0.4504560000000  0.5223290000000  0.5601370000000 1.0
C      1  0.5470040000000  0.4793330000000  0.5567510000000 1.0
C      1  0.4421290000000  0.5491230000000  0.4798860000000 1.0
C      1  0.5212980000000  0.4414650000000  0.4494260000000 1.0
C      1  0.5488920000000  0.5206550000000  0.5580180000000 1.0
C      1  0.5586470000000  0.4504120000000  0.4786200000000 1.0
C      1  0.5581330000000  0.5493310000000  0.5204920000000 1.0
C      1  0.4476060000000  0.4515280000000  0.5214870000000 1.0
C      1  0.4793530000000  0.5581350000000  0.4508130000000 1.0
C      1  0.4687810000000  0.4431730000000  0.5623070000000 1.0
C      1  0.5209730000000  0.5589880000000  0.5494920000000 1.0
C      1  0.4375110000000  0.4741730000000  0.5610130000000 1.0
C      1  0.4508310000000  0.5203010000000  0.4423880000000 1.0
C      1  0.5495570000000  0.4795340000000  0.4413700000000 1.0
C      1  0.4644820000000  0.4604230000000  0.4451260000000 1.0
C      1  0.4462240000000  0.4633000000000  0.4613550000000 1.0
C      1  0.4615680000000  0.4443020000000  0.4634250000000 1.0
C      1  0.5358260000000  0.5390650000000  0.4453370000000 1.0
C      1  0.5329700000000  0.4614890000000  0.5522880000000 1.0
C      1  0.4636760000000  0.5410060000000  0.5561930000000 1.0
C      1  0.5545280000000  0.5359860000000  0.4609190000000 1.0
C      1  0.5527610000000  0.4640530000000  0.5378410000000 1.0
C      1  0.4455800000000  0.5368060000000  0.5402570000000 1.0
C      1  0.5389160000000  0.5546610000000  0.4640310000000 1.0
C      1  0.5373830000000  0.4452870000000  0.5345050000000 1.0
C      1  0.4609720000000  0.5557460000000  0.5367300000000 1.0
C      1  0.4581890000000  0.4666580000000  0.5535040000000 1.0
C      1  0.4533040000000  0.4642550000000  0.5401890000000 1.0
C      1  0.4634020000000  0.4407340000000  0.5370920000000 1.0
C      1  0.5359640000000  0.5394850000000  0.5546720000000 1.0
C      1  0.5363270000000  0.4609740000000  0.4446360000000 1.0
C      1  0.4641280000000  0.5388310000000  0.4457090000000 1.0
C      1  0.5544390000000  0.5359650000000  0.5388980000000 1.0
C      1  0.5549530000000  0.4640220000000  0.4603600000000 1.0
C      1  0.4456670000000  0.5356360000000  0.4615550000000 1.0
C      1  0.5391300000000  0.5549420000000  0.5358910000000 1.0
C      1  0.5396650000000  0.4450120000000  0.4629750000000 1.0
C      1  0.4610760000000  0.5545090000000  0.4643610000000 1.0
C      1  0.5051520000000  0.4824140000000  0.5681030000000 1.0
C      1  0.5702750000000  0.5073000000000  0.4807830000000 1.0
C      1  0.4810850000000  0.5706190000000  0.5074990000000 1.0
C      1  0.4923680000000  0.5210990000000  0.5712380000000 1.0
C      1  0.4928640000000  0.4808820000000  0.4293700000000 1.0
C      1  0.5072920000000  0.5190380000000  0.4295010000000 1.0
C      1  0.4319000000000  0.4922160000000  0.4820880000000 1.0
C      1  0.4324750000000  0.5070970000000  0.5201930000000 1.0
C      1  0.5696220000000  0.4925410000000  0.5186600000000 1.0
C      1  0.5199130000000  0.4277450000000  0.5055700000000 1.0
C      1  0.5190730000000  0.5705820000000  0.4926670000000 1.0
C      1  0.4819900000000  0.4278980000000  0.4912140000000 1.0
C      1  0.5074960000000  0.4809740000000  0.4292330000000 1.0
C      1  0.5698320000000  0.5071640000000  0.5187750000000 1.0
C      1  0.4810660000000  0.5705120000000  0.4928580000000 1.0
C      1  0.4926680000000  0.5189620000000  0.4296200000000 1.0
C      1  0.4906460000000  0.4832530000000  0.5683920000000 1.0
C      1  0.5068690000000  0.5204370000000  0.5705060000000 1.0
C      1  0.4341040000000  0.4926360000000  0.5202610000000 1.0
C      1  0.4313340000000  0.5067870000000  0.4820180000000 1.0
C      1  0.5702920000000  0.4926690000000  0.4806940000000 1.0
C      1  0.5199340000000  0.4281450000000  0.4910270000000 1.0
C      1  0.5191120000000  0.5706460000000  0.5072920000000 1.0
C      1  0.4821690000000  0.4271280000000  0.5057300000000 1.0
C      1  0.5637100000000  0.4927000000000  0.5431700000000 1.0
C      1  0.5437460000000  0.5652610000000  0.4928580000000 1.0
C      1  0.4931270000000  0.5455820000000  0.5658920000000 1.0
C      1  0.4359650000000  0.5072390000000  0.5450880000000 1.0
C      1  0.4357840000000  0.4924200000000  0.4572190000000 1.0
C      1  0.5651510000000  0.5071630000000  0.4560780000000 1.0
C      1  0.4576380000000  0.4336980000000  0.4924150000000 1.0
C      1  0.4564570000000  0.5651980000000  0.5073430000000 1.0
C      1  0.5440960000000  0.4341120000000  0.5059540000000 1.0
C      1  0.5034530000000  0.4579220000000  0.5620870000000 1.0
C      1  0.5069500000000  0.5437240000000  0.4348480000000 1.0
C      1  0.4933240000000  0.4561000000000  0.4341770000000 1.0
C      1  0.5652180000000  0.4930760000000  0.4559840000000 1.0
C      1  0.5437840000000  0.5652600000000  0.5069430000000 1.0
C      1  0.4928670000000  0.5436690000000  0.4349270000000 1.0
C      1  0.4356060000000  0.5065130000000  0.4571980000000 1.0
C      1  0.4348910000000  0.4930340000000  0.5450590000000 1.0
C      1  0.5642610000000  0.5067780000000  0.5433780000000 1.0
C      1  0.4583380000000  0.4342600000000  0.5064910000000 1.0
C      1  0.4564380000000  0.5651500000000  0.4932510000000 1.0
C      1  0.5443690000000  0.4341790000000  0.4918450000000 1.0
C      1  0.5074160000000  0.4562000000000  0.4340980000000 1.0
C      1  0.5072310000000  0.5451240000000  0.5655610000000 1.0
C      1  0.4892460000000  0.4587100000000  0.5647490000000 1.0
C      1  0.5701090000000  0.4699930000000  0.4922060000000 1.0
C      1  0.4925940000000  0.5703410000000  0.4701780000000 1.0
C      1  0.4692120000000  0.4955730000000  0.5711960000000 1.0
C      1  0.4309440000000  0.5294350000000  0.4935580000000 1.0
C      1  0.4354850000000  0.4704670000000  0.5089200000000 1.0
C      1  0.5700450000000  0.5298160000000  0.5072690000000 1.0
C      1  0.5082240000000  0.4287620000000  0.4684790000000 1.0
C      1  0.5075870000000  0.5707700000000  0.5299720000000 1.0
C      1  0.4935600000000  0.4241540000000  0.5276880000000 1.0
C      1  0.5288820000000  0.5077580000000  0.5695400000000 1.0
C      1  0.5300270000000  0.4927450000000  0.4294270000000 1.0
C      1  0.4701500000000  0.5071840000000  0.4300830000000 1.0
C      1  0.5697460000000  0.4699440000000  0.5069880000000 1.0
C      1  0.4927940000000  0.5708150000000  0.5300490000000 1.0
C      1  0.4702240000000  0.4924070000000  0.4300360000000 1.0
C      1  0.4311460000000  0.5295040000000  0.5083280000000 1.0
C      1  0.4337960000000  0.4699140000000  0.4941760000000 1.0
C      1  0.5701350000000  0.5298800000000  0.4925010000000 1.0
C      1  0.5081660000000  0.4259550000000  0.5279020000000 1.0
C      1  0.5073600000000  0.5703700000000  0.4701080000000 1.0
C      1  0.4934130000000  0.4286670000000  0.4685410000000 1.0
C      1  0.5299490000000  0.5075130000000  0.4295260000000 1.0
C      1  0.5281380000000  0.4929980000000  0.5687680000000 1.0
C      1  0.4696120000000  0.5101290000000  0.5727160000000 1.0
C      1  0.4351920000000  0.5362530000000  0.4823060000000 1.0
C      1  0.4823900000000  0.4267940000000  0.5342640000000 1.0
C      1  0.5368370000000  0.4816610000000  0.4340830000000 1.0
C      1  0.5656490000000  0.4632650000000  0.4809810000000 1.0
C      1  0.5652830000000  0.5365450000000  0.5183550000000 1.0
C      1  0.4412750000000  0.4644760000000  0.5199210000000 1.0
C      1  0.5187370000000  0.5660920000000  0.5366870000000 1.0
C      1  0.5192960000000  0.4338240000000  0.4619380000000 1.0
C      1  0.4815110000000  0.5655000000000  0.4634990000000 1.0
C      1  0.4634360000000  0.5182510000000  0.4349200000000 1.0
C      1  0.4625330000000  0.4852090000000  0.5662750000000 1.0
C      1  0.5360650000000  0.5187630000000  0.5652370000000 1.0
C      1  0.4354890000000  0.5365160000000  0.5193820000000 1.0
C      1  0.4821670000000  0.4335090000000  0.4621050000000 1.0
C      1  0.5341990000000  0.4817550000000  0.5635900000000 1.0
C      1  0.5646830000000  0.4631670000000  0.5179420000000 1.0
C      1  0.5654260000000  0.5366730000000  0.4814250000000 1.0
C      1  0.4369200000000  0.4628740000000  0.4826930000000 1.0
C      1  0.5184110000000  0.5655710000000  0.4633400000000 1.0
C      1  0.5178180000000  0.4331480000000  0.5346960000000 1.0
C      1  0.4816480000000  0.5663790000000  0.5369440000000 1.0
C      1  0.4629820000000  0.5211670000000  0.5678530000000 1.0
C      1  0.4636310000000  0.4812190000000  0.4347790000000 1.0
C      1  0.5366320000000  0.5186020000000  0.4343510000000 1.0
C      1  0.5075720000000  0.5723740000000  0.5153620000000 1.0
C      1  0.5143230000000  0.5083940000000  0.5714320000000 1.0
C      1  0.5717340000000  0.5152190000000  0.5072700000000 1.0
C      1  0.4938810000000  0.4240450000000  0.5129580000000 1.0
C      1  0.4926000000000  0.5721820000000  0.4847680000000 1.0
C      1  0.5083500000000  0.4264770000000  0.4829830000000 1.0
C      1  0.4838210000000  0.4951320000000  0.5717110000000 1.0
C      1  0.4846990000000  0.5073320000000  0.4280410000000 1.0
C      1  0.5154370000000  0.4926210000000  0.4276550000000 1.0
C      1  0.4328770000000  0.4847810000000  0.5086760000000 1.0
C      1  0.4298260000000  0.5147690000000  0.4936340000000 1.0
C      1  0.5718220000000  0.4845890000000  0.4922480000000 1.0
C      1  0.5074720000000  0.5722160000000  0.4846900000000 1.0
C      1  0.5153580000000  0.5075040000000  0.4277560000000 1.0
C      1  0.5718600000000  0.5152780000000  0.4923980000000 1.0
C      1  0.4934820000000  0.4263810000000  0.4830410000000 1.0
C      1  0.4926890000000  0.5723830000000  0.5154450000000 1.0
C      1  0.5084810000000  0.4249520000000  0.5133170000000 1.0
C      1  0.4847730000000  0.4924410000000  0.4279670000000 1.0
C      1  0.4842230000000  0.5097160000000  0.5732020000000 1.0
C      1  0.5136180000000  0.4935400000000  0.5705150000000 1.0
C      1  0.4315010000000  0.4844090000000  0.4938890000000 1.0
C      1  0.4301770000000  0.5148550000000  0.5085090000000 1.0
C      1  0.5715010000000  0.4845380000000  0.5071070000000 1.0
C      1  0.5298030000000  0.4356810000000  0.5269760000000 1.0
C      1  0.5283200000000  0.5303290000000  0.4365050000000 1.0
C      1  0.4376390000000  0.5285890000000  0.5313620000000 1.0
C      1  0.4698560000000  0.5640960000000  0.5287810000000 1.0
C      1  0.4704650000000  0.4353800000000  0.4705820000000 1.0
C      1  0.5302060000000  0.5634840000000  0.4715760000000 1.0
C      1  0.4719360000000  0.4694150000000  0.4364660000000 1.0
C      1  0.4712350000000  0.5328020000000  0.5653030000000 1.0
C      1  0.5254660000000  0.4704750000000  0.5607820000000 1.0
C      1  0.5620440000000  0.4714960000000  0.5295330000000 1.0
C      1  0.5633290000000  0.5284290000000  0.4696360000000 1.0
C      1  0.4382370000000  0.4710520000000  0.4706780000000 1.0
C      1  0.5310580000000  0.4359070000000  0.4702770000000 1.0
C      1  0.5282030000000  0.5309120000000  0.5634120000000 1.0
C      1  0.4372370000000  0.5279690000000  0.4705180000000 1.0
C      1  0.4698010000000  0.5633720000000  0.4718390000000 1.0
C      1  0.4712580000000  0.4323430000000  0.5279170000000 1.0
C      1  0.5304160000000  0.5637690000000  0.5283430000000 1.0
C      1  0.4681970000000  0.4736230000000  0.5614590000000 1.0
C      1  0.4716360000000  0.5300910000000  0.4368690000000 1.0
C      1  0.5286710000000  0.4697950000000  0.4360090000000 1.0
C      1  0.5635590000000  0.4716070000000  0.4692630000000 1.0
C      1  0.5630690000000  0.5282780000000  0.5300990000000 1.0
C      1  0.4437320000000  0.4723680000000  0.5318020000000 1.0
C      1  0.5773960000000  0.5722020000000  0.4998830000000 1.0
C      1  0.4244880000000  0.5025760000000  0.5781990000000 1.0
C      1  0.5724090000000  0.5003990000000  0.4224560000000 1.0
C      1  0.4246040000000  0.4287920000000  0.5028610000000 1.0
C      1  0.4227190000000  0.5717420000000  0.5004000000000 1.0
C      1  0.5779320000000  0.4279210000000  0.4997290000000 1.0
C      1  0.4970220000000  0.4247800000000  0.5717630000000 1.0
C      1  0.4997640000000  0.5772810000000  0.4277360000000 1.0
C      1  0.5706230000000  0.4986370000000  0.5768930000000 1.0
C      1  0.5010270000000  0.5790580000000  0.5721090000000 1.0
C      1  0.4276210000000  0.4994390000000  0.4238180000000 1.0
C      1  0.5005930000000  0.4228160000000  0.4260520000000 1.0
END
