TITL C-1379265-1223-238 -8.59905003031304e-07 1000000 -2860.65721341719 0 0 400 (C1) n - 1
REM
REM in /nfs/bkarasulu/CARBON/AIRSS/Generating-Clusters/GAP-ML-2020/Higher-Symm/Selected-Sizes/TryA-Only_Ih-Symm/Larger-Clusters/Try2-MINAMP_6A
REM
REM
REM
REM
REM
REM ./C.cell (31579ac4e95a012ec27f3239692ae8a5)
REM
REM compiler GCC version 9.2.1 20190827 (Red Hat 9.2.1-1)
REM options -cpp -mtune=generic -march=x86-64 -g -O0 -fpre-include=/usr/include/finclude/math-vector-fortran.h
REM seed -1745992507 -1654954574 -870478722 -1781238219 2012705402 2087915596 -902611623 1761378027 337453546 1324471168 -1438818625 -1122653043 -1225198662 99708073 1844144605 -550391294 -1253486410 1582770074 755614450 -222652218 1731245410 -1663961475 996117303 -790099604 2146167875 -2053935977 2058237988 -948700849 26152180 205227164 -148489910 340471430 -162090440
REM
CELL 1.54180  100.00000  100.00000  100.00000   90.00000   90.00000   90.00000
LATT -1
SFAC C  
C      1  0.5140900000000  0.4284750000000  0.4747420000000 1.0
C      1  0.4288500000000  0.4764100000000  0.5140590000000 1.0
C      1  0.4750850000000  0.5136560000000  0.4290620000000 1.0
C      1  0.4855310000000  0.5725020000000  0.4758430000000 1.0
C      1  0.5144420000000  0.5724480000000  0.5237210000000 1.0
C      1  0.4854940000000  0.4276550000000  0.5239740000000 1.0
C      1  0.5712650000000  0.5234210000000  0.5142410000000 1.0
C      1  0.4292410000000  0.5239310000000  0.4856030000000 1.0
C      1  0.5709320000000  0.4763520000000  0.4857260000000 1.0
C      1  0.5249030000000  0.4860290000000  0.4295100000000 1.0
C      1  0.4750450000000  0.4857360000000  0.5704460000000 1.0
C      1  0.5248440000000  0.5135500000000  0.5706300000000 1.0
C      1  0.4301950000000  0.5143560000000  0.4750970000000 1.0
C      1  0.4750240000000  0.4285590000000  0.5142540000000 1.0
C      1  0.5144840000000  0.4763070000000  0.4280730000000 1.0
C      1  0.5700560000000  0.4859370000000  0.4752260000000 1.0
C      1  0.5699730000000  0.5137040000000  0.5246800000000 1.0
C      1  0.4300980000000  0.4859790000000  0.5246310000000 1.0
C      1  0.5248810000000  0.5715550000000  0.5138600000000 1.0
C      1  0.5238700000000  0.4277220000000  0.4852270000000 1.0
C      1  0.4748370000000  0.5712110000000  0.4854720000000 1.0
C      1  0.4855160000000  0.5233680000000  0.4280260000000 1.0
C      1  0.4854520000000  0.4760580000000  0.5714650000000 1.0
C      1  0.5144220000000  0.5233460000000  0.5718860000000 1.0
C      1  0.5076190000000  0.5451570000000  0.5335730000000 1.0
C      1  0.5438070000000  0.5340730000000  0.5077770000000 1.0
C      1  0.5349780000000  0.5042110000000  0.5461520000000 1.0
C      1  0.4926080000000  0.4548050000000  0.5333860000000 1.0
C      1  0.5049740000000  0.4535120000000  0.4649510000000 1.0
C      1  0.4927380000000  0.5453220000000  0.4656400000000 1.0
C      1  0.4563880000000  0.4661270000000  0.5076820000000 1.0
C      1  0.5436060000000  0.4665900000000  0.4922230000000 1.0
C      1  0.4568180000000  0.5335320000000  0.4922170000000 1.0
C      1  0.4651480000000  0.4954910000000  0.5458440000000 1.0
C      1  0.5347480000000  0.4951800000000  0.4542660000000 1.0
C      1  0.4651520000000  0.5044660000000  0.4538510000000 1.0
C      1  0.5455410000000  0.5046740000000  0.5351920000000 1.0
C      1  0.5344090000000  0.5462690000000  0.5048290000000 1.0
C      1  0.5079890000000  0.5336130000000  0.5445440000000 1.0
C      1  0.4546050000000  0.4950820000000  0.5350560000000 1.0
C      1  0.4546120000000  0.5048670000000  0.4646300000000 1.0
C      1  0.5455230000000  0.4955410000000  0.4648420000000 1.0
C      1  0.4656770000000  0.4540010000000  0.5049480000000 1.0
C      1  0.4661030000000  0.5455850000000  0.4947750000000 1.0
C      1  0.5329060000000  0.4551140000000  0.4924770000000 1.0
C      1  0.4922020000000  0.4662040000000  0.5442230000000 1.0
C      1  0.4921860000000  0.5335750000000  0.4553620000000 1.0
C      1  0.5079840000000  0.4656850000000  0.4555460000000 1.0
C      1  0.5043200000000  0.5454560000000  0.4753890000000 1.0
C      1  0.5439390000000  0.4755050000000  0.5045300000000 1.0
C      1  0.4737130000000  0.5080080000000  0.5459660000000 1.0
C      1  0.4924260000000  0.4533800000000  0.4731150000000 1.0
C      1  0.5049220000000  0.4542110000000  0.5243650000000 1.0
C      1  0.4952520000000  0.5455890000000  0.5247070000000 1.0
C      1  0.4560830000000  0.5245920000000  0.5046320000000 1.0
C      1  0.5442890000000  0.5251740000000  0.4951320000000 1.0
C      1  0.4556020000000  0.4752600000000  0.4952020000000 1.0
C      1  0.5264550000000  0.4917090000000  0.5459630000000 1.0
C      1  0.4738200000000  0.4921060000000  0.4540430000000 1.0
C      1  0.5261170000000  0.5076470000000  0.4542970000000 1.0
C      1  0.5454670000000  0.5080540000000  0.4733090000000 1.0
C      1  0.4744200000000  0.5459150000000  0.5071860000000 1.0
C      1  0.5045920000000  0.4749930000000  0.5446490000000 1.0
C      1  0.4547030000000  0.4924260000000  0.4732290000000 1.0
C      1  0.4547810000000  0.5075770000000  0.5265920000000 1.0
C      1  0.5452610000000  0.4921270000000  0.5265810000000 1.0
C      1  0.5238800000000  0.4544550000000  0.5047220000000 1.0
C      1  0.5260330000000  0.5464560000000  0.4923110000000 1.0
C      1  0.4738160000000  0.4536860000000  0.4924100000000 1.0
C      1  0.4955140000000  0.5248370000000  0.5451120000000 1.0
C      1  0.4955550000000  0.4748900000000  0.4549000000000 1.0
C      1  0.5044190000000  0.5246000000000  0.4549420000000 1.0
C      1  0.5235760000000  0.5137730000000  0.5471150000000 1.0
C      1  0.5206700000000  0.5427550000000  0.5257270000000 1.0
C      1  0.5398490000000  0.5268700000000  0.5217980000000 1.0
C      1  0.4764150000000  0.4859260000000  0.5470070000000 1.0
C      1  0.5237960000000  0.4851270000000  0.4531400000000 1.0
C      1  0.4764050000000  0.5139300000000  0.4525580000000 1.0
C      1  0.4793760000000  0.4571350000000  0.5258060000000 1.0
C      1  0.5134590000000  0.4515740000000  0.4769230000000 1.0
C      1  0.4776230000000  0.5455310000000  0.4716440000000 1.0
C      1  0.4601530000000  0.4729920000000  0.5217680000000 1.0
C      1  0.5407820000000  0.4738550000000  0.4783260000000 1.0
C      1  0.4604770000000  0.5267760000000  0.4780390000000 1.0
C      1  0.5216010000000  0.5260370000000  0.5412060000000 1.0
C      1  0.5461850000000  0.5145460000000  0.5238600000000 1.0
C      1  0.5226070000000  0.5484090000000  0.5135330000000 1.0
C      1  0.4784330000000  0.4736720000000  0.5411590000000 1.0
C      1  0.4784540000000  0.5261620000000  0.4586530000000 1.0
C      1  0.5218500000000  0.4728560000000  0.4596040000000 1.0
C      1  0.4536670000000  0.4852020000000  0.5239250000000 1.0
C      1  0.4538370000000  0.5146230000000  0.4758170000000 1.0
C      1  0.5466010000000  0.4860980000000  0.4762260000000 1.0
C      1  0.4774460000000  0.4516830000000  0.5135670000000 1.0
C      1  0.4774030000000  0.5483830000000  0.4856930000000 1.0
C      1  0.5255450000000  0.4572520000000  0.4790990000000 1.0
C      1  0.5418820000000  0.4911800000000  0.5660070000000 1.0
C      1  0.4924840000000  0.5645410000000  0.5415280000000 1.0
C      1  0.5633880000000  0.5416800000000  0.4927500000000 1.0
C      1  0.4576820000000  0.5089590000000  0.5649340000000 1.0
C      1  0.5424310000000  0.5090430000000  0.4352170000000 1.0
C      1  0.4575120000000  0.4901990000000  0.4353740000000 1.0
C      1  0.5080950000000  0.4358180000000  0.5416090000000 1.0
C      1  0.4917780000000  0.4335300000000  0.4579400000000 1.0
C      1  0.5086890000000  0.5638100000000  0.4575460000000 1.0
C      1  0.4371620000000  0.4582280000000  0.4919960000000 1.0
C      1  0.5624570000000  0.4582500000000  0.5079890000000 1.0
C      1  0.4374430000000  0.5417900000000  0.5077890000000 1.0
C      1  0.4927440000000  0.5413850000000  0.5641630000000 1.0
C      1  0.5652390000000  0.4914220000000  0.5420860000000 1.0
C      1  0.5418180000000  0.5660880000000  0.4914680000000 1.0
C      1  0.5075550000000  0.4580460000000  0.5634760000000 1.0
C      1  0.5077540000000  0.5417210000000  0.4365490000000 1.0
C      1  0.4928130000000  0.4579000000000  0.4362610000000 1.0
C      1  0.4354910000000  0.5089700000000  0.5424340000000 1.0
C      1  0.4357330000000  0.4909860000000  0.4572350000000 1.0
C      1  0.5646810000000  0.5090790000000  0.4576170000000 1.0
C      1  0.4577970000000  0.4347460000000  0.4914390000000 1.0
C      1  0.4576680000000  0.5642390000000  0.5090720000000 1.0
C      1  0.5416510000000  0.4362970000000  0.5077870000000 1.0
C      1  0.4950390000000  0.5145300000000  0.4350090000000 1.0
C      1  0.5146900000000  0.4340740000000  0.4948750000000 1.0
C      1  0.4416200000000  0.4926090000000  0.5163120000000 1.0
C      1  0.5049150000000  0.4848680000000  0.4351340000000 1.0
C      1  0.4950280000000  0.4849500000000  0.5646100000000 1.0
C      1  0.5048730000000  0.5146330000000  0.5649420000000 1.0
C      1  0.4838610000000  0.5603970000000  0.4927150000000 1.0
C      1  0.5160770000000  0.5606690000000  0.5066550000000 1.0
C      1  0.4840040000000  0.4395500000000  0.5068740000000 1.0
C      1  0.5583070000000  0.5073250000000  0.5162830000000 1.0
C      1  0.4417540000000  0.5074540000000  0.4834270000000 1.0
C      1  0.5585990000000  0.4930000000000  0.4836500000000 1.0
C      1  0.5162960000000  0.4925010000000  0.4409000000000 1.0
C      1  0.4363890000000  0.5150230000000  0.4949110000000 1.0
C      1  0.4952080000000  0.4339360000000  0.5148800000000 1.0
C      1  0.4836960000000  0.5068180000000  0.4404540000000 1.0
C      1  0.4837180000000  0.4927730000000  0.5591720000000 1.0
C      1  0.5162360000000  0.5068400000000  0.5593460000000 1.0
C      1  0.5639680000000  0.4853450000000  0.4951230000000 1.0
C      1  0.5639030000000  0.5149460000000  0.5048390000000 1.0
C      1  0.4359480000000  0.4851840000000  0.5047040000000 1.0
C      1  0.5047860000000  0.5658770000000  0.5147850000000 1.0
C      1  0.5067460000000  0.4394090000000  0.4835260000000 1.0
C      1  0.4952500000000  0.5660800000000  0.4850330000000 1.0
C      1  0.4613170000000  0.4842840000000  0.5680340000000 1.0
C      1  0.4841760000000  0.5673930000000  0.4626930000000 1.0
C      1  0.5674370000000  0.4627490000000  0.4839910000000 1.0
C      1  0.5385030000000  0.5158540000000  0.5684910000000 1.0
C      1  0.4612970000000  0.5149300000000  0.4313710000000 1.0
C      1  0.5386640000000  0.4844610000000  0.4316250000000 1.0
C      1  0.5163080000000  0.4313690000000  0.4611360000000 1.0
C      1  0.4836350000000  0.4315280000000  0.5375110000000 1.0
C      1  0.5167120000000  0.5685820000000  0.5372300000000 1.0
C      1  0.4324320000000  0.5376020000000  0.4837400000000 1.0
C      1  0.5681520000000  0.5370350000000  0.5166190000000 1.0
C      1  0.4320920000000  0.4627780000000  0.5159780000000 1.0
C      1  0.4835210000000  0.4624850000000  0.5679480000000 1.0
C      1  0.5679340000000  0.4844810000000  0.4614720000000 1.0
C      1  0.4610080000000  0.5677730000000  0.4842230000000 1.0
C      1  0.5167220000000  0.5369160000000  0.5683130000000 1.0
C      1  0.5168110000000  0.4627350000000  0.4313940000000 1.0
C      1  0.4836070000000  0.5369370000000  0.4315290000000 1.0
C      1  0.4318550000000  0.5155140000000  0.4613020000000 1.0
C      1  0.4318540000000  0.4844240000000  0.5384130000000 1.0
C      1  0.5683630000000  0.5159220000000  0.5383700000000 1.0
C      1  0.5373650000000  0.4317750000000  0.4834700000000 1.0
C      1  0.5384830000000  0.5684730000000  0.5160390000000 1.0
C      1  0.4614040000000  0.4317340000000  0.5159010000000 1.0
C      1  0.5582010000000  0.4587440000000  0.4942180000000 1.0
C      1  0.4575900000000  0.4956680000000  0.5601360000000 1.0
C      1  0.4950980000000  0.5595660000000  0.4582640000000 1.0
C      1  0.4416830000000  0.5414870000000  0.4940930000000 1.0
C      1  0.5589350000000  0.5409500000000  0.5064750000000 1.0
C      1  0.4412960000000  0.4586160000000  0.5057680000000 1.0
C      1  0.5414920000000  0.5042770000000  0.5608790000000 1.0
C      1  0.4575340000000  0.5037240000000  0.4395590000000 1.0
C      1  0.5423480000000  0.4957170000000  0.4397830000000 1.0
C      1  0.5047950000000  0.4390190000000  0.4580860000000 1.0
C      1  0.4944030000000  0.4402590000000  0.5410120000000 1.0
C      1  0.5061210000000  0.5598030000000  0.5407380000000 1.0
C      1  0.4576540000000  0.5597520000000  0.4957130000000 1.0
C      1  0.4938790000000  0.4585660000000  0.5588990000000 1.0
C      1  0.5599530000000  0.4957380000000  0.4574520000000 1.0
C      1  0.5410490000000  0.4407030000000  0.4940870000000 1.0
C      1  0.5414640000000  0.5607160000000  0.5045330000000 1.0
C      1  0.4577150000000  0.4398190000000  0.5046540000000 1.0
C      1  0.5063630000000  0.5405740000000  0.5593440000000 1.0
C      1  0.5066160000000  0.4587220000000  0.4405360000000 1.0
C      1  0.4939350000000  0.5410920000000  0.4406250000000 1.0
C      1  0.4401040000000  0.5044510000000  0.4570810000000 1.0
C      1  0.4399970000000  0.4955980000000  0.5424460000000 1.0
C      1  0.5603310000000  0.5046670000000  0.5417610000000 1.0
C      1  0.4408670000000  0.4617000000000  0.5488180000000 1.0
C      1  0.4612180000000  0.5480060000000  0.4409800000000 1.0
C      1  0.5490040000000  0.4413620000000  0.4612720000000 1.0
C      1  0.5592340000000  0.5383310000000  0.5491400000000 1.0
C      1  0.4408760000000  0.5379550000000  0.4506750000000 1.0
C      1  0.5586510000000  0.4618480000000  0.4510640000000 1.0
C      1  0.5389180000000  0.4513000000000  0.4404920000000 1.0
C      1  0.4612600000000  0.4511660000000  0.5586440000000 1.0
C      1  0.5385570000000  0.5486110000000  0.5585770000000 1.0
C      1  0.4507060000000  0.5585790000000  0.4610460000000 1.0
C      1  0.5492500000000  0.5581950000000  0.5382730000000 1.0
C      1  0.4507900000000  0.4416240000000  0.5382560000000 1.0
C      1  0.4612960000000  0.4412700000000  0.5488300000000 1.0
C      1  0.5493000000000  0.4618570000000  0.4409200000000 1.0
C      1  0.4407580000000  0.5487210000000  0.4608220000000 1.0
C      1  0.5386240000000  0.5584910000000  0.5487620000000 1.0
C      1  0.5385670000000  0.4417360000000  0.4506120000000 1.0
C      1  0.4619880000000  0.5569710000000  0.4515150000000 1.0
C      1  0.4507310000000  0.5374740000000  0.4409480000000 1.0
C      1  0.4508700000000  0.4617530000000  0.5583320000000 1.0
C      1  0.5491170000000  0.5381510000000  0.5584700000000 1.0
C      1  0.5587450000000  0.4513040000000  0.4614880000000 1.0
C      1  0.5594650000000  0.5488090000000  0.5386570000000 1.0
C      1  0.4407070000000  0.4512240000000  0.5383480000000 1.0
C      1  0.5692000000000  0.5128250000000  0.4712420000000 1.0
C      1  0.5120530000000  0.4708390000000  0.5689680000000 1.0
C      1  0.4710560000000  0.5695120000000  0.5126270000000 1.0
C      1  0.4310140000000  0.4873960000000  0.4710280000000 1.0
C      1  0.5687930000000  0.4863970000000  0.5287580000000 1.0
C      1  0.4312140000000  0.5134240000000  0.5289200000000 1.0
C      1  0.4867610000000  0.5289290000000  0.5685500000000 1.0
C      1  0.5122580000000  0.5287480000000  0.4310300000000 1.0
C      1  0.4867910000000  0.4704210000000  0.4316020000000 1.0
C      1  0.5287640000000  0.4305070000000  0.5123100000000 1.0
C      1  0.4711080000000  0.4297760000000  0.4875580000000 1.0
C      1  0.5287650000000  0.5698880000000  0.4860860000000 1.0
C      1  0.5125960000000  0.5695630000000  0.4704290000000 1.0
C      1  0.4712430000000  0.5126530000000  0.5696520000000 1.0
C      1  0.5681300000000  0.4710690000000  0.5122170000000 1.0
C      1  0.4864560000000  0.4299070000000  0.4709950000000 1.0
C      1  0.4866080000000  0.5689350000000  0.5289820000000 1.0
C      1  0.5133220000000  0.4306320000000  0.5288840000000 1.0
C      1  0.5286340000000  0.4860510000000  0.5695000000000 1.0
C      1  0.5290070000000  0.5134280000000  0.4307070000000 1.0
C      1  0.4710770000000  0.4866550000000  0.4304790000000 1.0
C      1  0.4318920000000  0.5287820000000  0.5122270000000 1.0
C      1  0.4319180000000  0.4709690000000  0.4866990000000 1.0
C      1  0.5678640000000  0.5291700000000  0.4867440000000 1.0
C      1  0.5828000000000  0.5131880000000  0.4784750000000 1.0
C      1  0.5115470000000  0.4781640000000  0.5826930000000 1.0
C      1  0.4781250000000  0.5833710000000  0.5127810000000 1.0
C      1  0.4174620000000  0.4871830000000  0.4785890000000 1.0
C      1  0.5824330000000  0.4865730000000  0.5212420000000 1.0
C      1  0.4175020000000  0.5129760000000  0.5211550000000 1.0
C      1  0.4876490000000  0.5214170000000  0.5825760000000 1.0
C      1  0.5119980000000  0.5212360000000  0.4173410000000 1.0
C      1  0.4875550000000  0.4777920000000  0.4176110000000 1.0
C      1  0.5209460000000  0.4170440000000  0.5118750000000 1.0
C      1  0.4781100000000  0.4160230000000  0.4874420000000 1.0
C      1  0.5212140000000  0.5835310000000  0.4864090000000 1.0
C      1  0.5118170000000  0.5832390000000  0.4779750000000 1.0
C      1  0.4784170000000  0.5128530000000  0.5833030000000 1.0
C      1  0.5819280000000  0.4783740000000  0.5116470000000 1.0
C      1  0.4868830000000  0.4161670000000  0.4783020000000 1.0
C      1  0.4872270000000  0.5828780000000  0.5214950000000 1.0
C      1  0.5121720000000  0.4170510000000  0.5207970000000 1.0
C      1  0.5211060000000  0.4864220000000  0.5831180000000 1.0
C      1  0.5214490000000  0.5129130000000  0.4168830000000 1.0
C      1  0.4783490000000  0.4863630000000  0.4167860000000 1.0
C      1  0.4181500000000  0.5213260000000  0.5117280000000 1.0
C      1  0.4180990000000  0.4787550000000  0.4879400000000 1.0
C      1  0.5819020000000  0.5217750000000  0.4876750000000 1.0
C      1  0.4751180000000  0.5357300000000  0.5160270000000 1.0
C      1  0.5353820000000  0.5171440000000  0.4740690000000 1.0
C      1  0.5145680000000  0.4739130000000  0.5350880000000 1.0
C      1  0.5244520000000  0.4641420000000  0.5146230000000 1.0
C      1  0.4743080000000  0.4640440000000  0.4837330000000 1.0
C      1  0.5248800000000  0.5359570000000  0.4838480000000 1.0
C      1  0.4647650000000  0.4833460000000  0.4741660000000 1.0
C      1  0.5350060000000  0.4831160000000  0.5254850000000 1.0
C      1  0.4648000000000  0.5167840000000  0.5258730000000 1.0
C      1  0.4855090000000  0.5259680000000  0.5356720000000 1.0
C      1  0.5144210000000  0.5258460000000  0.4644220000000 1.0
C      1  0.4852940000000  0.4740980000000  0.4641870000000 1.0
C      1  0.5344850000000  0.4742970000000  0.5145890000000 1.0
C      1  0.5143230000000  0.5358570000000  0.4745270000000 1.0
C      1  0.4746240000000  0.5171560000000  0.5359450000000 1.0
C      1  0.4651280000000  0.5257260000000  0.5151690000000 1.0
C      1  0.4646940000000  0.4742670000000  0.4847750000000 1.0
C      1  0.5350630000000  0.5261370000000  0.4847220000000 1.0
C      1  0.4841240000000  0.4640040000000  0.4739040000000 1.0
C      1  0.4855150000000  0.5358550000000  0.5254960000000 1.0
C      1  0.5146130000000  0.4640280000000  0.5247890000000 1.0
C      1  0.5252490000000  0.4829110000000  0.5355610000000 1.0
C      1  0.5252890000000  0.5169750000000  0.4642510000000 1.0
C      1  0.4747870000000  0.4832900000000  0.4642500000000 1.0
C      1  0.5313360000000  0.4617380000000  0.5591180000000 1.0
C      1  0.4623510000000  0.5591840000000  0.5320260000000 1.0
C      1  0.5591150000000  0.5321720000000  0.4618830000000 1.0
C      1  0.4679200000000  0.5441960000000  0.5549410000000 1.0
C      1  0.5312530000000  0.5392360000000  0.4387900000000 1.0
C      1  0.4680750000000  0.4551120000000  0.4454510000000 1.0
C      1  0.5386560000000  0.4393530000000  0.5311040000000 1.0
C      1  0.4620080000000  0.4399640000000  0.4682280000000 1.0
C      1  0.5442120000000  0.5551400000000  0.4674680000000 1.0
C      1  0.4392040000000  0.4680150000000  0.4609840000000 1.0
C      1  0.5542980000000  0.4675030000000  0.5441500000000 1.0
C      1  0.4418620000000  0.5326750000000  0.5427690000000 1.0
C      1  0.4620170000000  0.5320190000000  0.5594950000000 1.0
C      1  0.5586430000000  0.4621350000000  0.5316280000000 1.0
C      1  0.5318650000000  0.5594700000000  0.4618680000000 1.0
C      1  0.5437950000000  0.4673560000000  0.5547350000000 1.0
C      1  0.5425920000000  0.5327170000000  0.4417030000000 1.0
C      1  0.4622270000000  0.4672590000000  0.4407760000000 1.0
C      1  0.4392210000000  0.5392650000000  0.5314020000000 1.0
C      1  0.4426570000000  0.4570520000000  0.4679060000000 1.0
C      1  0.5544720000000  0.5443010000000  0.4678440000000 1.0
C      1  0.4676560000000  0.4442690000000  0.4557820000000 1.0
C      1  0.4679710000000  0.5548020000000  0.5443370000000 1.0
C      1  0.5319080000000  0.4428170000000  0.5421740000000 1.0
C      1  0.5297350000000  0.4341260000000  0.4590450000000 1.0
C      1  0.4332850000000  0.4601260000000  0.5296930000000 1.0
C      1  0.4593090000000  0.5286210000000  0.4335730000000 1.0
C      1  0.4716310000000  0.5597970000000  0.4623010000000 1.0
C      1  0.5302150000000  0.5662100000000  0.5399140000000 1.0
C      1  0.4699900000000  0.4338370000000  0.5400110000000 1.0
C      1  0.5671750000000  0.5399400000000  0.5301980000000 1.0
C      1  0.4334560000000  0.5400360000000  0.4698710000000 1.0
C      1  0.5659540000000  0.4601700000000  0.4702940000000 1.0
C      1  0.5409620000000  0.4708050000000  0.4333190000000 1.0
C      1  0.4593290000000  0.4706680000000  0.5657180000000 1.0
C      1  0.5408260000000  0.5293540000000  0.5662120000000 1.0
C      1  0.4335400000000  0.5292510000000  0.4594440000000 1.0
C      1  0.4593740000000  0.4341550000000  0.5294460000000 1.0
C      1  0.5304630000000  0.4601690000000  0.4328000000000 1.0
C      1  0.5657990000000  0.4708080000000  0.4596780000000 1.0
C      1  0.5669690000000  0.5295140000000  0.5407880000000 1.0
C      1  0.4334940000000  0.4706940000000  0.5403360000000 1.0
C      1  0.5408380000000  0.5658700000000  0.5294640000000 1.0
C      1  0.5400850000000  0.4339010000000  0.4698290000000 1.0
C      1  0.4594040000000  0.5643180000000  0.4709060000000 1.0
C      1  0.4698370000000  0.5392910000000  0.4332590000000 1.0
C      1  0.4698740000000  0.4599820000000  0.5661370000000 1.0
C      1  0.5301800000000  0.5398000000000  0.5663990000000 1.0
C      1  0.5194920000000  0.4526990000000  0.5576700000000 1.0
C      1  0.4528060000000  0.5574640000000  0.5207960000000 1.0
C      1  0.5583330000000  0.5208070000000  0.4523180000000 1.0
C      1  0.4818750000000  0.5482420000000  0.5585770000000 1.0
C      1  0.5197530000000  0.5476230000000  0.4421580000000 1.0
C      1  0.4819580000000  0.4508570000000  0.4418020000000 1.0
C      1  0.5471840000000  0.4423660000000  0.5196430000000 1.0
C      1  0.4528590000000  0.4413440000000  0.4798330000000 1.0
C      1  0.5483300000000  0.5592700000000  0.4811130000000 1.0
C      1  0.4418660000000  0.4789950000000  0.4517350000000 1.0
C      1  0.5585870000000  0.4809670000000  0.5487710000000 1.0
C      1  0.4418330000000  0.5204370000000  0.5489890000000 1.0
C      1  0.4524410000000  0.5206970000000  0.5585510000000 1.0
C      1  0.5565890000000  0.4528830000000  0.5200260000000 1.0
C      1  0.5204800000000  0.5573330000000  0.4524550000000 1.0
C      1  0.5484320000000  0.4808170000000  0.5590970000000 1.0
C      1  0.5488680000000  0.5205140000000  0.4416390000000 1.0
C      1  0.4523960000000  0.4784070000000  0.4421630000000 1.0
C      1  0.4425590000000  0.5477630000000  0.5199880000000 1.0
C      1  0.4428190000000  0.4513470000000  0.4804160000000 1.0
C      1  0.5580400000000  0.5485880000000  0.4817800000000 1.0
C      1  0.4813130000000  0.4401960000000  0.4515470000000 1.0
C      1  0.4818120000000  0.5585730000000  0.5484100000000 1.0
C      1  0.5194190000000  0.4423160000000  0.5480020000000 1.0
C      1  0.4919370000000  0.4408740000000  0.4811060000000 1.0
C      1  0.4420540000000  0.4818740000000  0.4922280000000 1.0
C      1  0.4813840000000  0.4917340000000  0.4415800000000 1.0
C      1  0.5073510000000  0.5592820000000  0.4813990000000 1.0
C      1  0.4924900000000  0.5592310000000  0.5180970000000 1.0
C      1  0.5076160000000  0.4406130000000  0.5181730000000 1.0
C      1  0.5578560000000  0.5183740000000  0.4923420000000 1.0
C      1  0.4425200000000  0.5180940000000  0.5074660000000 1.0
C      1  0.5575140000000  0.4819090000000  0.5074490000000 1.0
C      1  0.5185320000000  0.5077930000000  0.4417900000000 1.0
C      1  0.4814320000000  0.5078800000000  0.5583310000000 1.0
C      1  0.5184940000000  0.4916950000000  0.5582390000000 1.0
C      1  0.4423970000000  0.4922630000000  0.4810980000000 1.0
C      1  0.4814500000000  0.4410440000000  0.4920020000000 1.0
C      1  0.4925130000000  0.4814150000000  0.4412880000000 1.0
C      1  0.5576920000000  0.5080590000000  0.4812500000000 1.0
C      1  0.5574650000000  0.4921010000000  0.5185550000000 1.0
C      1  0.4424920000000  0.5078480000000  0.5186730000000 1.0
C      1  0.5184210000000  0.5591020000000  0.4916880000000 1.0
C      1  0.5179460000000  0.4407920000000  0.5073450000000 1.0
C      1  0.4815510000000  0.5587140000000  0.5076670000000 1.0
C      1  0.5073570000000  0.5180230000000  0.4414730000000 1.0
C      1  0.5073990000000  0.4815050000000  0.5582450000000 1.0
C      1  0.4924930000000  0.5181560000000  0.5587090000000 1.0
C      1  0.5261650000000  0.4717950000000  0.5668310000000 1.0
C      1  0.4724580000000  0.5667570000000  0.5266550000000 1.0
C      1  0.4724870000000  0.5266990000000  0.5666110000000 1.0
C      1  0.5265140000000  0.5277860000000  0.4324730000000 1.0
C      1  0.5277310000000  0.4320790000000  0.5266140000000 1.0
C      1  0.4722600000000  0.4326370000000  0.4734970000000 1.0
C      1  0.5265540000000  0.5673760000000  0.4717950000000 1.0
C      1  0.5662490000000  0.4721900000000  0.5262860000000 1.0
C      1  0.4330240000000  0.5277930000000  0.5265260000000 1.0
C      1  0.4330500000000  0.4730960000000  0.4723350000000 1.0
C      1  0.5660990000000  0.5268720000000  0.4724360000000 1.0
C      1  0.4725230000000  0.4726680000000  0.4334580000000 1.0
C      1  0.5305160000000  0.4674190000000  0.4703410000000 1.0
C      1  0.4700730000000  0.5325040000000  0.4685150000000 1.0
C      1  0.4706000000000  0.4673710000000  0.5306550000000 1.0
C      1  0.5293070000000  0.5324250000000  0.5305780000000 1.0
END
