TITL C-1379267-1329-12 5.07134400021267e-08 1000000 -1725.24043617974 0 0 240 (Td) n - 1
REM
REM in /nfs/bkarasulu/CARBON/AIRSS/Generating-Clusters/GAP-ML-2020/Higher-Symm/Selected-Sizes/TryA-Only_Ih-Symm/Larger-Clusters/Try2-MINAMP_6A
REM
REM
REM
REM
REM
REM ./C.cell (31579ac4e95a012ec27f3239692ae8a5)
REM
REM compiler GCC version 9.2.1 20190827 (Red Hat 9.2.1-1)
REM options -cpp -mtune=generic -march=x86-64 -g -O0 -fpre-include=/usr/include/finclude/math-vector-fortran.h
REM seed 891430912 -868533919 1036505683 371741153 626340760 530569510 1939375441 1397059424 -1160137851 2125947669 726908955 -907516682 -1658645272 805884937 -1350893028 -757930868 -1522271324 1240067450 -2015905975 472452293 -695353486 1039727931 989096134 -1077563709 2053393674 -65010160 -2052193841 1568918119 510431588 1984743127 -858794015 1227094373 178143632
REM
CELL 1.54180  100.00000  100.00000  100.00000   90.00000   90.00000   90.00000
LATT -1
SFAC C  
C      1  0.4781990000000  0.5555590000000  0.4551960000000 1.0
C      1  0.4551960000000  0.4781990000000  0.5555590000000 1.0
C      1  0.5555590000000  0.4551960000000  0.4781990000000 1.0
C      1  0.4781990000000  0.4444410000000  0.5448040000000 1.0
C      1  0.5218010000000  0.4444410000000  0.4551960000000 1.0
C      1  0.5218010000000  0.5555590000000  0.5448040000000 1.0
C      1  0.4551960000000  0.5218010000000  0.4444410000000 1.0
C      1  0.5448040000000  0.5218010000000  0.5555590000000 1.0
C      1  0.5448040000000  0.4781990000000  0.4444410000000 1.0
C      1  0.5555590000000  0.5448040000000  0.5218010000000 1.0
C      1  0.4444410000000  0.5448040000000  0.4781990000000 1.0
C      1  0.4444410000000  0.4551960000000  0.5218010000000 1.0
C      1  0.4781990000000  0.4551960000000  0.5555590000000 1.0
C      1  0.4551960000000  0.5555590000000  0.4781990000000 1.0
C      1  0.5555590000000  0.4781990000000  0.4551960000000 1.0
C      1  0.4781990000000  0.5448040000000  0.4444410000000 1.0
C      1  0.5218010000000  0.4551960000000  0.4444410000000 1.0
C      1  0.5218010000000  0.5448040000000  0.5555590000000 1.0
C      1  0.4551960000000  0.4444410000000  0.5218010000000 1.0
C      1  0.5448040000000  0.5555590000000  0.5218010000000 1.0
C      1  0.5448040000000  0.4444410000000  0.4781990000000 1.0
C      1  0.5555590000000  0.5218010000000  0.5448040000000 1.0
C      1  0.4444410000000  0.4781990000000  0.5448040000000 1.0
C      1  0.4444410000000  0.5218010000000  0.4551960000000 1.0
C      1  0.4784280000000  0.5398850000000  0.5601620000000 1.0
C      1  0.5601620000000  0.4784280000000  0.5398850000000 1.0
C      1  0.5398850000000  0.5601620000000  0.4784280000000 1.0
C      1  0.4784280000000  0.4601150000000  0.4398380000000 1.0
C      1  0.5215720000000  0.4601150000000  0.5601620000000 1.0
C      1  0.5215720000000  0.5398850000000  0.4398380000000 1.0
C      1  0.5601620000000  0.5215720000000  0.4601150000000 1.0
C      1  0.4398380000000  0.5215720000000  0.5398850000000 1.0
C      1  0.4398380000000  0.4784280000000  0.4601150000000 1.0
C      1  0.5398850000000  0.4398380000000  0.5215720000000 1.0
C      1  0.4601150000000  0.4398380000000  0.4784280000000 1.0
C      1  0.4601150000000  0.5601620000000  0.5215720000000 1.0
C      1  0.4784280000000  0.5601620000000  0.5398850000000 1.0
C      1  0.5601620000000  0.5398850000000  0.4784280000000 1.0
C      1  0.5398850000000  0.4784280000000  0.5601620000000 1.0
C      1  0.4784280000000  0.4398380000000  0.4601150000000 1.0
C      1  0.5215720000000  0.5601620000000  0.4601150000000 1.0
C      1  0.5215720000000  0.4398380000000  0.5398850000000 1.0
C      1  0.5601620000000  0.4601150000000  0.5215720000000 1.0
C      1  0.4398380000000  0.5398850000000  0.5215720000000 1.0
C      1  0.4398380000000  0.4601150000000  0.4784280000000 1.0
C      1  0.5398850000000  0.5215720000000  0.4398380000000 1.0
C      1  0.4601150000000  0.4784280000000  0.4398380000000 1.0
C      1  0.4601150000000  0.5215720000000  0.5601620000000 1.0
C      1  0.5515880000000  0.4380940000000  0.4892430000000 1.0
C      1  0.4892430000000  0.5515880000000  0.4380940000000 1.0
C      1  0.4380940000000  0.4892430000000  0.5515880000000 1.0
C      1  0.5515880000000  0.5619060000000  0.5107570000000 1.0
C      1  0.4484120000000  0.5619060000000  0.4892430000000 1.0
C      1  0.4484120000000  0.4380940000000  0.5107570000000 1.0
C      1  0.4892430000000  0.4484120000000  0.5619060000000 1.0
C      1  0.5107570000000  0.4484120000000  0.4380940000000 1.0
C      1  0.5107570000000  0.5515880000000  0.5619060000000 1.0
C      1  0.4380940000000  0.5107570000000  0.4484120000000 1.0
C      1  0.5619060000000  0.5107570000000  0.5515880000000 1.0
C      1  0.5619060000000  0.4892430000000  0.4484120000000 1.0
C      1  0.5515880000000  0.4892430000000  0.4380940000000 1.0
C      1  0.4892430000000  0.4380940000000  0.5515880000000 1.0
C      1  0.4380940000000  0.5515880000000  0.4892430000000 1.0
C      1  0.5515880000000  0.5107570000000  0.5619060000000 1.0
C      1  0.4484120000000  0.4892430000000  0.5619060000000 1.0
C      1  0.4484120000000  0.5107570000000  0.4380940000000 1.0
C      1  0.4892430000000  0.5619060000000  0.4484120000000 1.0
C      1  0.5107570000000  0.4380940000000  0.4484120000000 1.0
C      1  0.5107570000000  0.5619060000000  0.5515880000000 1.0
C      1  0.4380940000000  0.4484120000000  0.5107570000000 1.0
C      1  0.5619060000000  0.5515880000000  0.5107570000000 1.0
C      1  0.5619060000000  0.4484120000000  0.4892430000000 1.0
C      1  0.5627590000000  0.4779230000000  0.4891510000000 1.0
C      1  0.4891510000000  0.5627590000000  0.4779230000000 1.0
C      1  0.4779230000000  0.4891510000000  0.5627590000000 1.0
C      1  0.5627590000000  0.5220770000000  0.5108490000000 1.0
C      1  0.4372410000000  0.5220770000000  0.4891510000000 1.0
C      1  0.4372410000000  0.4779230000000  0.5108490000000 1.0
C      1  0.4891510000000  0.4372410000000  0.5220770000000 1.0
C      1  0.5108490000000  0.4372410000000  0.4779230000000 1.0
C      1  0.5108490000000  0.5627590000000  0.5220770000000 1.0
C      1  0.4779230000000  0.5108490000000  0.4372410000000 1.0
C      1  0.5220770000000  0.5108490000000  0.5627590000000 1.0
C      1  0.5220770000000  0.4891510000000  0.4372410000000 1.0
C      1  0.5627590000000  0.4891510000000  0.4779230000000 1.0
C      1  0.4891510000000  0.4779230000000  0.5627590000000 1.0
C      1  0.4779230000000  0.5627590000000  0.4891510000000 1.0
C      1  0.5627590000000  0.5108490000000  0.5220770000000 1.0
C      1  0.4372410000000  0.4891510000000  0.5220770000000 1.0
C      1  0.4372410000000  0.5108490000000  0.4779230000000 1.0
C      1  0.4891510000000  0.5220770000000  0.4372410000000 1.0
C      1  0.5108490000000  0.4779230000000  0.4372410000000 1.0
C      1  0.5108490000000  0.5220770000000  0.5627590000000 1.0
C      1  0.4779230000000  0.4372410000000  0.5108490000000 1.0
C      1  0.5220770000000  0.5627590000000  0.5108490000000 1.0
C      1  0.5220770000000  0.4372410000000  0.4891510000000 1.0
C      1  0.4669910000000  0.4572050000000  0.4471540000000 1.0
C      1  0.4471540000000  0.4669910000000  0.4572050000000 1.0
C      1  0.4572050000000  0.4471540000000  0.4669910000000 1.0
C      1  0.4669910000000  0.5427950000000  0.5528460000000 1.0
C      1  0.5330090000000  0.5427950000000  0.4471540000000 1.0
C      1  0.5330090000000  0.4572050000000  0.5528460000000 1.0
C      1  0.4471540000000  0.5330090000000  0.5427950000000 1.0
C      1  0.5528460000000  0.5330090000000  0.4572050000000 1.0
C      1  0.5528460000000  0.4669910000000  0.5427950000000 1.0
C      1  0.4572050000000  0.5528460000000  0.5330090000000 1.0
C      1  0.5427950000000  0.5528460000000  0.4669910000000 1.0
C      1  0.5427950000000  0.4471540000000  0.5330090000000 1.0
C      1  0.4669910000000  0.4471540000000  0.4572050000000 1.0
C      1  0.4471540000000  0.4572050000000  0.4669910000000 1.0
C      1  0.4572050000000  0.4669910000000  0.4471540000000 1.0
C      1  0.4669910000000  0.5528460000000  0.5427950000000 1.0
C      1  0.5330090000000  0.4471540000000  0.5427950000000 1.0
C      1  0.5330090000000  0.5528460000000  0.4572050000000 1.0
C      1  0.4471540000000  0.5427950000000  0.5330090000000 1.0
C      1  0.5528460000000  0.4572050000000  0.5330090000000 1.0
C      1  0.5528460000000  0.5427950000000  0.4669910000000 1.0
C      1  0.4572050000000  0.5330090000000  0.5528460000000 1.0
C      1  0.5427950000000  0.4669910000000  0.5528460000000 1.0
C      1  0.5427950000000  0.5330090000000  0.4471540000000 1.0
C      1  0.4431500000000  0.5213290000000  0.4687960000000 1.0
C      1  0.4687960000000  0.4431500000000  0.5213290000000 1.0
C      1  0.5213290000000  0.4687960000000  0.4431500000000 1.0
C      1  0.4431500000000  0.4786710000000  0.5312040000000 1.0
C      1  0.5568500000000  0.4786710000000  0.4687960000000 1.0
C      1  0.5568500000000  0.5213290000000  0.5312040000000 1.0
C      1  0.4687960000000  0.5568500000000  0.4786710000000 1.0
C      1  0.5312040000000  0.5568500000000  0.5213290000000 1.0
C      1  0.5312040000000  0.4431500000000  0.4786710000000 1.0
C      1  0.5213290000000  0.5312040000000  0.5568500000000 1.0
C      1  0.4786710000000  0.5312040000000  0.4431500000000 1.0
C      1  0.4786710000000  0.4687960000000  0.5568500000000 1.0
C      1  0.4431500000000  0.4687960000000  0.5213290000000 1.0
C      1  0.4687960000000  0.5213290000000  0.4431500000000 1.0
C      1  0.5213290000000  0.4431500000000  0.4687960000000 1.0
C      1  0.4431500000000  0.5312040000000  0.4786710000000 1.0
C      1  0.5568500000000  0.4687960000000  0.4786710000000 1.0
C      1  0.5568500000000  0.5312040000000  0.5213290000000 1.0
C      1  0.4687960000000  0.4786710000000  0.5568500000000 1.0
C      1  0.5312040000000  0.5213290000000  0.5568500000000 1.0
C      1  0.5312040000000  0.4786710000000  0.4431500000000 1.0
C      1  0.5213290000000  0.5568500000000  0.5312040000000 1.0
C      1  0.4786710000000  0.4431500000000  0.5312040000000 1.0
C      1  0.4786710000000  0.5568500000000  0.4687960000000 1.0
C      1  0.5498840000000  0.4399330000000  0.5119460000000 1.0
C      1  0.5119460000000  0.5498840000000  0.4399330000000 1.0
C      1  0.4399330000000  0.5119460000000  0.5498840000000 1.0
C      1  0.5498840000000  0.5600670000000  0.4880540000000 1.0
C      1  0.4501160000000  0.5600670000000  0.5119460000000 1.0
C      1  0.4501160000000  0.4399330000000  0.4880540000000 1.0
C      1  0.5119460000000  0.4501160000000  0.5600670000000 1.0
C      1  0.4880540000000  0.4501160000000  0.4399330000000 1.0
C      1  0.4880540000000  0.5498840000000  0.5600670000000 1.0
C      1  0.4399330000000  0.4880540000000  0.4501160000000 1.0
C      1  0.5600670000000  0.4880540000000  0.5498840000000 1.0
C      1  0.5600670000000  0.5119460000000  0.4501160000000 1.0
C      1  0.5498840000000  0.5119460000000  0.4399330000000 1.0
C      1  0.5119460000000  0.4399330000000  0.5498840000000 1.0
C      1  0.4399330000000  0.5498840000000  0.5119460000000 1.0
C      1  0.5498840000000  0.4880540000000  0.5600670000000 1.0
C      1  0.4501160000000  0.5119460000000  0.5600670000000 1.0
C      1  0.4501160000000  0.4880540000000  0.4399330000000 1.0
C      1  0.5119460000000  0.5600670000000  0.4501160000000 1.0
C      1  0.4880540000000  0.4399330000000  0.4501160000000 1.0
C      1  0.4880540000000  0.5600670000000  0.5498840000000 1.0
C      1  0.4399330000000  0.4501160000000  0.4880540000000 1.0
C      1  0.5600670000000  0.5498840000000  0.4880540000000 1.0
C      1  0.5600670000000  0.4501160000000  0.5119460000000 1.0
C      1  0.5014680000000  0.4349680000000  0.5286330000000 1.0
C      1  0.5286330000000  0.5014680000000  0.4349680000000 1.0
C      1  0.4349680000000  0.5286330000000  0.5014680000000 1.0
C      1  0.5014680000000  0.5650320000000  0.4713670000000 1.0
C      1  0.4985320000000  0.5650320000000  0.5286330000000 1.0
C      1  0.4985320000000  0.4349680000000  0.4713670000000 1.0
C      1  0.5286330000000  0.4985320000000  0.5650320000000 1.0
C      1  0.4713670000000  0.4985320000000  0.4349680000000 1.0
C      1  0.4713670000000  0.5014680000000  0.5650320000000 1.0
C      1  0.4349680000000  0.4713670000000  0.4985320000000 1.0
C      1  0.5650320000000  0.4713670000000  0.5014680000000 1.0
C      1  0.5650320000000  0.5286330000000  0.4985320000000 1.0
C      1  0.5014680000000  0.5286330000000  0.4349680000000 1.0
C      1  0.5286330000000  0.4349680000000  0.5014680000000 1.0
C      1  0.4349680000000  0.5014680000000  0.5286330000000 1.0
C      1  0.5014680000000  0.4713670000000  0.5650320000000 1.0
C      1  0.4985320000000  0.5286330000000  0.5650320000000 1.0
C      1  0.4985320000000  0.4713670000000  0.4349680000000 1.0
C      1  0.5286330000000  0.5650320000000  0.4985320000000 1.0
C      1  0.4713670000000  0.4349680000000  0.4985320000000 1.0
C      1  0.4713670000000  0.5650320000000  0.5014680000000 1.0
C      1  0.4349680000000  0.4985320000000  0.4713670000000 1.0
C      1  0.5650320000000  0.5014680000000  0.4713670000000 1.0
C      1  0.5650320000000  0.4985320000000  0.5286330000000 1.0
C      1  0.5163500000000  0.4363670000000  0.5263770000000 1.0
C      1  0.5263770000000  0.5163500000000  0.4363670000000 1.0
C      1  0.4363670000000  0.5263770000000  0.5163500000000 1.0
C      1  0.5163500000000  0.5636330000000  0.4736230000000 1.0
C      1  0.4836500000000  0.5636330000000  0.5263770000000 1.0
C      1  0.4836500000000  0.4363670000000  0.4736230000000 1.0
C      1  0.5263770000000  0.4836500000000  0.5636330000000 1.0
C      1  0.4736230000000  0.4836500000000  0.4363670000000 1.0
C      1  0.4736230000000  0.5163500000000  0.5636330000000 1.0
C      1  0.4363670000000  0.4736230000000  0.4836500000000 1.0
C      1  0.5636330000000  0.4736230000000  0.5163500000000 1.0
C      1  0.5636330000000  0.5263770000000  0.4836500000000 1.0
C      1  0.5163500000000  0.5263770000000  0.4363670000000 1.0
C      1  0.5263770000000  0.4363670000000  0.5163500000000 1.0
C      1  0.4363670000000  0.5163500000000  0.5263770000000 1.0
C      1  0.5163500000000  0.4736230000000  0.5636330000000 1.0
C      1  0.4836500000000  0.5263770000000  0.5636330000000 1.0
C      1  0.4836500000000  0.4736230000000  0.4363670000000 1.0
C      1  0.5263770000000  0.5636330000000  0.4836500000000 1.0
C      1  0.4736230000000  0.4363670000000  0.4836500000000 1.0
C      1  0.4736230000000  0.5636330000000  0.5163500000000 1.0
C      1  0.4363670000000  0.4836500000000  0.4736230000000 1.0
C      1  0.5636330000000  0.5163500000000  0.4736230000000 1.0
C      1  0.5636330000000  0.4836500000000  0.5263770000000 1.0
C      1  0.5003060000000  0.4560380000000  0.5649920000000 1.0
C      1  0.5649920000000  0.5003060000000  0.4560380000000 1.0
C      1  0.4560380000000  0.5649920000000  0.5003060000000 1.0
C      1  0.5003060000000  0.5439620000000  0.4350080000000 1.0
C      1  0.4996940000000  0.5439620000000  0.5649920000000 1.0
C      1  0.4996940000000  0.4560380000000  0.4350080000000 1.0
C      1  0.5649920000000  0.4996940000000  0.5439620000000 1.0
C      1  0.4350080000000  0.4996940000000  0.4560380000000 1.0
C      1  0.4350080000000  0.5003060000000  0.5439620000000 1.0
C      1  0.4560380000000  0.4350080000000  0.4996940000000 1.0
C      1  0.5439620000000  0.4350080000000  0.5003060000000 1.0
C      1  0.5439620000000  0.5649920000000  0.4996940000000 1.0
C      1  0.5003060000000  0.5649920000000  0.4560380000000 1.0
C      1  0.5649920000000  0.4560380000000  0.5003060000000 1.0
C      1  0.4560380000000  0.5003060000000  0.5649920000000 1.0
C      1  0.5003060000000  0.4350080000000  0.5439620000000 1.0
C      1  0.4996940000000  0.5649920000000  0.5439620000000 1.0
C      1  0.4996940000000  0.4350080000000  0.4560380000000 1.0
C      1  0.5649920000000  0.5439620000000  0.4996940000000 1.0
C      1  0.4350080000000  0.4560380000000  0.4996940000000 1.0
C      1  0.4350080000000  0.5439620000000  0.5003060000000 1.0
C      1  0.4560380000000  0.4996940000000  0.4350080000000 1.0
C      1  0.5439620000000  0.5003060000000  0.4350080000000 1.0
C      1  0.5439620000000  0.4996940000000  0.5649920000000 1.0
END
