TITL C-1379268-1316-423 -1.95410558572419e-07 1000000 -1904.82708652317 0 0 280 (C1) n - 1
REM
REM in /nfs/bkarasulu/CARBON/AIRSS/Generating-Clusters/GAP-ML-2020/Higher-Symm/Selected-Sizes/TryA-Only_Ih-Symm/Larger-Clusters/Try2-MINAMP_6A
REM
REM
REM
REM
REM
REM ./C.cell (31579ac4e95a012ec27f3239692ae8a5)
REM
REM compiler GCC version 9.2.1 20190827 (Red Hat 9.2.1-1)
REM options -cpp -mtune=generic -march=x86-64 -g -O0 -fpre-include=/usr/include/finclude/math-vector-fortran.h
REM seed -610802676 824001256 544485585 747084657 1430550240 -1401310845 1375569765 46147742 844310836 203374673 -2056816956 -2023225959 -247859392 -501276370 352625764 -471003948 1956280587 -1670473583 -1036390005 -768933659 481272394 1375846281 -1024782677 1103044781 488896203 1638581207 -1269062898 -1852385110 -554064414 -2013953920 214053455 605493962 1139365308
REM
CELL 1.54180  100.00000  100.00000  100.00000   90.00000   90.00000   90.00000
LATT -1
SFAC C  
C      1  0.5157050000000  0.5165490000000  0.5294420000000 1.0
C      1  0.5397480000000  0.5185330000000  0.5238040000000 1.0
C      1  0.5271800000000  0.5358770000000  0.5090130000000 1.0
C      1  0.4786880000000  0.5316950000000  0.4600360000000 1.0
C      1  0.5158130000000  0.4757210000000  0.4626120000000 1.0
C      1  0.4880250000000  0.4708020000000  0.5316140000000 1.0
C      1  0.4628230000000  0.5130810000000  0.4714960000000 1.0
C      1  0.5379730000000  0.4860700000000  0.4710230000000 1.0
C      1  0.4669560000000  0.4853550000000  0.5154820000000 1.0
C      1  0.4828530000000  0.5328660000000  0.4839190000000 1.0
C      1  0.5223260000000  0.4672560000000  0.4857040000000 1.0
C      1  0.4701010000000  0.4612610000000  0.5144240000000 1.0
C      1  0.5386310000000  0.5290500000000  0.5136190000000 1.0
C      1  0.5289150000000  0.5114110000000  0.5308710000000 1.0
C      1  0.5145850000000  0.5330540000000  0.5150620000000 1.0
C      1  0.4669160000000  0.5177120000000  0.4842970000000 1.0
C      1  0.4636470000000  0.4728320000000  0.5094980000000 1.0
C      1  0.5382070000000  0.4809710000000  0.4844550000000 1.0
C      1  0.4679300000000  0.5211840000000  0.4603280000000 1.0
C      1  0.4833740000000  0.4841310000000  0.5299780000000 1.0
C      1  0.5261660000000  0.4849990000000  0.4620620000000 1.0
C      1  0.4872220000000  0.5366830000000  0.4709350000000 1.0
C      1  0.4804910000000  0.4600810000000  0.5247230000000 1.0
C      1  0.5152030000000  0.4657720000000  0.4730970000000 1.0
C      1  0.5721480000000  0.5340090000000  0.4785420000000 1.0
C      1  0.4723620000000  0.5599690000000  0.5382270000000 1.0
C      1  0.5254960000000  0.4820200000000  0.5705390000000 1.0
C      1  0.4370190000000  0.5386440000000  0.5291630000000 1.0
C      1  0.5775870000000  0.4584170000000  0.5232390000000 1.0
C      1  0.4260740000000  0.4742290000000  0.4770550000000 1.0
C      1  0.5175380000000  0.5771800000000  0.4680300000000 1.0
C      1  0.4747910000000  0.4273090000000  0.4705540000000 1.0
C      1  0.5373980000000  0.4239320000000  0.5339630000000 1.0
C      1  0.4735020000000  0.4809780000000  0.4253720000000 1.0
C      1  0.5300540000000  0.5192580000000  0.4279240000000 1.0
C      1  0.4639380000000  0.5254190000000  0.5606530000000 1.0
C      1  0.4743990000000  0.5358430000000  0.5604650000000 1.0
C      1  0.5260770000000  0.5732550000000  0.4765390000000 1.0
C      1  0.5769950000000  0.4620480000000  0.5350090000000 1.0
C      1  0.5204380000000  0.5258190000000  0.4234200000000 1.0
C      1  0.5164610000000  0.4735980000000  0.5725710000000 1.0
C      1  0.4804260000000  0.4714030000000  0.4293890000000 1.0
C      1  0.4608660000000  0.5618460000000  0.5286570000000 1.0
C      1  0.4655980000000  0.4283660000000  0.4790230000000 1.0
C      1  0.5411160000000  0.4236750000000  0.5222090000000 1.0
C      1  0.4219460000000  0.4827370000000  0.4685930000000 1.0
C      1  0.4393860000000  0.5272810000000  0.5387620000000 1.0
C      1  0.5736330000000  0.5249010000000  0.4700470000000 1.0
C      1  0.4790630000000  0.4889950000000  0.4502900000000 1.0
C      1  0.4454330000000  0.4751480000000  0.4909740000000 1.0
C      1  0.4842800000000  0.4481950000000  0.4784450000000 1.0
C      1  0.5264620000000  0.4914050000000  0.5481620000000 1.0
C      1  0.4803480000000  0.5094580000000  0.5575830000000 1.0
C      1  0.5294140000000  0.5032820000000  0.4448570000000 1.0
C      1  0.5643510000000  0.4665180000000  0.5052630000000 1.0
C      1  0.4407040000000  0.5299000000000  0.5051610000000 1.0
C      1  0.5542080000000  0.5340630000000  0.4940330000000 1.0
C      1  0.5165110000000  0.4412190000000  0.5240860000000 1.0
C      1  0.4888270000000  0.5564550000000  0.5211790000000 1.0
C      1  0.5067120000000  0.5542660000000  0.4728390000000 1.0
C      1  0.4447160000000  0.4939250000000  0.4735740000000 1.0
C      1  0.4967720000000  0.4709180000000  0.4460800000000 1.0
C      1  0.4649180000000  0.4459810000000  0.4948720000000 1.0
C      1  0.5601040000000  0.4829170000000  0.5246570000000 1.0
C      1  0.5527130000000  0.5147530000000  0.4774310000000 1.0
C      1  0.4449470000000  0.5115580000000  0.5216340000000 1.0
C      1  0.5080400000000  0.4733000000000  0.5487930000000 1.0
C      1  0.5104600000000  0.5205380000000  0.4476080000000 1.0
C      1  0.4902710000000  0.5193860000000  0.5572550000000 1.0
C      1  0.5335930000000  0.4381900000000  0.5049270000000 1.0
C      1  0.5252920000000  0.5539290000000  0.4904250000000 1.0
C      1  0.4706880000000  0.5600760000000  0.5044110000000 1.0
C      1  0.4665580000000  0.5117630000000  0.5575660000000 1.0
C      1  0.5717400000000  0.4554510000000  0.5111400000000 1.0
C      1  0.5137930000000  0.5636510000000  0.4636490000000 1.0
C      1  0.5379090000000  0.5130580000000  0.4373720000000 1.0
C      1  0.4661700000000  0.4871280000000  0.4478750000000 1.0
C      1  0.5340720000000  0.4858070000000  0.5599580000000 1.0
C      1  0.4355320000000  0.4664320000000  0.4835100000000 1.0
C      1  0.5626390000000  0.5424860000000  0.4850020000000 1.0
C      1  0.4367250000000  0.5398010000000  0.5146240000000 1.0
C      1  0.4860270000000  0.5560930000000  0.5350450000000 1.0
C      1  0.5169300000000  0.4421170000000  0.5369770000000 1.0
C      1  0.4823210000000  0.4397840000000  0.4670010000000 1.0
C      1  0.5613670000000  0.5171540000000  0.4662350000000 1.0
C      1  0.5135960000000  0.4656850000000  0.5604260000000 1.0
C      1  0.4599180000000  0.5618080000000  0.5139390000000 1.0
C      1  0.4439090000000  0.5138370000000  0.5355280000000 1.0
C      1  0.4354360000000  0.4867240000000  0.4643530000000 1.0
C      1  0.5587420000000  0.4827830000000  0.5374780000000 1.0
C      1  0.4867810000000  0.4629530000000  0.4382140000000 1.0
C      1  0.4879680000000  0.5331700000000  0.5570800000000 1.0
C      1  0.5129290000000  0.5335430000000  0.4458230000000 1.0
C      1  0.5339410000000  0.5638640000000  0.4830300000000 1.0
C      1  0.5443370000000  0.4300820000000  0.5104070000000 1.0
C      1  0.4568530000000  0.4376220000000  0.4855450000000 1.0
C      1  0.5590530000000  0.4657300000000  0.4918240000000 1.0
C      1  0.4842470000000  0.5583350000000  0.4620930000000 1.0
C      1  0.4668370000000  0.4885710000000  0.5517940000000 1.0
C      1  0.4418610000000  0.4655100000000  0.5133200000000 1.0
C      1  0.5588660000000  0.5428640000000  0.5160210000000 1.0
C      1  0.4460340000000  0.5319580000000  0.4917840000000 1.0
C      1  0.5096150000000  0.5525830000000  0.5337610000000 1.0
C      1  0.4789560000000  0.4358460000000  0.5340410000000 1.0
C      1  0.5172700000000  0.4414290000000  0.4673360000000 1.0
C      1  0.5446480000000  0.4834660000000  0.4485730000000 1.0
C      1  0.4531950000000  0.5272220000000  0.4405410000000 1.0
C      1  0.5364350000000  0.5129070000000  0.5530560000000 1.0
C      1  0.4866230000000  0.4630880000000  0.5538210000000 1.0
C      1  0.4693570000000  0.5545670000000  0.4910820000000 1.0
C      1  0.5621360000000  0.4818260000000  0.4664900000000 1.0
C      1  0.5202810000000  0.4618180000000  0.4443310000000 1.0
C      1  0.5112250000000  0.5330100000000  0.5513020000000 1.0
C      1  0.4725800000000  0.5458830000000  0.4398040000000 1.0
C      1  0.5339470000000  0.5577220000000  0.5131340000000 1.0
C      1  0.5352060000000  0.4446270000000  0.4920460000000 1.0
C      1  0.4564250000000  0.4408080000000  0.5169520000000 1.0
C      1  0.4474490000000  0.4902680000000  0.5339280000000 1.0
C      1  0.4411020000000  0.5167350000000  0.4633960000000 1.0
C      1  0.5638280000000  0.5203480000000  0.5333720000000 1.0
C      1  0.5100730000000  0.5387600000000  0.5278710000000 1.0
C      1  0.5316510000000  0.5039880000000  0.5433380000000 1.0
C      1  0.5516680000000  0.5348570000000  0.5078160000000 1.0
C      1  0.4936350000000  0.5496890000000  0.4683120000000 1.0
C      1  0.5121330000000  0.4529210000000  0.4689510000000 1.0
C      1  0.4829130000000  0.4467800000000  0.5287630000000 1.0
C      1  0.4601650000000  0.5206580000000  0.4485600000000 1.0
C      1  0.5316760000000  0.4903360000000  0.4492730000000 1.0
C      1  0.4716670000000  0.4894490000000  0.5375630000000 1.0
C      1  0.4608090000000  0.5298310000000  0.4906650000000 1.0
C      1  0.5448890000000  0.4686790000000  0.4895160000000 1.0
C      1  0.4500530000000  0.4709030000000  0.5036630000000 1.0
C      1  0.5292690000000  0.5494240000000  0.5032330000000 1.0
C      1  0.5530610000000  0.5161260000000  0.5279290000000 1.0
C      1  0.5106850000000  0.5283710000000  0.5370530000000 1.0
C      1  0.4710860000000  0.5396460000000  0.4904420000000 1.0
C      1  0.4641740000000  0.4482120000000  0.5087280000000 1.0
C      1  0.5341330000000  0.4592080000000  0.4902120000000 1.0
C      1  0.4495210000000  0.5070020000000  0.4691390000000 1.0
C      1  0.4613230000000  0.4900770000000  0.5282760000000 1.0
C      1  0.5497660000000  0.4859900000000  0.4624080000000 1.0
C      1  0.4791420000000  0.5391680000000  0.4480590000000 1.0
C      1  0.4954170000000  0.4680160000000  0.5440650000000 1.0
C      1  0.5103640000000  0.4696980000000  0.4496040000000 1.0
C      1  0.5548130000000  0.4552140000000  0.5721050000000 1.0
C      1  0.5657740000000  0.5615010000000  0.4511110000000 1.0
C      1  0.4562610000000  0.5639660000000  0.5574370000000 1.0
C      1  0.4442430000000  0.4545200000000  0.4315410000000 1.0
C      1  0.5571820000000  0.5465360000000  0.4317910000000 1.0
C      1  0.4472280000000  0.5429500000000  0.5672830000000 1.0
C      1  0.4347690000000  0.5545560000000  0.5494200000000 1.0
C      1  0.5672180000000  0.4425880000000  0.5554840000000 1.0
C      1  0.4302390000000  0.4466160000000  0.4502710000000 1.0
C      1  0.5440480000000  0.5665720000000  0.4397180000000 1.0
C      1  0.4488980000000  0.4338670000000  0.4417690000000 1.0
C      1  0.5443710000000  0.4334980000000  0.5630290000000 1.0
C      1  0.5663370000000  0.4548610000000  0.5632880000000 1.0
C      1  0.4570980000000  0.5527880000000  0.5671500000000 1.0
C      1  0.5538340000000  0.5694380000000  0.4498800000000 1.0
C      1  0.4330300000000  0.4564630000000  0.4401620000000 1.0
C      1  0.4358440000000  0.5437420000000  0.5578370000000 1.0
C      1  0.5667790000000  0.5509240000000  0.4413770000000 1.0
C      1  0.5460930000000  0.5554180000000  0.4310840000000 1.0
C      1  0.5443060000000  0.4448730000000  0.5720650000000 1.0
C      1  0.4532520000000  0.4435100000000  0.4322040000000 1.0
C      1  0.4453990000000  0.5650360000000  0.5491020000000 1.0
C      1  0.4382720000000  0.4347550000000  0.4514470000000 1.0
C      1  0.5566750000000  0.4323550000000  0.5553200000000 1.0
C      1  0.4546170000000  0.4377660000000  0.5296650000000 1.0
C      1  0.5333780000000  0.4601890000000  0.4441270000000 1.0
C      1  0.4386230000000  0.5295610000000  0.4660820000000 1.0
C      1  0.5393530000000  0.4384060000000  0.4797760000000 1.0
C      1  0.4646300000000  0.5594150000000  0.4785530000000 1.0
C      1  0.5333840000000  0.5596120000000  0.5261600000000 1.0
C      1  0.4737940000000  0.4639710000000  0.5570530000000 1.0
C      1  0.5237650000000  0.5349420000000  0.5567160000000 1.0
C      1  0.4599560000000  0.5502050000000  0.4367180000000 1.0
C      1  0.5637250000000  0.5334490000000  0.5382420000000 1.0
C      1  0.4420570000000  0.4776760000000  0.5359500000000 1.0
C      1  0.5661570000000  0.4694090000000  0.4680850000000 1.0
C      1  0.5303090000000  0.4375550000000  0.4680630000000 1.0
C      1  0.4402040000000  0.4661980000000  0.5264240000000 1.0
C      1  0.4491770000000  0.5398180000000  0.4370780000000 1.0
C      1  0.4658870000000  0.4359180000000  0.5391310000000 1.0
C      1  0.4714900000000  0.5611770000000  0.4650780000000 1.0
C      1  0.5220330000000  0.5582430000000  0.5359460000000 1.0
C      1  0.5649040000000  0.4604790000000  0.4800130000000 1.0
C      1  0.5618190000000  0.5446890000000  0.5287600000000 1.0
C      1  0.4408710000000  0.5367630000000  0.4794040000000 1.0
C      1  0.5356950000000  0.5257230000000  0.5563000000000 1.0
C      1  0.5450730000000  0.4700470000000  0.4451050000000 1.0
C      1  0.4647880000000  0.4760160000000  0.5571650000000 1.0
C      1  0.5416070000000  0.4399190000000  0.4588930000000 1.0
C      1  0.4416100000000  0.5480430000000  0.4470480000000 1.0
C      1  0.4406740000000  0.4567430000000  0.5380080000000 1.0
C      1  0.4583470000000  0.4434360000000  0.5495650000000 1.0
C      1  0.5319340000000  0.5570120000000  0.5467500000000 1.0
C      1  0.4581500000000  0.5621320000000  0.4586690000000 1.0
C      1  0.5447010000000  0.5377190000000  0.5557360000000 1.0
C      1  0.4532390000000  0.4669960000000  0.5564020000000 1.0
C      1  0.5537320000000  0.4591680000000  0.4493330000000 1.0
C      1  0.5615320000000  0.4493210000000  0.4708100000000 1.0
C      1  0.4415530000000  0.5493740000000  0.4720770000000 1.0
C      1  0.5552090000000  0.5527610000000  0.5393240000000 1.0
C      1  0.4465730000000  0.4444910000000  0.5402180000000 1.0
C      1  0.4380340000000  0.5427560000000  0.4593220000000 1.0
C      1  0.5427080000000  0.4494510000000  0.4487660000000 1.0
C      1  0.5508460000000  0.4405810000000  0.4706770000000 1.0
C      1  0.5430520000000  0.5589570000000  0.5375280000000 1.0
C      1  0.4517810000000  0.5591660000000  0.4716500000000 1.0
C      1  0.5563440000000  0.5410400000000  0.5487240000000 1.0
C      1  0.5636100000000  0.4581050000000  0.4590010000000 1.0
C      1  0.4428810000000  0.4680240000000  0.5469740000000 1.0
C      1  0.4616900000000  0.4550630000000  0.5566290000000 1.0
C      1  0.4523440000000  0.5583680000000  0.4466790000000 1.0
C      1  0.5329320000000  0.5463490000000  0.5558320000000 1.0
C      1  0.4367270000000  0.5531100000000  0.5090810000000 1.0
C      1  0.5226880000000  0.4441590000000  0.5487420000000 1.0
C      1  0.5482350000000  0.5211350000000  0.4440330000000 1.0
C      1  0.5567860000000  0.5519740000000  0.4760440000000 1.0
C      1  0.4392750000000  0.4551350000000  0.4758890000000 1.0
C      1  0.5665910000000  0.4427970000000  0.5088670000000 1.0
C      1  0.4830580000000  0.4462760000000  0.4555060000000 1.0
C      1  0.5208090000000  0.5571850000000  0.4529450000000 1.0
C      1  0.4975190000000  0.5516330000000  0.5424520000000 1.0
C      1  0.4589130000000  0.5011620000000  0.5525750000000 1.0
C      1  0.5455900000000  0.4780790000000  0.5589080000000 1.0
C      1  0.4543260000000  0.4848710000000  0.4500310000000 1.0
C      1  0.5155320000000  0.5451990000000  0.4485680000000 1.0
C      1  0.5572690000000  0.4345700000000  0.5084630000000 1.0
C      1  0.4481280000000  0.5021960000000  0.5428900000000 1.0
C      1  0.4985480000000  0.5408150000000  0.5520770000000 1.0
C      1  0.4783870000000  0.4526560000000  0.4446680000000 1.0
C      1  0.5214810000000  0.4544770000000  0.5589960000000 1.0
C      1  0.4475570000000  0.4436440000000  0.4764790000000 1.0
C      1  0.4470150000000  0.5601470000000  0.5086040000000 1.0
C      1  0.5452760000000  0.5602280000000  0.4754140000000 1.0
C      1  0.5548290000000  0.5165870000000  0.4547540000000 1.0
C      1  0.5563610000000  0.4769830000000  0.5491670000000 1.0
C      1  0.4421070000000  0.4797450000000  0.4537280000000 1.0
C      1  0.4474550000000  0.4416960000000  0.4615200000000 1.0
C      1  0.4628140000000  0.4508510000000  0.4426840000000 1.0
C      1  0.4412300000000  0.4649660000000  0.4504150000000 1.0
C      1  0.5494790000000  0.4399040000000  0.5447970000000 1.0
C      1  0.4478970000000  0.5620340000000  0.5349920000000 1.0
C      1  0.5460020000000  0.5613190000000  0.4600800000000 1.0
C      1  0.5359900000000  0.4533840000000  0.5628120000000 1.0
C      1  0.4702040000000  0.5492670000000  0.5617570000000 1.0
C      1  0.5391360000000  0.5466510000000  0.4405540000000 1.0
C      1  0.5587360000000  0.4621160000000  0.5527400000000 1.0
C      1  0.4396030000000  0.5306230000000  0.5524410000000 1.0
C      1  0.5609180000000  0.5417740000000  0.4511650000000 1.0
C      1  0.4579330000000  0.4397370000000  0.4516420000000 1.0
C      1  0.4382670000000  0.4544790000000  0.4605250000000 1.0
C      1  0.4528730000000  0.4615420000000  0.4410790000000 1.0
C      1  0.5374260000000  0.4414350000000  0.5525370000000 1.0
C      1  0.5355930000000  0.5582230000000  0.4498910000000 1.0
C      1  0.4692410000000  0.5600040000000  0.5519550000000 1.0
C      1  0.5600270000000  0.4500940000000  0.5449240000000 1.0
C      1  0.5588480000000  0.5522270000000  0.4610860000000 1.0
C      1  0.4372290000000  0.5517040000000  0.5353630000000 1.0
C      1  0.5465190000000  0.4636570000000  0.5627870000000 1.0
C      1  0.5499280000000  0.5368660000000  0.4420730000000 1.0
C      1  0.4505550000000  0.5297380000000  0.5620290000000 1.0
C      1  0.4754560000000  0.4503210000000  0.4869480000000 1.0
C      1  0.4891300000000  0.4815880000000  0.4508510000000 1.0
C      1  0.4491110000000  0.4857650000000  0.4832480000000 1.0
C      1  0.5231540000000  0.4410100000000  0.5133170000000 1.0
C      1  0.4828440000000  0.5584970000000  0.5105560000000 1.0
C      1  0.5148050000000  0.5499720000000  0.4826320000000 1.0
C      1  0.5158010000000  0.4836850000000  0.5447170000000 1.0
C      1  0.4933340000000  0.5065260000000  0.5606850000000 1.0
C      1  0.5180240000000  0.5106170000000  0.4482530000000 1.0
C      1  0.5609170000000  0.4767880000000  0.5136540000000 1.0
C      1  0.4436240000000  0.5179640000000  0.5111470000000 1.0
C      1  0.5502690000000  0.5235800000000  0.4858830000000 1.0
C      1  0.4808410000000  0.5191250000000  0.4859350000000 1.0
C      1  0.5246710000000  0.4806060000000  0.4896550000000 1.0
C      1  0.4808450000000  0.4880960000000  0.5165720000000 1.0
C      1  0.5115990000000  0.5191290000000  0.5161050000000 1.0
END
