TITL C-1379268-1316-405 5.20664584206503e-07 1000000 -4052.93778584797 0 0 580 (C1) n - 1
REM
REM in /nfs/bkarasulu/CARBON/AIRSS/Generating-Clusters/GAP-ML-2020/Higher-Symm/Selected-Sizes/TryA-Only_Ih-Symm/Larger-Clusters/Try2-MINAMP_6A
REM
REM
REM
REM
REM
REM ./C.cell (31579ac4e95a012ec27f3239692ae8a5)
REM
REM compiler GCC version 9.2.1 20190827 (Red Hat 9.2.1-1)
REM options -cpp -mtune=generic -march=x86-64 -g -O0 -fpre-include=/usr/include/finclude/math-vector-fortran.h
REM seed -172328261 -827743106 1559474859 1896547223 -2030091345 -979667446 1575518055 230678789 1787426495 269426079 -789712183 430966527 1393726047 -507898106 1731938377 -2009557923 -1342306659 -941768740 555593476 957927060 432821590 -1264983560 1643935269 -1779151277 700229962 2115709419 1023100043 -769530054 -935867782 -1617218655 -1152964371 -1508540742 2136452554
REM
CELL 1.54180  100.00000  100.00000  100.00000   90.00000   90.00000   90.00000
LATT -1
SFAC C  
C      1  0.4983650000000  0.4891980000000  0.4090500000000 1.0
C      1  0.4885640000000  0.4061090000000  0.5003430000000 1.0
C      1  0.4051970000000  0.4995180000000  0.4861490000000 1.0
C      1  0.5027560000000  0.5121240000000  0.5906820000000 1.0
C      1  0.5029590000000  0.4913690000000  0.5889820000000 1.0
C      1  0.5015730000000  0.5102340000000  0.4097170000000 1.0
C      1  0.4874320000000  0.5926380000000  0.5035550000000 1.0
C      1  0.5090100000000  0.4060440000000  0.5010930000000 1.0
C      1  0.5081770000000  0.5934510000000  0.5011940000000 1.0
C      1  0.4074430000000  0.4974730000000  0.5061980000000 1.0
C      1  0.5924230000000  0.5009020000000  0.5083690000000 1.0
C      1  0.5903800000000  0.4983870000000  0.4888800000000 1.0
C      1  0.4988910000000  0.4057520000000  0.4904760000000 1.0
C      1  0.4902210000000  0.5008550000000  0.4092410000000 1.0
C      1  0.4065610000000  0.4881420000000  0.4947070000000 1.0
C      1  0.4986140000000  0.5950690000000  0.5120400000000 1.0
C      1  0.4970970000000  0.5915980000000  0.4924140000000 1.0
C      1  0.4986880000000  0.4063660000000  0.5109580000000 1.0
C      1  0.4926080000000  0.5022280000000  0.5884470000000 1.0
C      1  0.5097510000000  0.4986310000000  0.4093810000000 1.0
C      1  0.5127430000000  0.5015510000000  0.5908350000000 1.0
C      1  0.4065730000000  0.5087100000000  0.4974790000000 1.0
C      1  0.5914090000000  0.5101200000000  0.4968650000000 1.0
C      1  0.5910590000000  0.4891900000000  0.5003900000000 1.0
C      1  0.5770280000000  0.5125870000000  0.5462760000000 1.0
C      1  0.5126450000000  0.5554000000000  0.5749470000000 1.0
C      1  0.5508440000000  0.5778140000000  0.5023120000000 1.0
C      1  0.5705540000000  0.4880610000000  0.4529940000000 1.0
C      1  0.4246510000000  0.5123400000000  0.4484450000000 1.0
C      1  0.4241900000000  0.4928500000000  0.5474250000000 1.0
C      1  0.5017010000000  0.4462960000000  0.4261890000000 1.0
C      1  0.4978430000000  0.5524620000000  0.4294780000000 1.0
C      1  0.4964420000000  0.4509770000000  0.5730880000000 1.0
C      1  0.5495400000000  0.4212510000000  0.4967060000000 1.0
C      1  0.4492120000000  0.5744090000000  0.4991580000000 1.0
C      1  0.4485610000000  0.4223210000000  0.5038940000000 1.0
C      1  0.5742290000000  0.5527220000000  0.5003320000000 1.0
C      1  0.5123800000000  0.5794480000000  0.5498190000000 1.0
C      1  0.5502750000000  0.5110490000000  0.5685070000000 1.0
C      1  0.5725880000000  0.4468120000000  0.4982290000000 1.0
C      1  0.4254260000000  0.4476550000000  0.5009990000000 1.0
C      1  0.4239730000000  0.5505660000000  0.4971290000000 1.0
C      1  0.5034250000000  0.4207770000000  0.4493740000000 1.0
C      1  0.4945670000000  0.4246270000000  0.5514420000000 1.0
C      1  0.4947560000000  0.5767910000000  0.4536940000000 1.0
C      1  0.5467050000000  0.4878180000000  0.4283060000000 1.0
C      1  0.4490380000000  0.4954120000000  0.5718890000000 1.0
C      1  0.4528240000000  0.5111500000000  0.4274730000000 1.0
C      1  0.5100290000000  0.4973120000000  0.4549160000000 1.0
C      1  0.4990730000000  0.4509580000000  0.5097740000000 1.0
C      1  0.4518470000000  0.5077240000000  0.4955810000000 1.0
C      1  0.5113870000000  0.5029300000000  0.5436680000000 1.0
C      1  0.4904610000000  0.5005840000000  0.5399540000000 1.0
C      1  0.4885090000000  0.5004550000000  0.4550140000000 1.0
C      1  0.4987050000000  0.5461870000000  0.4952850000000 1.0
C      1  0.4995630000000  0.4503650000000  0.4894200000000 1.0
C      1  0.4995540000000  0.5477250000000  0.5169750000000 1.0
C      1  0.4529730000000  0.4876170000000  0.4930640000000 1.0
C      1  0.5453390000000  0.5101810000000  0.5000190000000 1.0
C      1  0.5449380000000  0.4894360000000  0.5025150000000 1.0
C      1  0.5094920000000  0.4506520000000  0.4998080000000 1.0
C      1  0.5010730000000  0.5091340000000  0.4566470000000 1.0
C      1  0.4526720000000  0.4965210000000  0.5049230000000 1.0
C      1  0.5090460000000  0.5473090000000  0.5054160000000 1.0
C      1  0.4889230000000  0.5454500000000  0.5063920000000 1.0
C      1  0.4891490000000  0.4507660000000  0.4993580000000 1.0
C      1  0.5021300000000  0.4911220000000  0.5414310000000 1.0
C      1  0.4978270000000  0.4885630000000  0.4553360000000 1.0
C      1  0.5003230000000  0.5123070000000  0.5397080000000 1.0
C      1  0.4504650000000  0.4987520000000  0.4837530000000 1.0
C      1  0.5475300000000  0.5009590000000  0.5117650000000 1.0
C      1  0.5451770000000  0.4984330000000  0.4903490000000 1.0
C      1  0.4926240000000  0.4693750000000  0.5384870000000 1.0
C      1  0.4687940000000  0.5395210000000  0.4940430000000 1.0
C      1  0.5436520000000  0.4863820000000  0.4667570000000 1.0
C      1  0.4925350000000  0.5303780000000  0.4623740000000 1.0
C      1  0.5070190000000  0.4668400000000  0.4590620000000 1.0
C      1  0.5129180000000  0.5410220000000  0.5502060000000 1.0
C      1  0.4694150000000  0.4567920000000  0.5056510000000 1.0
C      1  0.5309510000000  0.5435000000000  0.5106590000000 1.0
C      1  0.5291880000000  0.4566190000000  0.4927890000000 1.0
C      1  0.5480870000000  0.5144760000000  0.5359700000000 1.0
C      1  0.4572140000000  0.4900930000000  0.5271430000000 1.0
C      1  0.4525210000000  0.5124140000000  0.4621230000000 1.0
C      1  0.4918590000000  0.5411110000000  0.4732030000000 1.0
C      1  0.4681440000000  0.4911040000000  0.5375360000000 1.0
C      1  0.5393900000000  0.4679860000000  0.4928330000000 1.0
C      1  0.4919640000000  0.4575160000000  0.5287940000000 1.0
C      1  0.5067910000000  0.4555190000000  0.4693230000000 1.0
C      1  0.5111310000000  0.5508240000000  0.5390870000000 1.0
C      1  0.4652440000000  0.5122560000000  0.4544030000000 1.0
C      1  0.5349910000000  0.5140120000000  0.5430910000000 1.0
C      1  0.5333290000000  0.4859310000000  0.4555690000000 1.0
C      1  0.5413520000000  0.5322420000000  0.5100200000000 1.0
C      1  0.4574340000000  0.5295200000000  0.4917510000000 1.0
C      1  0.4591820000000  0.4679400000000  0.5044940000000 1.0
C      1  0.4589240000000  0.4715130000000  0.4296610000000 1.0
C      1  0.4739470000000  0.4172300000000  0.4646660000000 1.0
C      1  0.4252540000000  0.4652700000000  0.4692210000000 1.0
C      1  0.4655170000000  0.5268510000000  0.5751210000000 1.0
C      1  0.5417810000000  0.4726890000000  0.5686390000000 1.0
C      1  0.5401900000000  0.5273860000000  0.4315690000000 1.0
C      1  0.4721420000000  0.5727510000000  0.5435900000000 1.0
C      1  0.5240270000000  0.4187450000000  0.5358300000000 1.0
C      1  0.5227790000000  0.5804560000000  0.4672050000000 1.0
C      1  0.4195860000000  0.5323880000000  0.5240820000000 1.0
C      1  0.5739260000000  0.4658480000000  0.5278640000000 1.0
C      1  0.5738220000000  0.5350250000000  0.4702140000000 1.0
C      1  0.4640020000000  0.4175950000000  0.4743390000000 1.0
C      1  0.4705910000000  0.4640320000000  0.4243490000000 1.0
C      1  0.4333330000000  0.4740400000000  0.4589650000000 1.0
C      1  0.4650650000000  0.5752660000000  0.5307000000000 1.0
C      1  0.5330190000000  0.5807400000000  0.4765410000000 1.0
C      1  0.5339230000000  0.4184340000000  0.5260920000000 1.0
C      1  0.4680870000000  0.5403790000000  0.5746800000000 1.0
C      1  0.5282140000000  0.5347110000000  0.4267220000000 1.0
C      1  0.5296500000000  0.4654890000000  0.5740000000000 1.0
C      1  0.4194880000000  0.5219340000000  0.5332060000000 1.0
C      1  0.5682160000000  0.5275490000000  0.4586840000000 1.0
C      1  0.5662810000000  0.4748390000000  0.5381120000000 1.0
C      1  0.4987150000000  0.5633290000000  0.5154100000000 1.0
C      1  0.5609390000000  0.5107890000000  0.4985600000000 1.0
C      1  0.5082450000000  0.5032680000000  0.5597370000000 1.0
C      1  0.4997330000000  0.4351210000000  0.4890570000000 1.0
C      1  0.4974830000000  0.5612010000000  0.4940250000000 1.0
C      1  0.4986260000000  0.4357470000000  0.5109100000000 1.0
C      1  0.5602780000000  0.4880810000000  0.5012200000000 1.0
C      1  0.4364150000000  0.5083430000000  0.4967520000000 1.0
C      1  0.4376760000000  0.4860980000000  0.4949290000000 1.0
C      1  0.5096170000000  0.4981000000000  0.4395460000000 1.0
C      1  0.4894640000000  0.5010340000000  0.4397580000000 1.0
C      1  0.4877480000000  0.4989760000000  0.5552220000000 1.0
C      1  0.4953880000000  0.5111060000000  0.5595770000000 1.0
C      1  0.5628440000000  0.5006780000000  0.5093650000000 1.0
C      1  0.5090160000000  0.5626550000000  0.5044550000000 1.0
C      1  0.4982130000000  0.4883280000000  0.4396830000000 1.0
C      1  0.5000180000000  0.4899770000000  0.5569790000000 1.0
C      1  0.5009070000000  0.5107090000000  0.4411290000000 1.0
C      1  0.5603310000000  0.4980660000000  0.4899020000000 1.0
C      1  0.4378690000000  0.4956430000000  0.5066570000000 1.0
C      1  0.4348520000000  0.4983050000000  0.4859320000000 1.0
C      1  0.5101420000000  0.4354230000000  0.4997950000000 1.0
C      1  0.4883050000000  0.4354810000000  0.5001090000000 1.0
C      1  0.4872660000000  0.5606840000000  0.5052400000000 1.0
C      1  0.5271020000000  0.5822520000000  0.5096460000000 1.0
C      1  0.5826590000000  0.5118560000000  0.5237420000000 1.0
C      1  0.5136270000000  0.5311040000000  0.5805670000000 1.0
C      1  0.5262080000000  0.4171520000000  0.4919410000000 1.0
C      1  0.4711450000000  0.5782320000000  0.4980820000000 1.0
C      1  0.4717880000000  0.4178850000000  0.5088590000000 1.0
C      1  0.5789780000000  0.4878510000000  0.4745500000000 1.0
C      1  0.4162880000000  0.5108300000000  0.4703440000000 1.0
C      1  0.4193040000000  0.4877050000000  0.5232890000000 1.0
C      1  0.5038810000000  0.4702020000000  0.4209820000000 1.0
C      1  0.4961160000000  0.5290860000000  0.4231490000000 1.0
C      1  0.4960760000000  0.4742930000000  0.5768240000000 1.0
C      1  0.5286030000000  0.5114950000000  0.5782850000000 1.0
C      1  0.5794810000000  0.5292380000000  0.5027530000000 1.0
C      1  0.5102420000000  0.5852070000000  0.5276750000000 1.0
C      1  0.5249290000000  0.4878640000000  0.4201400000000 1.0
C      1  0.4731870000000  0.4961950000000  0.5748060000000 1.0
C      1  0.4750830000000  0.5114760000000  0.4199730000000 1.0
C      1  0.5780410000000  0.4702810000000  0.4957740000000 1.0
C      1  0.4197530000000  0.4703460000000  0.5015020000000 1.0
C      1  0.4183450000000  0.5273790000000  0.4901410000000 1.0
C      1  0.5081970000000  0.4167190000000  0.4730570000000 1.0
C      1  0.4898320000000  0.4185350000000  0.5280920000000 1.0
C      1  0.4887000000000  0.5793730000000  0.4777400000000 1.0
C      1  0.5013270000000  0.4125930000000  0.5232780000000 1.0
C      1  0.4126570000000  0.5209170000000  0.5008880000000 1.0
C      1  0.5227670000000  0.5003270000000  0.4145100000000 1.0
C      1  0.5006760000000  0.5852110000000  0.4806960000000 1.0
C      1  0.4964350000000  0.4112540000000  0.4778090000000 1.0
C      1  0.4980040000000  0.5913320000000  0.5255140000000 1.0
C      1  0.4125450000000  0.4758720000000  0.4903180000000 1.0
C      1  0.5862460000000  0.5228330000000  0.4922800000000 1.0
C      1  0.5856250000000  0.4769320000000  0.5057060000000 1.0
C      1  0.5254170000000  0.4998570000000  0.5849380000000 1.0
C      1  0.4805030000000  0.5061820000000  0.5822270000000 1.0
C      1  0.4771180000000  0.4990560000000  0.4140650000000 1.0
C      1  0.5059760000000  0.5227360000000  0.4153250000000 1.0
C      1  0.4135830000000  0.4994160000000  0.5186440000000 1.0
C      1  0.5214860000000  0.4119000000000  0.5037920000000 1.0
C      1  0.5070320000000  0.4785390000000  0.5846450000000 1.0
C      1  0.4935700000000  0.4763420000000  0.4135880000000 1.0
C      1  0.5017340000000  0.5252610000000  0.5859910000000 1.0
C      1  0.4095560000000  0.4987670000000  0.4727370000000 1.0
C      1  0.5887740000000  0.4995080000000  0.5219230000000 1.0
C      1  0.5846700000000  0.5003570000000  0.4761530000000 1.0
C      1  0.5204640000000  0.5872890000000  0.4987820000000 1.0
C      1  0.4758460000000  0.5861510000000  0.5086670000000 1.0
C      1  0.4761580000000  0.4118870000000  0.4971950000000 1.0
C      1  0.5120680000000  0.5766320000000  0.4774550000000 1.0
C      1  0.5823210000000  0.4751280000000  0.5200620000000 1.0
C      1  0.4779030000000  0.5205390000000  0.5797710000000 1.0
C      1  0.5128210000000  0.4217070000000  0.5259890000000 1.0
C      1  0.4860070000000  0.5854650000000  0.5304920000000 1.0
C      1  0.4851530000000  0.4203570000000  0.4744980000000 1.0
C      1  0.5808750000000  0.5247300000000  0.4785810000000 1.0
C      1  0.4164460000000  0.4744560000000  0.4761410000000 1.0
C      1  0.4222540000000  0.5230510000000  0.5122310000000 1.0
C      1  0.4731630000000  0.4867700000000  0.4199630000000 1.0
C      1  0.5264650000000  0.5123350000000  0.4211330000000 1.0
C      1  0.5280640000000  0.4878400000000  0.5780240000000 1.0
C      1  0.5211800000000  0.4760400000000  0.5801730000000 1.0
C      1  0.5782620000000  0.5124430000000  0.4725310000000 1.0
C      1  0.4743080000000  0.5833880000000  0.5227360000000 1.0
C      1  0.5198870000000  0.5245800000000  0.4197150000000 1.0
C      1  0.4896680000000  0.5293130000000  0.5792600000000 1.0
C      1  0.4794570000000  0.4744540000000  0.4179290000000 1.0
C      1  0.5835130000000  0.4872890000000  0.5273800000000 1.0
C      1  0.4153600000000  0.4863470000000  0.4681370000000 1.0
C      1  0.4222170000000  0.5109940000000  0.5226220000000 1.0
C      1  0.4737020000000  0.4207850000000  0.4856170000000 1.0
C      1  0.5242340000000  0.4213500000000  0.5148200000000 1.0
C      1  0.5237540000000  0.5773930000000  0.4881600000000 1.0
C      1  0.4408140000000  0.4297050000000  0.5131460000000 1.0
C      1  0.4327220000000  0.5219180000000  0.4416160000000 1.0
C      1  0.5117930000000  0.4380040000000  0.4320750000000 1.0
C      1  0.4412060000000  0.5686250000000  0.4889910000000 1.0
C      1  0.5573020000000  0.4281850000000  0.4871180000000 1.0
C      1  0.5598660000000  0.5716890000000  0.5114150000000 1.0
C      1  0.4313350000000  0.4833760000000  0.5555680000000 1.0
C      1  0.5701210000000  0.5221090000000  0.5539080000000 1.0
C      1  0.5650960000000  0.4780610000000  0.4443760000000 1.0
C      1  0.5230460000000  0.5634660000000  0.5680500000000 1.0
C      1  0.4859190000000  0.4431380000000  0.5675010000000 1.0
C      1  0.4874590000000  0.5604070000000  0.4354070000000 1.0
C      1  0.4439920000000  0.5212270000000  0.4328540000000 1.0
C      1  0.4312900000000  0.4400140000000  0.5115900000000 1.0
C      1  0.5129540000000  0.4278330000000  0.4417150000000 1.0
C      1  0.4416870000000  0.4847550000000  0.5654340000000 1.0
C      1  0.5551610000000  0.4779240000000  0.4341550000000 1.0
C      1  0.5594580000000  0.5212810000000  0.5632660000000 1.0
C      1  0.4309170000000  0.5592300000000  0.4881460000000 1.0
C      1  0.5693180000000  0.5615240000000  0.5104050000000 1.0
C      1  0.5667900000000  0.4384410000000  0.4882140000000 1.0
C      1  0.5225810000000  0.5734020000000  0.5578300000000 1.0
C      1  0.4855730000000  0.5700860000000  0.4453190000000 1.0
C      1  0.4849220000000  0.4322230000000  0.5585550000000 1.0
C      1  0.5830870000000  0.5200270000000  0.5350560000000 1.0
C      1  0.5197610000000  0.5436250000000  0.5803100000000 1.0
C      1  0.5406340000000  0.5835810000000  0.5120200000000 1.0
C      1  0.5784130000000  0.4802110000000  0.4629270000000 1.0
C      1  0.4178580000000  0.5196510000000  0.4594500000000 1.0
C      1  0.4187840000000  0.4835620000000  0.5364100000000 1.0
C      1  0.5101410000000  0.4576090000000  0.4204610000000 1.0
C      1  0.4899090000000  0.5416290000000  0.4227740000000 1.0
C      1  0.4876900000000  0.4632530000000  0.5783910000000 1.0
C      1  0.5385900000000  0.4157870000000  0.4864510000000 1.0
C      1  0.4601070000000  0.5804710000000  0.4900680000000 1.0
C      1  0.4593980000000  0.4172280000000  0.5144860000000 1.0
C      1  0.5807420000000  0.5419270000000  0.5085100000000 1.0
C      1  0.5194070000000  0.5857550000000  0.5383490000000 1.0
C      1  0.5405450000000  0.5186070000000  0.5763450000000 1.0
C      1  0.5787370000000  0.4576780000000  0.4896320000000 1.0
C      1  0.4187740000000  0.4588720000000  0.5095010000000 1.0
C      1  0.4182190000000  0.5406760000000  0.4868140000000 1.0
C      1  0.5134540000000  0.4155790000000  0.4605270000000 1.0
C      1  0.4846780000000  0.4184880000000  0.5407360000000 1.0
C      1  0.4847310000000  0.5811250000000  0.4647050000000 1.0
C      1  0.5365650000000  0.4801060000000  0.4206210000000 1.0
C      1  0.4614780000000  0.4885260000000  0.5773380000000 1.0
C      1  0.4633390000000  0.5190860000000  0.4203830000000 1.0
C      1  0.4386990000000  0.5065390000000  0.4643010000000 1.0
C      1  0.5046370000000  0.4638700000000  0.4446630000000 1.0
C      1  0.4665880000000  0.4412990000000  0.5049760000000 1.0
C      1  0.4419180000000  0.4909090000000  0.5291430000000 1.0
C      1  0.5603390000000  0.5081640000000  0.5312020000000 1.0
C      1  0.5569740000000  0.4908570000000  0.4682840000000 1.0
C      1  0.5039110000000  0.5323310000000  0.5577380000000 1.0
C      1  0.4950110000000  0.4655100000000  0.5521600000000 1.0
C      1  0.4950880000000  0.5341680000000  0.4479110000000 1.0
C      1  0.4650270000000  0.5537400000000  0.4968200000000 1.0
C      1  0.5318180000000  0.4409220000000  0.4945050000000 1.0
C      1  0.5325270000000  0.5589720000000  0.5080570000000 1.0
C      1  0.4448750000000  0.4640990000000  0.5025070000000 1.0
C      1  0.5053570000000  0.4400550000000  0.4670630000000 1.0
C      1  0.4677010000000  0.5079760000000  0.4412570000000 1.0
C      1  0.4417830000000  0.5316510000000  0.4930540000000 1.0
C      1  0.5554030000000  0.5352610000000  0.5056180000000 1.0
C      1  0.5537090000000  0.4643890000000  0.4952230000000 1.0
C      1  0.5070220000000  0.5646550000000  0.5376640000000 1.0
C      1  0.4930620000000  0.5567930000000  0.4714560000000 1.0
C      1  0.4930570000000  0.4421990000000  0.5323250000000 1.0
C      1  0.4635300000000  0.4940250000000  0.5514760000000 1.0
C      1  0.5316320000000  0.4902100000000  0.4419350000000 1.0
C      1  0.5317310000000  0.5073160000000  0.5553850000000 1.0
C      1  0.4735630000000  0.4504210000000  0.4302390000000 1.0
C      1  0.4521240000000  0.4252470000000  0.4743470000000 1.0
C      1  0.4382640000000  0.4656310000000  0.4472900000000 1.0
C      1  0.4617820000000  0.5497840000000  0.5686830000000 1.0
C      1  0.5255600000000  0.4523470000000  0.5684040000000 1.0
C      1  0.5251610000000  0.5479140000000  0.4331200000000 1.0
C      1  0.4527420000000  0.5679870000000  0.5272510000000 1.0
C      1  0.5460630000000  0.4256640000000  0.5255690000000 1.0
C      1  0.5450830000000  0.5732300000000  0.4755180000000 1.0
C      1  0.4273690000000  0.5215360000000  0.5450090000000 1.0
C      1  0.5617090000000  0.4666220000000  0.5503030000000 1.0
C      1  0.5611170000000  0.5342760000000  0.4487780000000 1.0
C      1  0.4742990000000  0.4245540000000  0.4525960000000 1.0
C      1  0.4486260000000  0.4649370000000  0.4365530000000 1.0
C      1  0.4304310000000  0.4518240000000  0.4724060000000 1.0
C      1  0.4653670000000  0.5645630000000  0.5520120000000 1.0
C      1  0.5229780000000  0.5726890000000  0.4554220000000 1.0
C      1  0.5239620000000  0.4268050000000  0.5473980000000 1.0
C      1  0.4521630000000  0.5234690000000  0.5679090000000 1.0
C      1  0.5502410000000  0.5342040000000  0.4382990000000 1.0
C      1  0.5519040000000  0.4661330000000  0.5616220000000 1.0
C      1  0.4272600000000  0.5445020000000  0.5248390000000 1.0
C      1  0.5677150000000  0.5483960000000  0.4734340000000 1.0
C      1  0.5682450000000  0.4523090000000  0.5256710000000 1.0
C      1  0.5455640000000  0.5368950000000  0.5245540000000 1.0
C      1  0.5343700000000  0.5281350000000  0.5441960000000 1.0
C      1  0.5281370000000  0.5505260000000  0.5378690000000 1.0
C      1  0.5422970000000  0.4638580000000  0.4778460000000 1.0
C      1  0.4554480000000  0.5340130000000  0.4771290000000 1.0
C      1  0.4563240000000  0.4656070000000  0.5199840000000 1.0
C      1  0.5336050000000  0.4709530000000  0.4545980000000 1.0
C      1  0.4658180000000  0.5273820000000  0.4544030000000 1.0
C      1  0.4667400000000  0.4762500000000  0.5408510000000 1.0
C      1  0.5219020000000  0.4530970000000  0.4672700000000 1.0
C      1  0.4770370000000  0.5437170000000  0.4696160000000 1.0
C      1  0.4768530000000  0.4557990000000  0.5312890000000 1.0
C      1  0.5477480000000  0.5299040000000  0.5369870000000 1.0
C      1  0.5351780000000  0.5474230000000  0.5252420000000 1.0
C      1  0.5261690000000  0.5383120000000  0.5467720000000 1.0
C      1  0.5448650000000  0.4712680000000  0.4662540000000 1.0
C      1  0.4559580000000  0.4751000000000  0.5304020000000 1.0
C      1  0.4528620000000  0.5271480000000  0.4647110000000 1.0
C      1  0.5317610000000  0.4535800000000  0.4777810000000 1.0
C      1  0.4668760000000  0.4552030000000  0.5208410000000 1.0
C      1  0.4665650000000  0.5434920000000  0.4790470000000 1.0
C      1  0.5219710000000  0.4632310000000  0.4565770000000 1.0
C      1  0.4773810000000  0.4670570000000  0.5411670000000 1.0
C      1  0.4774820000000  0.5340980000000  0.4586660000000 1.0
C      1  0.4875370000000  0.5651830000000  0.4832110000000 1.0
C      1  0.5642600000000  0.4760250000000  0.4925130000000 1.0
C      1  0.4752870000000  0.4950580000000  0.5607460000000 1.0
C      1  0.4881670000000  0.4322430000000  0.5216810000000 1.0
C      1  0.5097480000000  0.5702270000000  0.5243200000000 1.0
C      1  0.5100410000000  0.4308580000000  0.4784590000000 1.0
C      1  0.5659490000000  0.5231820000000  0.5071990000000 1.0
C      1  0.4338540000000  0.4752210000000  0.5045370000000 1.0
C      1  0.4321770000000  0.5207250000000  0.4875720000000 1.0
C      1  0.4802330000000  0.5119240000000  0.4342410000000 1.0
C      1  0.5193150000000  0.4870520000000  0.4341160000000 1.0
C      1  0.5202600000000  0.5119170000000  0.5648570000000 1.0
C      1  0.4987300000000  0.4764240000000  0.5623780000000 1.0
C      1  0.5651040000000  0.4871510000000  0.4802510000000 1.0
C      1  0.4765090000000  0.5643710000000  0.4953340000000 1.0
C      1  0.4926330000000  0.5229080000000  0.4367130000000 1.0
C      1  0.5139790000000  0.5253350000000  0.5666660000000 1.0
C      1  0.5070950000000  0.4761670000000  0.4348680000000 1.0
C      1  0.5682660000000  0.5123800000000  0.5190050000000 1.0
C      1  0.4303000000000  0.5102300000000  0.4760120000000 1.0
C      1  0.4334090000000  0.4858080000000  0.5173730000000 1.0
C      1  0.4774910000000  0.4318580000000  0.5102870000000 1.0
C      1  0.5208500000000  0.4311910000000  0.4897190000000 1.0
C      1  0.5210350000000  0.5682210000000  0.5130220000000 1.0
C      1  0.4463300000000  0.4758840000000  0.4666800000000 1.0
C      1  0.4801110000000  0.4690040000000  0.4485230000000 1.0
C      1  0.4701230000000  0.4446110000000  0.4796840000000 1.0
C      1  0.4459930000000  0.5155250000000  0.5262680000000 1.0
C      1  0.5532650000000  0.4773020000000  0.5301110000000 1.0
C      1  0.5520590000000  0.5188390000000  0.4721610000000 1.0
C      1  0.4711370000000  0.5280590000000  0.5494930000000 1.0
C      1  0.5196740000000  0.4711110000000  0.5494720000000 1.0
C      1  0.5198930000000  0.5290850000000  0.4524360000000 1.0
C      1  0.4677370000000  0.5472210000000  0.5214280000000 1.0
C      1  0.5286960000000  0.4455820000000  0.5193700000000 1.0
C      1  0.5280600000000  0.5532870000000  0.4834620000000 1.0
C      1  0.4504180000000  0.4673670000000  0.4770030000000 1.0
C      1  0.4802080000000  0.4442250000000  0.4697110000000 1.0
C      1  0.4717870000000  0.4803030000000  0.4454000000000 1.0
C      1  0.4461670000000  0.5263770000000  0.5174210000000 1.0
C      1  0.5493580000000  0.5296880000000  0.4812080000000 1.0
C      1  0.5487710000000  0.4688120000000  0.5200530000000 1.0
C      1  0.4763570000000  0.5511480000000  0.5309720000000 1.0
C      1  0.5178470000000  0.5527730000000  0.4737870000000 1.0
C      1  0.5185240000000  0.4457550000000  0.5292050000000 1.0
C      1  0.4653860000000  0.5166000000000  0.5460870000000 1.0
C      1  0.5280070000000  0.5181460000000  0.4478960000000 1.0
C      1  0.5290160000000  0.4811740000000  0.5522560000000 1.0
C      1  0.5475750000000  0.5481700000000  0.4415940000000 1.0
C      1  0.5359040000000  0.4353510000000  0.5488060000000 1.0
C      1  0.4363000000000  0.5461730000000  0.5364210000000 1.0
C      1  0.5485740000000  0.4523220000000  0.5584010000000 1.0
C      1  0.4457890000000  0.5341960000000  0.5588850000000 1.0
C      1  0.4511380000000  0.4509680000000  0.4401820000000 1.0
C      1  0.5349510000000  0.5644690000000  0.4528740000000 1.0
C      1  0.4628610000000  0.4336390000000  0.4504630000000 1.0
C      1  0.4536030000000  0.5571360000000  0.5492730000000 1.0
C      1  0.4395830000000  0.4445760000000  0.4622960000000 1.0
C      1  0.5583330000000  0.5549720000000  0.4634920000000 1.0
C      1  0.5592040000000  0.4453910000000  0.5361300000000 1.0
C      1  0.5481520000000  0.4350110000000  0.5366860000000 1.0
C      1  0.5354260000000  0.5547260000000  0.4417140000000 1.0
C      1  0.4362300000000  0.5335700000000  0.5475910000000 1.0
C      1  0.5469080000000  0.5646790000000  0.4639920000000 1.0
C      1  0.4465380000000  0.5575830000000  0.5369910000000 1.0
C      1  0.4504050000000  0.4340010000000  0.4625160000000 1.0
C      1  0.5362880000000  0.4456260000000  0.5594540000000 1.0
C      1  0.4629910000000  0.4437520000000  0.4393420000000 1.0
C      1  0.4518270000000  0.5470770000000  0.5595010000000 1.0
C      1  0.4409450000000  0.4517280000000  0.4504450000000 1.0
C      1  0.5585960000000  0.4526730000000  0.5479060000000 1.0
C      1  0.5579170000000  0.5482360000000  0.4514680000000 1.0
C      1  0.5346240000000  0.5277800000000  0.4864270000000 1.0
C      1  0.5324130000000  0.4885240000000  0.5392890000000 1.0
C      1  0.4871520000000  0.5440050000000  0.5368710000000 1.0
C      1  0.5343660000000  0.4721360000000  0.5170110000000 1.0
C      1  0.4605470000000  0.5227470000000  0.5127670000000 1.0
C      1  0.4648340000000  0.4707710000000  0.4802690000000 1.0
C      1  0.5311560000000  0.5086740000000  0.4582030000000 1.0
C      1  0.4678540000000  0.4874230000000  0.4583960000000 1.0
C      1  0.4709480000000  0.5128040000000  0.5321070000000 1.0
C      1  0.4847560000000  0.4585510000000  0.4726600000000 1.0
C      1  0.5138660000000  0.5382210000000  0.4777300000000 1.0
C      1  0.5143940000000  0.4600470000000  0.5256940000000 1.0
C      1  0.5456220000000  0.4893180000000  0.5336980000000 1.0
C      1  0.5249700000000  0.5391200000000  0.4886860000000 1.0
C      1  0.4835760000000  0.5308150000000  0.5422700000000 1.0
C      1  0.5390470000000  0.5107010000000  0.4701050000000 1.0
C      1  0.4602310000000  0.5109880000000  0.5223130000000 1.0
C      1  0.4541480000000  0.4876220000000  0.4627450000000 1.0
C      1  0.5253600000000  0.4601360000000  0.5149510000000 1.0
C      1  0.4737570000000  0.4591720000000  0.4833030000000 1.0
C      1  0.4715470000000  0.5322990000000  0.5173460000000 1.0
C      1  0.4834660000000  0.4702980000000  0.4634480000000 1.0
C      1  0.5161760000000  0.4720360000000  0.5344580000000 1.0
C      1  0.5165900000000  0.5265170000000  0.4679930000000 1.0
C      1  0.4360250000000  0.5318060000000  0.5077370000000 1.0
C      1  0.5350600000000  0.5129830000000  0.4330560000000 1.0
C      1  0.5079320000000  0.4360170000000  0.5339010000000 1.0
C      1  0.4434160000000  0.4598170000000  0.4882890000000 1.0
C      1  0.5567130000000  0.5382960000000  0.4909250000000 1.0
C      1  0.5553190000000  0.4605870000000  0.5095320000000 1.0
C      1  0.5363660000000  0.4866340000000  0.5657150000000 1.0
C      1  0.4575140000000  0.5072130000000  0.5529030000000 1.0
C      1  0.4644570000000  0.4857040000000  0.4318550000000 1.0
C      1  0.5074170000000  0.5627860000000  0.4696520000000 1.0
C      1  0.4905150000000  0.4340410000000  0.4657400000000 1.0
C      1  0.4860960000000  0.5776270000000  0.5423460000000 1.0
C      1  0.4358360000000  0.5055810000000  0.5305770000000 1.0
C      1  0.5330410000000  0.4351890000000  0.5093170000000 1.0
C      1  0.5094190000000  0.5378530000000  0.4461050000000 1.0
C      1  0.4253750000000  0.4869940000000  0.4579640000000 1.0
C      1  0.5740170000000  0.4879900000000  0.5379450000000 1.0
C      1  0.5656450000000  0.5134380000000  0.4645920000000 1.0
C      1  0.5328060000000  0.5639500000000  0.4928890000000 1.0
C      1  0.4602370000000  0.5547660000000  0.5106800000000 1.0
C      1  0.4654060000000  0.4349030000000  0.4903560000000 1.0
C      1  0.5087560000000  0.4652790000000  0.5579680000000 1.0
C      1  0.4902920000000  0.4606100000000  0.4418370000000 1.0
C      1  0.4939950000000  0.5398580000000  0.5693400000000 1.0
C      1  0.5513900000000  0.5698860000000  0.5234290000000 1.0
C      1  0.5708530000000  0.5343890000000  0.5457480000000 1.0
C      1  0.5352160000000  0.5557420000000  0.5687490000000 1.0
C      1  0.5473210000000  0.4310110000000  0.4759410000000 1.0
C      1  0.4513780000000  0.5661020000000  0.4780040000000 1.0
C      1  0.4509610000000  0.4329140000000  0.5242030000000 1.0
C      1  0.5660400000000  0.4655200000000  0.4527380000000 1.0
C      1  0.4326000000000  0.5336810000000  0.4507940000000 1.0
C      1  0.4334860000000  0.4721200000000  0.5457150000000 1.0
C      1  0.5228040000000  0.4476050000000  0.4341120000000 1.0
C      1  0.4769540000000  0.5502030000000  0.4370280000000 1.0
C      1  0.4751970000000  0.4533400000000  0.5644310000000 1.0
C      1  0.5534990000000  0.5341420000000  0.5663560000000 1.0
C      1  0.5679080000000  0.5523570000000  0.5218760000000 1.0
C      1  0.5340140000000  0.5733880000000  0.5486000000000 1.0
C      1  0.5468470000000  0.4654150000000  0.4333740000000 1.0
C      1  0.4521710000000  0.4742130000000  0.5636480000000 1.0
C      1  0.4527830000000  0.5334560000000  0.4330320000000 1.0
C      1  0.5645950000000  0.4482070000000  0.4772790000000 1.0
C      1  0.4337710000000  0.4505990000000  0.5220910000000 1.0
C      1  0.4332250000000  0.5504970000000  0.4763700000000 1.0
C      1  0.5242330000000  0.4305640000000  0.4515830000000 1.0
C      1  0.4738670000000  0.4343220000000  0.5482670000000 1.0
C      1  0.4745530000000  0.5664160000000  0.4549450000000 1.0
C      1  0.4810250000000  0.4454950000000  0.5423640000000 1.0
C      1  0.4445410000000  0.5438140000000  0.4829510000000 1.0
C      1  0.5433380000000  0.4623660000000  0.4463320000000 1.0
C      1  0.4821850000000  0.5550100000000  0.4600480000000 1.0
C      1  0.5171150000000  0.4421470000000  0.4567050000000 1.0
C      1  0.5377830000000  0.5601050000000  0.5462000000000 1.0
C      1  0.4460010000000  0.4548970000000  0.5155350000000 1.0
C      1  0.5552200000000  0.5468860000000  0.5171810000000 1.0
C      1  0.5525280000000  0.4534800000000  0.4835610000000 1.0
C      1  0.5534200000000  0.5447140000000  0.5571720000000 1.0
C      1  0.4556050000000  0.4803850000000  0.5510570000000 1.0
C      1  0.4562200000000  0.5364400000000  0.4460250000000 1.0
C      1  0.4834760000000  0.5448770000000  0.4490650000000 1.0
C      1  0.4450010000000  0.4790210000000  0.5405910000000 1.0
C      1  0.5421160000000  0.4427560000000  0.4829710000000 1.0
C      1  0.4820550000000  0.4568080000000  0.5521560000000 1.0
C      1  0.5165510000000  0.4527910000000  0.4461700000000 1.0
C      1  0.5441570000000  0.5550040000000  0.5579380000000 1.0
C      1  0.4454430000000  0.5364780000000  0.4551580000000 1.0
C      1  0.5578470000000  0.5395260000000  0.5446870000000 1.0
C      1  0.5531880000000  0.4624890000000  0.4564330000000 1.0
C      1  0.5447810000000  0.5577620000000  0.5181860000000 1.0
C      1  0.4556860000000  0.5536970000000  0.4842000000000 1.0
C      1  0.4563510000000  0.4441770000000  0.5167300000000 1.0
C      1  0.5751790000000  0.4573630000000  0.4750230000000 1.0
C      1  0.4627590000000  0.4739000000000  0.5734780000000 1.0
C      1  0.4709310000000  0.5761290000000  0.4649520000000 1.0
C      1  0.5784520000000  0.5428430000000  0.5232120000000 1.0
C      1  0.4234480000000  0.4600830000000  0.5245610000000 1.0
C      1  0.4225270000000  0.5419880000000  0.4725860000000 1.0
C      1  0.4640790000000  0.5329220000000  0.4241070000000 1.0
C      1  0.5359870000000  0.4660660000000  0.4236640000000 1.0
C      1  0.5424100000000  0.5328160000000  0.5752260000000 1.0
C      1  0.4702140000000  0.4237430000000  0.5393210000000 1.0
C      1  0.5333910000000  0.5822870000000  0.5374110000000 1.0
C      1  0.5279450000000  0.4208190000000  0.4613870000000 1.0
C      1  0.5754750000000  0.4661980000000  0.4637080000000 1.0
C      1  0.4610920000000  0.5761640000000  0.4754020000000 1.0
C      1  0.4733760000000  0.4640840000000  0.5738770000000 1.0
C      1  0.5798140000000  0.5340170000000  0.5344880000000 1.0
C      1  0.4221340000000  0.5334380000000  0.4609790000000 1.0
C      1  0.4235220000000  0.4695720000000  0.5355300000000 1.0
C      1  0.4603160000000  0.4231580000000  0.5288120000000 1.0
C      1  0.5379000000000  0.4210050000000  0.4718780000000 1.0
C      1  0.5424410000000  0.5807410000000  0.5262470000000 1.0
C      1  0.4753180000000  0.5416190000000  0.4258420000000 1.0
C      1  0.5335130000000  0.5439730000000  0.5766270000000 1.0
C      1  0.5247420000000  0.4571200000000  0.4237620000000 1.0
C      1  0.4882350000000  0.4502080000000  0.4321670000000 1.0
C      1  0.4520140000000  0.4282200000000  0.4895910000000 1.0
C      1  0.4301630000000  0.4997150000000  0.4537900000000 1.0
C      1  0.4994060000000  0.5520420000000  0.5732230000000 1.0
C      1  0.5105840000000  0.4539210000000  0.5673460000000 1.0
C      1  0.5109230000000  0.5481770000000  0.4360130000000 1.0
C      1  0.4522580000000  0.5663580000000  0.5126400000000 1.0
C      1  0.5462010000000  0.4280290000000  0.5103930000000 1.0
C      1  0.5463950000000  0.5703570000000  0.4900640000000 1.0
C      1  0.4298270000000  0.5065980000000  0.5443430000000 1.0
C      1  0.5696300000000  0.5008700000000  0.5413750000000 1.0
C      1  0.5635400000000  0.4997370000000  0.4589420000000 1.0
C      1  0.4895420000000  0.4272220000000  0.4524510000000 1.0
C      1  0.4586360000000  0.4992430000000  0.4341000000000 1.0
C      1  0.4322620000000  0.4509970000000  0.4870350000000 1.0
C      1  0.4992040000000  0.5733860000000  0.5464910000000 1.0
C      1  0.5082010000000  0.5694770000000  0.4560410000000 1.0
C      1  0.5087560000000  0.4301560000000  0.5477060000000 1.0
C      1  0.4507190000000  0.5092090000000  0.5653620000000 1.0
C      1  0.5407840000000  0.4994440000000  0.4352720000000 1.0
C      1  0.5427260000000  0.4998300000000  0.5620690000000 1.0
C      1  0.4299720000000  0.5455660000000  0.5100880000000 1.0
C      1  0.5665040000000  0.5485600000000  0.4879890000000 1.0
C      1  0.5658850000000  0.4509920000000  0.5113530000000 1.0
C      1  0.5372710000000  0.5218720000000  0.5003730000000 1.0
C      1  0.5257820000000  0.5019760000000  0.5419940000000 1.0
C      1  0.5006390000000  0.5440780000000  0.5309910000000 1.0
C      1  0.5362540000000  0.4781630000000  0.5029960000000 1.0
C      1  0.4605890000000  0.5181620000000  0.4988970000000 1.0
C      1  0.4624990000000  0.4772300000000  0.4936150000000 1.0
C      1  0.5237170000000  0.4962480000000  0.4588370000000 1.0
C      1  0.4743910000000  0.5013340000000  0.4586030000000 1.0
C      1  0.4783910000000  0.5000410000000  0.5328800000000 1.0
C      1  0.4977570000000  0.4591550000000  0.4790690000000 1.0
C      1  0.5004890000000  0.5380110000000  0.4838660000000 1.0
C      1  0.5013840000000  0.4605420000000  0.5192790000000 1.0
C      1  0.5478380000000  0.5015420000000  0.5263500000000 1.0
C      1  0.5201740000000  0.5394600000000  0.5027240000000 1.0
C      1  0.4954980000000  0.5227330000000  0.5494260000000 1.0
C      1  0.5403690000000  0.4970300000000  0.4766940000000 1.0
C      1  0.4608160000000  0.4979440000000  0.5161700000000 1.0
C      1  0.4511420000000  0.4997510000000  0.4695740000000 1.0
C      1  0.5193460000000  0.4600780000000  0.5017850000000 1.0
C      1  0.4793640000000  0.4599770000000  0.4966070000000 1.0
C      1  0.4783850000000  0.5359440000000  0.5046290000000 1.0
C      1  0.4972420000000  0.4767350000000  0.4628550000000 1.0
C      1  0.5028350000000  0.4789780000000  0.5345060000000 1.0
C      1  0.5023530000000  0.5201910000000  0.4655220000000 1.0
C      1  0.4783050000000  0.5249590000000  0.5284540000000 1.0
C      1  0.5283160000000  0.5200080000000  0.4752850000000 1.0
C      1  0.5274690000000  0.4793350000000  0.5285200000000 1.0
C      1  0.4723650000000  0.4778500000000  0.4690620000000 1.0
END
