TITL C-1379267-1329-26 4.9667176146062e-07 1000000 -1220.42114184083 0 0 180 (Td) n - 1
REM
REM in /nfs/bkarasulu/CARBON/AIRSS/Generating-Clusters/GAP-ML-2020/Higher-Symm/Selected-Sizes/TryA-Only_Ih-Symm/Larger-Clusters/Try2-MINAMP_6A
REM
REM
REM
REM
REM
REM ./C.cell (31579ac4e95a012ec27f3239692ae8a5)
REM
REM compiler GCC version 9.2.1 20190827 (Red Hat 9.2.1-1)
REM options -cpp -mtune=generic -march=x86-64 -g -O0 -fpre-include=/usr/include/finclude/math-vector-fortran.h
REM seed 193627470 -62227048 -1674729554 -587020812 -136507865 -580223177 -1741772690 2082669762 502235764 -1720571626 2073333232 -261074524 820176067 -1756678609 1325325921 -1695230167 -802566727 -1705960433 -1594031400 12198213 -1548494182 -1130030392 1387886848 1527180469 1672071847 1318795846 -837123329 -2070136829 273554717 -1137265177 1086748301 648560986 1188857630
REM
CELL 1.54180  100.00000  100.00000  100.00000   90.00000   90.00000   90.00000
LATT -1
SFAC C  
C      1  0.5030550000000  0.5308700000000  0.5582220000000 1.0
C      1  0.5308700000000  0.5582230000000  0.5030550000000 1.0
C      1  0.5582220000000  0.5030550000000  0.5308700000000 1.0
C      1  0.5030540000000  0.4691300000000  0.4417780000000 1.0
C      1  0.4969450000000  0.5308700000000  0.4417780000000 1.0
C      1  0.4969460000000  0.4691300000000  0.5582220000000 1.0
C      1  0.5308700000000  0.4417780000000  0.4969450000000 1.0
C      1  0.4691300000000  0.5582230000000  0.4969450000000 1.0
C      1  0.4691300000000  0.4417780000000  0.5030540000000 1.0
C      1  0.5582210000000  0.4969460000000  0.4691300000000 1.0
C      1  0.4417770000000  0.5030540000000  0.4691300000000 1.0
C      1  0.4417780000000  0.4969450000000  0.5308700000000 1.0
C      1  0.5030550000000  0.5582230000000  0.5308700000000 1.0
C      1  0.5308700000000  0.5030550000000  0.5582230000000 1.0
C      1  0.5582220000000  0.5308700000000  0.5030550000000 1.0
C      1  0.5030540000000  0.4417780000000  0.4691300000000 1.0
C      1  0.4969460000000  0.4417780000000  0.5308700000000 1.0
C      1  0.4969460000000  0.5582230000000  0.4691300000000 1.0
C      1  0.5308700000000  0.4969450000000  0.4417780000000 1.0
C      1  0.4691300000000  0.4969450000000  0.5582220000000 1.0
C      1  0.4691300000000  0.5030540000000  0.4417780000000 1.0
C      1  0.5582220000000  0.4691300000000  0.4969460000000 1.0
C      1  0.4417780000000  0.4691300000000  0.5030540000000 1.0
C      1  0.4417780000000  0.5308700000000  0.4969450000000 1.0
C      1  0.5377250000000  0.4723520000000  0.5646170000000 1.0
C      1  0.4723530000000  0.5646170000000  0.5377250000000 1.0
C      1  0.5646170000000  0.5377250000000  0.4723530000000 1.0
C      1  0.5377250000000  0.5276470000000  0.4353830000000 1.0
C      1  0.4622740000000  0.4723520000000  0.4353830000000 1.0
C      1  0.4622750000000  0.5276470000000  0.5646160000000 1.0
C      1  0.4723520000000  0.4353830000000  0.4622750000000 1.0
C      1  0.5276480000000  0.5646170000000  0.4622750000000 1.0
C      1  0.5276480000000  0.4353830000000  0.5377250000000 1.0
C      1  0.5646170000000  0.4622750000000  0.5276480000000 1.0
C      1  0.4353840000000  0.5377250000000  0.5276470000000 1.0
C      1  0.4353830000000  0.4622750000000  0.4723530000000 1.0
C      1  0.5377260000000  0.5646170000000  0.4723520000000 1.0
C      1  0.4723530000000  0.5377250000000  0.5646160000000 1.0
C      1  0.5646170000000  0.4723530000000  0.5377250000000 1.0
C      1  0.5377250000000  0.4353830000000  0.5276470000000 1.0
C      1  0.4622750000000  0.4353830000000  0.4723530000000 1.0
C      1  0.4622750000000  0.5646170000000  0.5276470000000 1.0
C      1  0.4723520000000  0.4622750000000  0.4353830000000 1.0
C      1  0.5276480000000  0.4622740000000  0.5646170000000 1.0
C      1  0.5276470000000  0.5377250000000  0.4353830000000 1.0
C      1  0.5646170000000  0.5276470000000  0.4622750000000 1.0
C      1  0.4353830000000  0.5276470000000  0.5377250000000 1.0
C      1  0.4353830000000  0.4723520000000  0.4622750000000 1.0
C      1  0.5154670000000  0.4658790000000  0.5717690000000 1.0
C      1  0.4658790000000  0.5717690000000  0.5154670000000 1.0
C      1  0.5717690000000  0.5154670000000  0.4658790000000 1.0
C      1  0.5154670000000  0.5341210000000  0.4282310000000 1.0
C      1  0.4845330000000  0.4658790000000  0.4282310000000 1.0
C      1  0.4845330000000  0.5341210000000  0.5717690000000 1.0
C      1  0.4658790000000  0.4282310000000  0.4845330000000 1.0
C      1  0.5341210000000  0.5717700000000  0.4845330000000 1.0
C      1  0.5341210000000  0.4282310000000  0.5154670000000 1.0
C      1  0.5717690000000  0.4845330000000  0.5341210000000 1.0
C      1  0.4282310000000  0.5154670000000  0.5341210000000 1.0
C      1  0.4282300000000  0.4845330000000  0.4658790000000 1.0
C      1  0.5154670000000  0.5717690000000  0.4658790000000 1.0
C      1  0.4658790000000  0.5154670000000  0.5717690000000 1.0
C      1  0.5717690000000  0.4658790000000  0.5154670000000 1.0
C      1  0.5154670000000  0.4282310000000  0.5341210000000 1.0
C      1  0.4845330000000  0.4282310000000  0.4658790000000 1.0
C      1  0.4845330000000  0.5717690000000  0.5341210000000 1.0
C      1  0.4658790000000  0.4845330000000  0.4282310000000 1.0
C      1  0.5341210000000  0.4845330000000  0.5717700000000 1.0
C      1  0.5341210000000  0.5154670000000  0.4282310000000 1.0
C      1  0.5717690000000  0.5341210000000  0.4845330000000 1.0
C      1  0.4282310000000  0.5341210000000  0.5154670000000 1.0
C      1  0.4282310000000  0.4658790000000  0.4845330000000 1.0
C      1  0.4992360000000  0.4349170000000  0.5187150000000 1.0
C      1  0.4349160000000  0.5187150000000  0.4992360000000 1.0
C      1  0.5187150000000  0.4992360000000  0.4349170000000 1.0
C      1  0.4992360000000  0.5650840000000  0.4812840000000 1.0
C      1  0.5007640000000  0.4349170000000  0.4812840000000 1.0
C      1  0.5007640000000  0.5650840000000  0.5187150000000 1.0
C      1  0.4349170000000  0.4812840000000  0.5007640000000 1.0
C      1  0.5650830000000  0.5187160000000  0.5007640000000 1.0
C      1  0.5650830000000  0.4812850000000  0.4992360000000 1.0
C      1  0.5187160000000  0.5007640000000  0.5650840000000 1.0
C      1  0.4812850000000  0.4992360000000  0.5650830000000 1.0
C      1  0.4812840000000  0.5007640000000  0.4349180000000 1.0
C      1  0.4992360000000  0.5187150000000  0.4349170000000 1.0
C      1  0.4349160000000  0.4992360000000  0.5187150000000 1.0
C      1  0.5187160000000  0.4349170000000  0.4992360000000 1.0
C      1  0.4992360000000  0.4812840000000  0.5650830000000 1.0
C      1  0.5007640000000  0.4812840000000  0.4349170000000 1.0
C      1  0.5007640000000  0.5187150000000  0.5650830000000 1.0
C      1  0.4349160000000  0.5007640000000  0.4812840000000 1.0
C      1  0.5650830000000  0.5007640000000  0.5187160000000 1.0
C      1  0.5650830000000  0.4992360000000  0.4812850000000 1.0
C      1  0.5187160000000  0.5650840000000  0.5007640000000 1.0
C      1  0.4812850000000  0.5650840000000  0.4992360000000 1.0
C      1  0.4812850000000  0.4349170000000  0.5007640000000 1.0
C      1  0.4542150000000  0.5553530000000  0.5192460000000 1.0
C      1  0.5553530000000  0.5192470000000  0.4542150000000 1.0
C      1  0.5192470000000  0.4542150000000  0.5553540000000 1.0
C      1  0.4542150000000  0.4446460000000  0.4807540000000 1.0
C      1  0.5457850000000  0.5553540000000  0.4807540000000 1.0
C      1  0.5457850000000  0.4446460000000  0.5192460000000 1.0
C      1  0.5553540000000  0.4807540000000  0.5457860000000 1.0
C      1  0.4446470000000  0.5192460000000  0.5457850000000 1.0
C      1  0.4446460000000  0.4807530000000  0.4542150000000 1.0
C      1  0.5192460000000  0.5457850000000  0.4446460000000 1.0
C      1  0.4807530000000  0.4542150000000  0.4446460000000 1.0
C      1  0.4807540000000  0.5457850000000  0.5553530000000 1.0
C      1  0.4542150000000  0.5192460000000  0.5553530000000 1.0
C      1  0.5553540000000  0.4542150000000  0.5192470000000 1.0
C      1  0.5192470000000  0.5553540000000  0.4542150000000 1.0
C      1  0.4542140000000  0.4807530000000  0.4446460000000 1.0
C      1  0.5457850000000  0.4807540000000  0.5553540000000 1.0
C      1  0.5457850000000  0.5192460000000  0.4446470000000 1.0
C      1  0.5553540000000  0.5457850000000  0.4807540000000 1.0
C      1  0.4446470000000  0.5457850000000  0.5192460000000 1.0
C      1  0.4446460000000  0.4542150000000  0.4807540000000 1.0
C      1  0.5192470000000  0.4446460000000  0.5457850000000 1.0
C      1  0.4807530000000  0.4446460000000  0.4542150000000 1.0
C      1  0.4807540000000  0.5553530000000  0.5457850000000 1.0
C      1  0.4261390000000  0.4889070000000  0.4790250000000 1.0
C      1  0.4889070000000  0.4790250000000  0.4261390000000 1.0
C      1  0.4790250000000  0.4261390000000  0.4889080000000 1.0
C      1  0.4261390000000  0.5110930000000  0.5209740000000 1.0
C      1  0.5738610000000  0.4889080000000  0.5209750000000 1.0
C      1  0.5738610000000  0.5110920000000  0.4790260000000 1.0
C      1  0.4889080000000  0.5209750000000  0.5738610000000 1.0
C      1  0.5110930000000  0.4790250000000  0.5738610000000 1.0
C      1  0.5110920000000  0.5209740000000  0.4261390000000 1.0
C      1  0.4790250000000  0.5738610000000  0.5110920000000 1.0
C      1  0.5209750000000  0.4261390000000  0.5110920000000 1.0
C      1  0.5209750000000  0.5738620000000  0.4889070000000 1.0
C      1  0.4261390000000  0.4790250000000  0.4889070000000 1.0
C      1  0.4889080000000  0.4261390000000  0.4790250000000 1.0
C      1  0.4790250000000  0.4889080000000  0.4261390000000 1.0
C      1  0.4261390000000  0.5209750000000  0.5110920000000 1.0
C      1  0.5738610000000  0.5209750000000  0.4889080000000 1.0
C      1  0.5738610000000  0.4790250000000  0.5110930000000 1.0
C      1  0.4889080000000  0.5738610000000  0.5209750000000 1.0
C      1  0.5110930000000  0.5738610000000  0.4790250000000 1.0
C      1  0.5110930000000  0.4261390000000  0.5209740000000 1.0
C      1  0.4790260000000  0.5110920000000  0.5738610000000 1.0
C      1  0.5209740000000  0.5110920000000  0.4261390000000 1.0
C      1  0.5209750000000  0.4889070000000  0.5738610000000 1.0
C      1  0.5612190000000  0.5398950000000  0.4929630000000 1.0
C      1  0.5398950000000  0.4929630000000  0.5612190000000 1.0
C      1  0.4929640000000  0.5612190000000  0.5398950000000 1.0
C      1  0.5612190000000  0.4601050000000  0.5070370000000 1.0
C      1  0.4387820000000  0.5398950000000  0.5070360000000 1.0
C      1  0.4387810000000  0.4601050000000  0.4929630000000 1.0
C      1  0.5398950000000  0.5070370000000  0.4387820000000 1.0
C      1  0.4601040000000  0.4929630000000  0.4387820000000 1.0
C      1  0.4601050000000  0.5070370000000  0.5612180000000 1.0
C      1  0.4929630000000  0.4387810000000  0.4601050000000 1.0
C      1  0.5070370000000  0.5612190000000  0.4601050000000 1.0
C      1  0.5070370000000  0.4387810000000  0.5398950000000 1.0
C      1  0.5612190000000  0.4929630000000  0.5398960000000 1.0
C      1  0.5398960000000  0.5612190000000  0.4929630000000 1.0
C      1  0.4929640000000  0.5398950000000  0.5612190000000 1.0
C      1  0.5612180000000  0.5070370000000  0.4601050000000 1.0
C      1  0.4387810000000  0.5070370000000  0.5398950000000 1.0
C      1  0.4387810000000  0.4929630000000  0.4601050000000 1.0
C      1  0.5398950000000  0.4387810000000  0.5070370000000 1.0
C      1  0.4601050000000  0.4387810000000  0.4929630000000 1.0
C      1  0.4601050000000  0.5612190000000  0.5070360000000 1.0
C      1  0.4929630000000  0.4601050000000  0.4387810000000 1.0
C      1  0.5070370000000  0.4601050000000  0.5612190000000 1.0
C      1  0.5070370000000  0.5398950000000  0.4387810000000 1.0
C      1  0.4947830000000  0.4947820000000  0.5646690000000 1.0
C      1  0.5052180000000  0.4353310000000  0.4947820000000 1.0
C      1  0.4947830000000  0.5646700000000  0.4947820000000 1.0
C      1  0.5646690000000  0.4947830000000  0.4947830000000 1.0
C      1  0.4947820000000  0.5052170000000  0.4353320000000 1.0
C      1  0.5052170000000  0.4947820000000  0.4353320000000 1.0
C      1  0.5052180000000  0.5052170000000  0.5646690000000 1.0
C      1  0.4947830000000  0.4353310000000  0.5052170000000 1.0
C      1  0.5052180000000  0.5646700000000  0.5052170000000 1.0
C      1  0.5646690000000  0.5052180000000  0.5052180000000 1.0
C      1  0.4353310000000  0.4947820000000  0.5052170000000 1.0
C      1  0.4353300000000  0.5052170000000  0.4947820000000 1.0
END
