TITL C-1379265-1223-32 -4.70923090814615e-07 1000000 -2671.19433859525 0 0 380 (C3) n - 1
REM
REM in /nfs/bkarasulu/CARBON/AIRSS/Generating-Clusters/GAP-ML-2020/Higher-Symm/Selected-Sizes/TryA-Only_Ih-Symm/Larger-Clusters/Try2-MINAMP_6A
REM
REM
REM
REM
REM
REM ./C.cell (31579ac4e95a012ec27f3239692ae8a5)
REM
REM compiler GCC version 9.2.1 20190827 (Red Hat 9.2.1-1)
REM options -cpp -mtune=generic -march=x86-64 -g -O0 -fpre-include=/usr/include/finclude/math-vector-fortran.h
REM seed 1547160662 63753979 -1300104152 766465681 950928124 -1720749746 1184835186 584091295 1240400531 -1328778345 -1314328514 1642661409 975234367 61785983 628353398 1351123558 811695361 -1110458315 741937819 -916498830 1536853856 785182779 -865161096 -1287567400 685009298 -407160898 -997902128 -1851087761 1369832206 1287001850 -898994701 73282292 -268861125
REM
CELL 1.54180  100.00000  100.00000  100.00000   90.00000   90.00000   90.00000
LATT -1
SFAC C  
C      1  0.4265410000000  0.4756330000000  0.5147820000000 1.0
C      1  0.4755920000000  0.5149140000000  0.4264510000000 1.0
C      1  0.5148730000000  0.4265830000000  0.4755010000000 1.0
C      1  0.4254970000000  0.5250050000000  0.4849660000000 1.0
C      1  0.5722330000000  0.4765680000000  0.4854100000000 1.0
C      1  0.5735810000000  0.5245390000000  0.5151830000000 1.0
C      1  0.4765270000000  0.4855420000000  0.5721420000000 1.0
C      1  0.5244980000000  0.5153150000000  0.5734900000000 1.0
C      1  0.5249640000000  0.4850990000000  0.4254060000000 1.0
C      1  0.5152740000000  0.5736220000000  0.5244070000000 1.0
C      1  0.4850570000000  0.4255380000000  0.5248720000000 1.0
C      1  0.4855010000000  0.5722740000000  0.4764360000000 1.0
C      1  0.5724610000000  0.4763020000000  0.5147900000000 1.0
C      1  0.5251280000000  0.5152620000000  0.4254660000000 1.0
C      1  0.4855570000000  0.4267570000000  0.4757510000000 1.0
C      1  0.5735830000000  0.5243560000000  0.4849260000000 1.0
C      1  0.4267150000000  0.4758830000000  0.4854670000000 1.0
C      1  0.4255570000000  0.5251690000000  0.5151300000000 1.0
C      1  0.5243150000000  0.4850580000000  0.5734910000000 1.0
C      1  0.4762610000000  0.5149220000000  0.5723700000000 1.0
C      1  0.4758410000000  0.4855990000000  0.4266240000000 1.0
C      1  0.4850170000000  0.5736240000000  0.5242240000000 1.0
C      1  0.5152210000000  0.4255990000000  0.5250360000000 1.0
C      1  0.5148810000000  0.5725020000000  0.4761700000000 1.0
C      1  0.4532360000000  0.4937740000000  0.4710480000000 1.0
C      1  0.4937330000000  0.4711800000000  0.4531460000000 1.0
C      1  0.4711390000000  0.4532780000000  0.4936420000000 1.0
C      1  0.4493720000000  0.5055590000000  0.5308970000000 1.0
C      1  0.5457610000000  0.4936380000000  0.5300290000000 1.0
C      1  0.5507310000000  0.5054200000000  0.4677100000000 1.0
C      1  0.4935960000000  0.5301620000000  0.5456700000000 1.0
C      1  0.5053790000000  0.4678420000000  0.5506390000000 1.0
C      1  0.5055180000000  0.5310290000000  0.4492810000000 1.0
C      1  0.4678010000000  0.5507720000000  0.5052880000000 1.0
C      1  0.5309880000000  0.4494130000000  0.5054270000000 1.0
C      1  0.5301200000000  0.5458020000000  0.4935050000000 1.0
C      1  0.5458260000000  0.4937560000000  0.4696160000000 1.0
C      1  0.5054510000000  0.4691100000000  0.4484020000000 1.0
C      1  0.5288100000000  0.4535340000000  0.4934160000000 1.0
C      1  0.5500990000000  0.5055750000000  0.5320720000000 1.0
C      1  0.4534930000000  0.4935480000000  0.5287190000000 1.0
C      1  0.4484920000000  0.5054920000000  0.4689770000000 1.0
C      1  0.5055340000000  0.5322050000000  0.5500080000000 1.0
C      1  0.4937140000000  0.4697480000000  0.5457340000000 1.0
C      1  0.4935070000000  0.5288510000000  0.4534020000000 1.0
C      1  0.5321630000000  0.5501400000000  0.5054430000000 1.0
C      1  0.4690680000000  0.4485330000000  0.5053600000000 1.0
C      1  0.4697070000000  0.5458660000000  0.4936240000000 1.0
C      1  0.4307630000000  0.4647370000000  0.5074390000000 1.0
C      1  0.4646950000000  0.5075710000000  0.4306720000000 1.0
C      1  0.5075300000000  0.4308040000000  0.4646050000000 1.0
C      1  0.4297530000000  0.5357070000000  0.4926840000000 1.0
C      1  0.5683340000000  0.4655770000000  0.4928310000000 1.0
C      1  0.5695550000000  0.5352510000000  0.5074560000000 1.0
C      1  0.4655360000000  0.4929630000000  0.5682430000000 1.0
C      1  0.5352100000000  0.5075880000000  0.5694640000000 1.0
C      1  0.5356660000000  0.4928160000000  0.4296620000000 1.0
C      1  0.5075470000000  0.5695960000000  0.5351190000000 1.0
C      1  0.4927750000000  0.4297940000000  0.5355740000000 1.0
C      1  0.4929220000000  0.5683750000000  0.4654450000000 1.0
C      1  0.5684560000000  0.4653820000000  0.5073930000000 1.0
C      1  0.5358360000000  0.5075870000000  0.4296520000000 1.0
C      1  0.4929490000000  0.4309550000000  0.4648150000000 1.0
C      1  0.5695500000000  0.5350890000000  0.4926870000000 1.0
C      1  0.4309130000000  0.4649470000000  0.4928580000000 1.0
C      1  0.4297430000000  0.5358770000000  0.5074550000000 1.0
C      1  0.5350470000000  0.4928190000000  0.5694590000000 1.0
C      1  0.4653410000000  0.5075260000000  0.5683650000000 1.0
C      1  0.4649060000000  0.4929900000000  0.4308220000000 1.0
C      1  0.4927780000000  0.5695920000000  0.5349560000000 1.0
C      1  0.5075460000000  0.4297850000000  0.5357440000000 1.0
C      1  0.5074840000000  0.5684970000000  0.4652500000000 1.0
C      1  0.4860810000000  0.4351770000000  0.5473170000000 1.0
C      1  0.4351360000000  0.5474490000000  0.4859900000000 1.0
C      1  0.5474080000000  0.4861230000000  0.4350450000000 1.0
C      1  0.4861820000000  0.5636530000000  0.4535040000000 1.0
C      1  0.5142780000000  0.4356640000000  0.4526020000000 1.0
C      1  0.5143080000000  0.5649970000000  0.5471890000000 1.0
C      1  0.4356220000000  0.4527340000000  0.5141870000000 1.0
C      1  0.5649560000000  0.5473210000000  0.5142170000000 1.0
C      1  0.5636120000000  0.4536370000000  0.4860910000000 1.0
C      1  0.5472800000000  0.5143490000000  0.5648650000000 1.0
C      1  0.4535950000000  0.4862230000000  0.5635200000000 1.0
C      1  0.4526930000000  0.5143200000000  0.4355320000000 1.0
C      1  0.5142990000000  0.4348060000000  0.5476930000000 1.0
C      1  0.5646110000000  0.5469800000000  0.4859730000000 1.0
C      1  0.4531210000000  0.4862790000000  0.4360520000000 1.0
C      1  0.5142430000000  0.5640960000000  0.4531330000000 1.0
C      1  0.4862380000000  0.4361840000000  0.4530310000000 1.0
C      1  0.4860640000000  0.5646530000000  0.5468480000000 1.0
C      1  0.5640550000000  0.4532650000000  0.5141520000000 1.0
C      1  0.4347640000000  0.5478250000000  0.5142080000000 1.0
C      1  0.4361430000000  0.4531630000000  0.4861470000000 1.0
C      1  0.4532240000000  0.5142840000000  0.5639640000000 1.0
C      1  0.5469390000000  0.4861050000000  0.5645200000000 1.0
C      1  0.5477840000000  0.5143400000000  0.4346730000000 1.0
C      1  0.4605400000000  0.5264930000000  0.4678700000000 1.0
C      1  0.5264520000000  0.4680030000000  0.4604490000000 1.0
C      1  0.4679610000000  0.4605810000000  0.5263610000000 1.0
C      1  0.4615840000000  0.4722230000000  0.5309620000000 1.0
C      1  0.5387160000000  0.5272130000000  0.5325920000000 1.0
C      1  0.5377170000000  0.4727530000000  0.4672240000000 1.0
C      1  0.5271720000000  0.5327240000000  0.5386250000000 1.0
C      1  0.4727110000000  0.4673560000000  0.5376250000000 1.0
C      1  0.4721820000000  0.5310940000000  0.4614930000000 1.0
C      1  0.4673150000000  0.5377570000000  0.4726210000000 1.0
C      1  0.5310530000000  0.4616260000000  0.4720910000000 1.0
C      1  0.5326830000000  0.5387580000000  0.5270810000000 1.0
C      1  0.5389110000000  0.5266370000000  0.4668980000000 1.0
C      1  0.4729050000000  0.4685330000000  0.4615690000000 1.0
C      1  0.5315810000000  0.4608280000000  0.5270560000000 1.0
C      1  0.5377230000000  0.4723010000000  0.5322630000000 1.0
C      1  0.4607870000000  0.5271880000000  0.5314900000000 1.0
C      1  0.4616600000000  0.4729460000000  0.4684010000000 1.0
C      1  0.4722600000000  0.5323950000000  0.5376320000000 1.0
C      1  0.5265960000000  0.4670310000000  0.5388200000000 1.0
C      1  0.5271470000000  0.5316220000000  0.4606960000000 1.0
C      1  0.5323540000000  0.5377640000000  0.4721690000000 1.0
C      1  0.4684920000000  0.4617020000000  0.4728140000000 1.0
C      1  0.4669890000000  0.5389520000000  0.5265050000000 1.0
C      1  0.4626300000000  0.4333820000000  0.4633880000000 1.0
C      1  0.4333400000000  0.4635200000000  0.4625390000000 1.0
C      1  0.4634790000000  0.4626720000000  0.4332500000000 1.0
C      1  0.4620330000000  0.5677610000000  0.5372890000000 1.0
C      1  0.5381200000000  0.4324330000000  0.5375020000000 1.0
C      1  0.5378720000000  0.5666810000000  0.4634550000000 1.0
C      1  0.4323910000000  0.5376340000000  0.5380290000000 1.0
C      1  0.5666400000000  0.4635870000000  0.5377810000000 1.0
C      1  0.5677200000000  0.5374210000000  0.4619420000000 1.0
C      1  0.4635460000000  0.5379130000000  0.5665490000000 1.0
C      1  0.5373800000000  0.4620740000000  0.5676280000000 1.0
C      1  0.5375930000000  0.5381610000000  0.4323010000000 1.0
C      1  0.5378040000000  0.4333380000000  0.4632210000000 1.0
C      1  0.5666020000000  0.4637640000000  0.4624270000000 1.0
C      1  0.5376130000000  0.4621600000000  0.4321290000000 1.0
C      1  0.5382510000000  0.5676730000000  0.5373550000000 1.0
C      1  0.4621180000000  0.4322610000000  0.5375220000000 1.0
C      1  0.4625180000000  0.5666430000000  0.4636320000000 1.0
C      1  0.5676320000000  0.5374870000000  0.5381600000000 1.0
C      1  0.4332970000000  0.4633530000000  0.5377130000000 1.0
C      1  0.4322200000000  0.5376540000000  0.4620270000000 1.0
C      1  0.5374460000000  0.5382920000000  0.5675410000000 1.0
C      1  0.4637230000000  0.4625590000000  0.5665110000000 1.0
C      1  0.4633120000000  0.5378460000000  0.4332060000000 1.0
C      1  0.4532210000000  0.5284100000000  0.4346040000000 1.0
C      1  0.5283690000000  0.4347360000000  0.4531300000000 1.0
C      1  0.4346940000000  0.4532630000000  0.5282780000000 1.0
C      1  0.4539550000000  0.4722220000000  0.5645460000000 1.0
C      1  0.5471450000000  0.5284740000000  0.5656850000000 1.0
C      1  0.5472250000000  0.4720090000000  0.4343120000000 1.0
C      1  0.5284330000000  0.5658180000000  0.5470540000000 1.0
C      1  0.4719680000000  0.4344440000000  0.5471340000000 1.0
C      1  0.4721810000000  0.5646790000000  0.4538640000000 1.0
C      1  0.4344030000000  0.5472660000000  0.4718770000000 1.0
C      1  0.5646380000000  0.4539960000000  0.4720900000000 1.0
C      1  0.5657760000000  0.5471860000000  0.5283420000000 1.0
C      1  0.5474880000000  0.5285030000000  0.4339800000000 1.0
C      1  0.4721970000000  0.4352680000000  0.4535040000000 1.0
C      1  0.5650810000000  0.4536630000000  0.5281990000000 1.0
C      1  0.5468570000000  0.4720260000000  0.5653570000000 1.0
C      1  0.4536220000000  0.5283310000000  0.5649900000000 1.0
C      1  0.4535950000000  0.4722380000000  0.4351360000000 1.0
C      1  0.4719850000000  0.5654890000000  0.5467660000000 1.0
C      1  0.5284610000000  0.4341120000000  0.5473970000000 1.0
C      1  0.5282900000000  0.5651220000000  0.4535310000000 1.0
C      1  0.5654480000000  0.5468980000000  0.4718940000000 1.0
C      1  0.4352260000000  0.4536360000000  0.4721060000000 1.0
C      1  0.4340710000000  0.5475290000000  0.5283700000000 1.0
C      1  0.5500600000000  0.5193240000000  0.5334390000000 1.0
C      1  0.5192830000000  0.5335710000000  0.5499690000000 1.0
C      1  0.5335300000000  0.5501010000000  0.5191920000000 1.0
C      1  0.5488560000000  0.4811290000000  0.4669120000000 1.0
C      1  0.4488430000000  0.5191700000000  0.4674490000000 1.0
C      1  0.4506010000000  0.4808260000000  0.5316010000000 1.0
C      1  0.5191290000000  0.4675820000000  0.4487520000000 1.0
C      1  0.4807850000000  0.5317330000000  0.4505100000000 1.0
C      1  0.4810880000000  0.4670450000000  0.5487640000000 1.0
C      1  0.5316920000000  0.4506420000000  0.4806940000000 1.0
C      1  0.4670030000000  0.5488970000000  0.4809970000000 1.0
C      1  0.4675400000000  0.4488840000000  0.5190380000000 1.0
C      1  0.4494280000000  0.5193280000000  0.5323170000000 1.0
C      1  0.4808830000000  0.5329400000000  0.5486160000000 1.0
C      1  0.4664100000000  0.5505300000000  0.5189690000000 1.0
C      1  0.4503900000000  0.4811330000000  0.4681350000000 1.0
C      1  0.5504890000000  0.5191010000000  0.4663190000000 1.0
C      1  0.5487070000000  0.4809240000000  0.5328070000000 1.0
C      1  0.4810920000000  0.4682670000000  0.4503000000000 1.0
C      1  0.5192870000000  0.5324490000000  0.4493370000000 1.0
C      1  0.5190600000000  0.4664520000000  0.5503970000000 1.0
C      1  0.4682250000000  0.4504320000000  0.4810010000000 1.0
C      1  0.5328980000000  0.5487480000000  0.4807920000000 1.0
C      1  0.5324080000000  0.4494690000000  0.5191960000000 1.0
C      1  0.4929080000000  0.4683880000000  0.5823920000000 1.0
C      1  0.4683460000000  0.5825240000000  0.4928170000000 1.0
C      1  0.5824830000000  0.4929490000000  0.4682550000000 1.0
C      1  0.4929140000000  0.5318060000000  0.4172170000000 1.0
C      1  0.5073210000000  0.4684830000000  0.4166460000000 1.0
C      1  0.5073160000000  0.5320460000000  0.5826440000000 1.0
C      1  0.4684410000000  0.4167780000000  0.5072300000000 1.0
C      1  0.5320050000000  0.5827760000000  0.5072250000000 1.0
C      1  0.5317650000000  0.4173490000000  0.4928230000000 1.0
C      1  0.5827350000000  0.5073570000000  0.5319140000000 1.0
C      1  0.4173080000000  0.4929550000000  0.5316740000000 1.0
C      1  0.4167370000000  0.5073620000000  0.4683510000000 1.0
C      1  0.5072800000000  0.4682930000000  0.5828670000000 1.0
C      1  0.5319380000000  0.5823850000000  0.4928300000000 1.0
C      1  0.4171130000000  0.4929360000000  0.4684380000000 1.0
C      1  0.5073530000000  0.5318450000000  0.4169010000000 1.0
C      1  0.4928950000000  0.4685700000000  0.4170220000000 1.0
C      1  0.4929210000000  0.5319790000000  0.5822530000000 1.0
C      1  0.5318040000000  0.4170330000000  0.5072620000000 1.0
C      1  0.4682520000000  0.5830000000000  0.5071890000000 1.0
C      1  0.4685290000000  0.4171540000000  0.4928040000000 1.0
C      1  0.4169920000000  0.5073940000000  0.5317130000000 1.0
C      1  0.5823440000000  0.4929630000000  0.5318470000000 1.0
C      1  0.5829590000000  0.5073210000000  0.4681610000000 1.0
C      1  0.4743730000000  0.4256250000000  0.4828480000000 1.0
C      1  0.4255830000000  0.4829800000000  0.4742820000000 1.0
C      1  0.4829390000000  0.4744140000000  0.4254930000000 1.0
C      1  0.4736480000000  0.5746160000000  0.5173640000000 1.0
C      1  0.5263570000000  0.4249490000000  0.5178040000000 1.0
C      1  0.5261130000000  0.5737160000000  0.4830860000000 1.0
C      1  0.4249070000000  0.5179360000000  0.5262660000000 1.0
C      1  0.5736750000000  0.4832180000000  0.5260220000000 1.0
C      1  0.5745750000000  0.5174960000000  0.4735570000000 1.0
C      1  0.4831770000000  0.5261540000000  0.5735840000000 1.0
C      1  0.5174550000000  0.4736890000000  0.5744840000000 1.0
C      1  0.5178950000000  0.5263980000000  0.4248160000000 1.0
C      1  0.5259760000000  0.4255860000000  0.4826810000000 1.0
C      1  0.5735050000000  0.4834680000000  0.4741270000000 1.0
C      1  0.5178410000000  0.4738660000000  0.4246280000000 1.0
C      1  0.5265780000000  0.5745150000000  0.5174810000000 1.0
C      1  0.4738250000000  0.4247600000000  0.5177500000000 1.0
C      1  0.4742180000000  0.5735460000000  0.4833360000000 1.0
C      1  0.5744740000000  0.5176130000000  0.5264870000000 1.0
C      1  0.4255440000000  0.4828130000000  0.5258850000000 1.0
C      1  0.4247180000000  0.5178820000000  0.4737340000000 1.0
C      1  0.5175720000000  0.5266190000000  0.5743830000000 1.0
C      1  0.4834270000000  0.4742600000000  0.5734140000000 1.0
C      1  0.4827710000000  0.5260170000000  0.4254540000000 1.0
C      1  0.4525310000000  0.5663610000000  0.4880590000000 1.0
C      1  0.5663200000000  0.4881910000000  0.4524400000000 1.0
C      1  0.4881500000000  0.4525720000000  0.5662280000000 1.0
C      1  0.4522500000000  0.4325840000000  0.5124770000000 1.0
C      1  0.5481960000000  0.5669750000000  0.5124280000000 1.0
C      1  0.5470230000000  0.4340660000000  0.4881100000000 1.0
C      1  0.5669340000000  0.5125600000000  0.5481050000000 1.0
C      1  0.4340250000000  0.4882420000000  0.5469320000000 1.0
C      1  0.4325430000000  0.5126090000000  0.4521600000000 1.0
C      1  0.4882010000000  0.5470640000000  0.4339340000000 1.0
C      1  0.5125680000000  0.4522920000000  0.4324520000000 1.0
C      1  0.5125190000000  0.5482370000000  0.5668430000000 1.0
C      1  0.5475140000000  0.5659900000000  0.4881070000000 1.0
C      1  0.4335880000000  0.4882150000000  0.4529240000000 1.0
C      1  0.5125240000000  0.4518460000000  0.5673220000000 1.0
C      1  0.5476930000000  0.4331600000000  0.5124260000000 1.0
C      1  0.4518040000000  0.5674540000000  0.5124330000000 1.0
C      1  0.4530150000000  0.4336300000000  0.4880830000000 1.0
C      1  0.4331180000000  0.5125580000000  0.5476020000000 1.0
C      1  0.5659480000000  0.4882400000000  0.5474230000000 1.0
C      1  0.5674130000000  0.5125650000000  0.4517130000000 1.0
C      1  0.5125170000000  0.5477340000000  0.4330270000000 1.0
C      1  0.4881740000000  0.4530570000000  0.4334980000000 1.0
C      1  0.4881980000000  0.5475550000000  0.5658570000000 1.0
C      1  0.4932190000000  0.4426010000000  0.4426050000000 1.0
C      1  0.4425590000000  0.4427370000000  0.4931280000000 1.0
C      1  0.4426960000000  0.4932600000000  0.4424690000000 1.0
C      1  0.4931330000000  0.5583310000000  0.5571600000000 1.0
C      1  0.5073930000000  0.4414770000000  0.5579230000000 1.0
C      1  0.5074120000000  0.5578400000000  0.4426530000000 1.0
C      1  0.4414360000000  0.5580560000000  0.5073020000000 1.0
C      1  0.5577990000000  0.4427860000000  0.5073210000000 1.0
C      1  0.5582890000000  0.5572920000000  0.4930420000000 1.0
C      1  0.4427440000000  0.5074530000000  0.5577080000000 1.0
C      1  0.5572510000000  0.4931740000000  0.5581980000000 1.0
C      1  0.5580150000000  0.5074350000000  0.4413450000000 1.0
C      1  0.5074470000000  0.4422610000000  0.4422180000000 1.0
C      1  0.5575110000000  0.4431120000000  0.4930620000000 1.0
C      1  0.5576220000000  0.4931950000000  0.4416440000000 1.0
C      1  0.5074010000000  0.5586100000000  0.5575050000000 1.0
C      1  0.4931540000000  0.4417770000000  0.5575300000000 1.0
C      1  0.4931530000000  0.5575520000000  0.4429800000000 1.0
C      1  0.5585690000000  0.5576370000000  0.5073100000000 1.0
C      1  0.4422200000000  0.4423500000000  0.5073560000000 1.0
C      1  0.4417350000000  0.5576630000000  0.4930630000000 1.0
C      1  0.5575960000000  0.5074420000000  0.5584780000000 1.0
C      1  0.4430700000000  0.4931940000000  0.5574200000000 1.0
C      1  0.4423090000000  0.5074880000000  0.4421290000000 1.0
C      1  0.5641750000000  0.5230490000000  0.5377610000000 1.0
C      1  0.5230080000000  0.5378930000000  0.5640830000000 1.0
C      1  0.5378520000000  0.5642160000000  0.5229170000000 1.0
C      1  0.5632620000000  0.4781340000000  0.4628120000000 1.0
C      1  0.4351100000000  0.5231270000000  0.4625560000000 1.0
C      1  0.4364520000000  0.4777920000000  0.5367430000000 1.0
C      1  0.5230860000000  0.4626890000000  0.4350190000000 1.0
C      1  0.4777510000000  0.5368750000000  0.4363610000000 1.0
C      1  0.4780930000000  0.4629450000000  0.5631700000000 1.0
C      1  0.5368340000000  0.4364930000000  0.4776600000000 1.0
C      1  0.4629030000000  0.5633020000000  0.4780020000000 1.0
C      1  0.4626470000000  0.4351510000000  0.5229950000000 1.0
C      1  0.4355780000000  0.5231250000000  0.5372690000000 1.0
C      1  0.4779130000000  0.5373170000000  0.5630580000000 1.0
C      1  0.4622220000000  0.5645530000000  0.5228350000000 1.0
C      1  0.4362770000000  0.4779800000000  0.4632570000000 1.0
C      1  0.5645120000000  0.5229680000000  0.4621310000000 1.0
C      1  0.5631490000000  0.4779540000000  0.5371850000000 1.0
C      1  0.4779390000000  0.4633890000000  0.4361860000000 1.0
C      1  0.5230830000000  0.5374010000000  0.4354870000000 1.0
C      1  0.5229260000000  0.4622630000000  0.5644200000000 1.0
C      1  0.4633470000000  0.4363190000000  0.4778480000000 1.0
C      1  0.5372760000000  0.5631900000000  0.4778220000000 1.0
C      1  0.5373600000000  0.4356190000000  0.5229920000000 1.0
C      1  0.5800230000000  0.4929780000000  0.5467220000000 1.0
C      1  0.4929370000000  0.5468540000000  0.5799320000000 1.0
C      1  0.5468130000000  0.5800640000000  0.4928460000000 1.0
C      1  0.5809750000000  0.5069700000000  0.4527910000000 1.0
C      1  0.4194190000000  0.4929080000000  0.4534130000000 1.0
C      1  0.4195140000000  0.5070450000000  0.5469760000000 1.0
C      1  0.4928670000000  0.4535450000000  0.4193280000000 1.0
C      1  0.5070040000000  0.5471080000000  0.4194230000000 1.0
C      1  0.5069290000000  0.4529230000000  0.5808840000000 1.0
C      1  0.5470670000000  0.4195550000000  0.5069130000000 1.0
C      1  0.4528820000000  0.5810160000000  0.5068380000000 1.0
C      1  0.4535040000000  0.4194600000000  0.4927760000000 1.0
C      1  0.4199420000000  0.4930290000000  0.5465660000000 1.0
C      1  0.5069760000000  0.5472960000000  0.5804010000000 1.0
C      1  0.4533840000000  0.5805010000000  0.4927290000000 1.0
C      1  0.4189360000000  0.5070070000000  0.4529250000000 1.0
C      1  0.5804600000000  0.4928610000000  0.4532930000000 1.0
C      1  0.5804920000000  0.5070180000000  0.5471640000000 1.0
C      1  0.5069650000000  0.4530580000000  0.4188460000000 1.0
C      1  0.4929870000000  0.5466980000000  0.4198510000000 1.0
C      1  0.4928200000000  0.4534250000000  0.5803690000000 1.0
C      1  0.4530160000000  0.4189780000000  0.5068740000000 1.0
C      1  0.5472550000000  0.5805330000000  0.5068850000000 1.0
C      1  0.5466570000000  0.4199830000000  0.4928960000000 1.0
C      1  0.4513930000000  0.5413840000000  0.5606040000000 1.0
C      1  0.5413430000000  0.5607360000000  0.4513020000000 1.0
C      1  0.5606950000000  0.4514340000000  0.5412520000000 1.0
C      1  0.4515710000000  0.4591220000000  0.4394870000000 1.0
C      1  0.5494090000000  0.5415050000000  0.4389400000000 1.0
C      1  0.5491810000000  0.4589350000000  0.5609400000000 1.0
C      1  0.5414640000000  0.4390720000000  0.5493180000000 1.0
C      1  0.4588930000000  0.5610720000000  0.5490900000000 1.0
C      1  0.4590800000000  0.4396200000000  0.4514800000000 1.0
C      1  0.5610310000000  0.5492220000000  0.4588030000000 1.0
C      1  0.4395780000000  0.4516120000000  0.4589890000000 1.0
C      1  0.4390310000000  0.5494500000000  0.5413730000000 1.0
C      1  0.5493770000000  0.5415080000000  0.5610250000000 1.0
C      1  0.4590470000000  0.5606440000000  0.4515560000000 1.0
C      1  0.4394140000000  0.4513400000000  0.5413080000000 1.0
C      1  0.5492690000000  0.4589440000000  0.4390080000000 1.0
C      1  0.4512990000000  0.5414400000000  0.4393230000000 1.0
C      1  0.4516470000000  0.4590880000000  0.5605120000000 1.0
C      1  0.4589020000000  0.4391400000000  0.5491780000000 1.0
C      1  0.5414670000000  0.5611570000000  0.5492860000000 1.0
C      1  0.5413990000000  0.4394560000000  0.4512080000000 1.0
C      1  0.4390990000000  0.5493100000000  0.4588110000000 1.0
C      1  0.5606030000000  0.4516890000000  0.4589560000000 1.0
C      1  0.5611160000000  0.5494180000000  0.5413760000000 1.0
C      1  0.5009910000000  0.5378380000000  0.4376540000000 1.0
C      1  0.5009290000000  0.4615100000000  0.5624260000000 1.0
C      1  0.5377970000000  0.4377860000000  0.5009000000000 1.0
C      1  0.4614690000000  0.5625590000000  0.5008380000000 1.0
C      1  0.5619600000000  0.5010370000000  0.5384140000000 1.0
C      1  0.5009960000000  0.5385460000000  0.5618690000000 1.0
C      1  0.5385050000000  0.5620020000000  0.5009050000000 1.0
C      1  0.5625180000000  0.5009700000000  0.4613780000000 1.0
C      1  0.4370310000000  0.5010420000000  0.4620600000000 1.0
C      1  0.4377450000000  0.5010320000000  0.5377060000000 1.0
C      1  0.5010010000000  0.4621930000000  0.4369410000000 1.0
C      1  0.4621510000000  0.4370730000000  0.5009100000000 1.0
C      1  0.5512470000000  0.4489690000000  0.5512880000000 1.0
C      1  0.4489270000000  0.5514200000000  0.5511560000000 1.0
C      1  0.5513790000000  0.5512880000000  0.4488360000000 1.0
C      1  0.4489520000000  0.5512980000000  0.4490170000000 1.0
C      1  0.5512570000000  0.4491490000000  0.4488610000000 1.0
C      1  0.4491080000000  0.4489930000000  0.5511660000000 1.0
C      1  0.4491640000000  0.4492050000000  0.4490730000000 1.0
C      1  0.5514190000000  0.5514600000000  0.5513280000000 1.0
END
