TITL C-1379265-1223-200 -8.98164002303704e-07 1000000 -2637.39245651693 0 0 380 (Th) n - 1
REM
REM in /nfs/bkarasulu/CARBON/AIRSS/Generating-Clusters/GAP-ML-2020/Higher-Symm/Selected-Sizes/TryA-Only_Ih-Symm/Larger-Clusters/Try2-MINAMP_6A
REM
REM
REM
REM
REM
REM ./C.cell (31579ac4e95a012ec27f3239692ae8a5)
REM
REM compiler GCC version 9.2.1 20190827 (Red Hat 9.2.1-1)
REM options -cpp -mtune=generic -march=x86-64 -g -O0 -fpre-include=/usr/include/finclude/math-vector-fortran.h
REM seed 547366891 -60339258 2109325484 -1500139868 -1782977965 -1667179081 -1498781959 -1457201685 561690994 -1145037415 -1103741471 -1158701613 1648273941 -1067519607 1008774868 806132051 1887882442 -427430865 2056415220 1834029083 466384930 1731876775 -1151404510 1465286456 -1031749692 2048335763 2056436151 -1641421332 -862650231 1120000978 15844226 1773284614 508316283
REM
CELL 1.54180  100.00000  100.00000  100.00000   90.00000   90.00000   90.00000
LATT -1
SFAC C  
C      1  0.4596500000000  0.5695280000000  0.5073140000000 1.0
C      1  0.5695340000000  0.5073030000000  0.4596550000000 1.0
C      1  0.5073090000000  0.4596440000000  0.5695400000000 1.0
C      1  0.5403270000000  0.5695280000000  0.4926740000000 1.0
C      1  0.5403270000000  0.4304370000000  0.5073140000000 1.0
C      1  0.4596500000000  0.4304370000000  0.4926740000000 1.0
C      1  0.4304430000000  0.5073030000000  0.5403330000000 1.0
C      1  0.4304430000000  0.4926620000000  0.4596550000000 1.0
C      1  0.5695340000000  0.4926620000000  0.5403330000000 1.0
C      1  0.4926680000000  0.4596440000000  0.4304480000000 1.0
C      1  0.4926680000000  0.5403210000000  0.5695400000000 1.0
C      1  0.5073090000000  0.5403210000000  0.4304480000000 1.0
C      1  0.4596500000000  0.4304370000000  0.5073140000000 1.0
C      1  0.5695340000000  0.4926620000000  0.4596550000000 1.0
C      1  0.5073090000000  0.5403210000000  0.5695400000000 1.0
C      1  0.5403270000000  0.4304370000000  0.4926740000000 1.0
C      1  0.5403270000000  0.5695280000000  0.5073140000000 1.0
C      1  0.4596500000000  0.5695280000000  0.4926740000000 1.0
C      1  0.4304430000000  0.4926620000000  0.5403330000000 1.0
C      1  0.4304430000000  0.5073030000000  0.4596550000000 1.0
C      1  0.5695340000000  0.5073030000000  0.5403330000000 1.0
C      1  0.4926680000000  0.5403210000000  0.4304480000000 1.0
C      1  0.4926680000000  0.4596440000000  0.5695400000000 1.0
C      1  0.5073090000000  0.4596440000000  0.4304480000000 1.0
C      1  0.4479660000000  0.4837720000000  0.5248810000000 1.0
C      1  0.4837780000000  0.5248690000000  0.4479710000000 1.0
C      1  0.5248750000000  0.4479600000000  0.4837840000000 1.0
C      1  0.5520110000000  0.4837720000000  0.4751070000000 1.0
C      1  0.5520110000000  0.5161930000000  0.5248810000000 1.0
C      1  0.4479660000000  0.5161930000000  0.4751070000000 1.0
C      1  0.5161990000000  0.5248690000000  0.5520160000000 1.0
C      1  0.5161990000000  0.4750960000000  0.4479710000000 1.0
C      1  0.4837780000000  0.4750960000000  0.5520160000000 1.0
C      1  0.4751020000000  0.4479600000000  0.5162040000000 1.0
C      1  0.4751020000000  0.5520050000000  0.4837840000000 1.0
C      1  0.5248750000000  0.5520050000000  0.5162040000000 1.0
C      1  0.4479660000000  0.5161930000000  0.5248810000000 1.0
C      1  0.4837780000000  0.4750960000000  0.4479710000000 1.0
C      1  0.5248750000000  0.5520050000000  0.4837840000000 1.0
C      1  0.5520110000000  0.5161930000000  0.4751070000000 1.0
C      1  0.5520110000000  0.4837720000000  0.5248810000000 1.0
C      1  0.4479660000000  0.4837720000000  0.4751070000000 1.0
C      1  0.5161990000000  0.4750960000000  0.5520160000000 1.0
C      1  0.5161990000000  0.5248690000000  0.4479710000000 1.0
C      1  0.4837780000000  0.5248690000000  0.5520160000000 1.0
C      1  0.4751020000000  0.5520050000000  0.5162040000000 1.0
C      1  0.4751020000000  0.4479600000000  0.4837840000000 1.0
C      1  0.5248750000000  0.4479600000000  0.5162040000000 1.0
C      1  0.4414490000000  0.5289440000000  0.4522740000000 1.0
C      1  0.5289500000000  0.4522620000000  0.4414540000000 1.0
C      1  0.4522680000000  0.4414430000000  0.5289560000000 1.0
C      1  0.5585280000000  0.5289440000000  0.5477140000000 1.0
C      1  0.5585280000000  0.4710210000000  0.4522740000000 1.0
C      1  0.4414490000000  0.4710210000000  0.5477140000000 1.0
C      1  0.4710270000000  0.4522620000000  0.5585340000000 1.0
C      1  0.4710270000000  0.5477030000000  0.4414540000000 1.0
C      1  0.5289500000000  0.5477030000000  0.5585340000000 1.0
C      1  0.5477090000000  0.4414430000000  0.4710320000000 1.0
C      1  0.5477090000000  0.5585220000000  0.5289560000000 1.0
C      1  0.4522680000000  0.5585220000000  0.4710320000000 1.0
C      1  0.4414490000000  0.4710210000000  0.4522740000000 1.0
C      1  0.5289500000000  0.5477030000000  0.4414540000000 1.0
C      1  0.4522680000000  0.5585220000000  0.5289560000000 1.0
C      1  0.5585280000000  0.4710210000000  0.5477140000000 1.0
C      1  0.5585280000000  0.5289440000000  0.4522740000000 1.0
C      1  0.4414490000000  0.5289440000000  0.5477140000000 1.0
C      1  0.4710270000000  0.5477030000000  0.5585340000000 1.0
C      1  0.4710270000000  0.4522620000000  0.4414540000000 1.0
C      1  0.5289500000000  0.4522620000000  0.5585340000000 1.0
C      1  0.5477090000000  0.5585220000000  0.4710320000000 1.0
C      1  0.5477090000000  0.4414430000000  0.5289560000000 1.0
C      1  0.4522680000000  0.4414430000000  0.4710320000000 1.0
C      1  0.5507550000000  0.4851920000000  0.4895540000000 1.0
C      1  0.4851980000000  0.4895420000000  0.5507600000000 1.0
C      1  0.4895480000000  0.5507490000000  0.4852030000000 1.0
C      1  0.4492220000000  0.4851920000000  0.5104340000000 1.0
C      1  0.4492220000000  0.5147730000000  0.4895540000000 1.0
C      1  0.5507550000000  0.5147730000000  0.5104340000000 1.0
C      1  0.5147790000000  0.4895420000000  0.4492280000000 1.0
C      1  0.5147790000000  0.5104230000000  0.5507600000000 1.0
C      1  0.4851980000000  0.5104230000000  0.4492280000000 1.0
C      1  0.5104290000000  0.5507490000000  0.5147850000000 1.0
C      1  0.5104290000000  0.4492160000000  0.4852030000000 1.0
C      1  0.4895480000000  0.4492160000000  0.5147850000000 1.0
C      1  0.5507550000000  0.5147730000000  0.4895540000000 1.0
C      1  0.4851980000000  0.5104230000000  0.5507600000000 1.0
C      1  0.4895480000000  0.4492160000000  0.4852030000000 1.0
C      1  0.4492220000000  0.5147730000000  0.5104340000000 1.0
C      1  0.4492220000000  0.4851920000000  0.4895540000000 1.0
C      1  0.5507550000000  0.4851920000000  0.5104340000000 1.0
C      1  0.5147790000000  0.5104230000000  0.4492280000000 1.0
C      1  0.5147790000000  0.4895420000000  0.5507600000000 1.0
C      1  0.4851980000000  0.4895420000000  0.4492280000000 1.0
C      1  0.5104290000000  0.4492160000000  0.5147850000000 1.0
C      1  0.5104290000000  0.5507490000000  0.4852030000000 1.0
C      1  0.4895480000000  0.5507490000000  0.5147850000000 1.0
C      1  0.5324860000000  0.5428400000000  0.4929120000000 1.0
C      1  0.5428460000000  0.4929000000000  0.5324910000000 1.0
C      1  0.4929060000000  0.5324800000000  0.5428520000000 1.0
C      1  0.4674910000000  0.5428400000000  0.5070760000000 1.0
C      1  0.4674910000000  0.4571250000000  0.4929120000000 1.0
C      1  0.5324860000000  0.4571250000000  0.5070760000000 1.0
C      1  0.4571310000000  0.4929000000000  0.4674970000000 1.0
C      1  0.4571310000000  0.5070650000000  0.5324910000000 1.0
C      1  0.5428460000000  0.5070650000000  0.4674970000000 1.0
C      1  0.5070710000000  0.5324800000000  0.4571360000000 1.0
C      1  0.5070710000000  0.4674850000000  0.5428520000000 1.0
C      1  0.4929060000000  0.4674850000000  0.4571360000000 1.0
C      1  0.5324860000000  0.4571250000000  0.4929120000000 1.0
C      1  0.5428460000000  0.5070650000000  0.5324910000000 1.0
C      1  0.4929060000000  0.4674850000000  0.5428520000000 1.0
C      1  0.4674910000000  0.4571250000000  0.5070760000000 1.0
C      1  0.4674910000000  0.5428400000000  0.4929120000000 1.0
C      1  0.5324860000000  0.5428400000000  0.5070760000000 1.0
C      1  0.4571310000000  0.5070650000000  0.4674970000000 1.0
C      1  0.4571310000000  0.4929000000000  0.5324910000000 1.0
C      1  0.5428460000000  0.4929000000000  0.4674970000000 1.0
C      1  0.5070710000000  0.4674850000000  0.4571360000000 1.0
C      1  0.5070710000000  0.5324800000000  0.5428520000000 1.0
C      1  0.4929060000000  0.5324800000000  0.4571360000000 1.0
C      1  0.4315060000000  0.5135230000000  0.5275310000000 1.0
C      1  0.5135300000000  0.5275190000000  0.4315110000000 1.0
C      1  0.5275250000000  0.4315000000000  0.5135350000000 1.0
C      1  0.5684710000000  0.5135230000000  0.4724570000000 1.0
C      1  0.5684710000000  0.4864410000000  0.5275310000000 1.0
C      1  0.4315060000000  0.4864410000000  0.4724570000000 1.0
C      1  0.4864480000000  0.5275190000000  0.5684760000000 1.0
C      1  0.4864480000000  0.4724460000000  0.4315110000000 1.0
C      1  0.5135300000000  0.4724460000000  0.5684760000000 1.0
C      1  0.4724520000000  0.4315000000000  0.4864530000000 1.0
C      1  0.4724520000000  0.5684650000000  0.5135350000000 1.0
C      1  0.5275250000000  0.5684650000000  0.4864530000000 1.0
C      1  0.4315060000000  0.4864410000000  0.5275310000000 1.0
C      1  0.5135300000000  0.4724460000000  0.4315120000000 1.0
C      1  0.5275250000000  0.5684650000000  0.5135350000000 1.0
C      1  0.5684710000000  0.4864410000000  0.4724570000000 1.0
C      1  0.5684710000000  0.5135230000000  0.5275310000000 1.0
C      1  0.4315060000000  0.5135230000000  0.4724570000000 1.0
C      1  0.4864480000000  0.4724460000000  0.5684760000000 1.0
C      1  0.4864480000000  0.5275190000000  0.4315110000000 1.0
C      1  0.5135300000000  0.5275190000000  0.5684760000000 1.0
C      1  0.4724520000000  0.5684650000000  0.4864530000000 1.0
C      1  0.4724520000000  0.4315000000000  0.5135350000000 1.0
C      1  0.5275250000000  0.4315000000000  0.4864530000000 1.0
C      1  0.5124480000000  0.5150810000000  0.5747880000000 1.0
C      1  0.5150870000000  0.5747760000000  0.5124530000000 1.0
C      1  0.5747820000000  0.5124420000000  0.5150920000000 1.0
C      1  0.4875290000000  0.5150810000000  0.4252000000000 1.0
C      1  0.4875290000000  0.4848840000000  0.5747880000000 1.0
C      1  0.5124480000000  0.4848840000000  0.4252000000000 1.0
C      1  0.4848900000000  0.5747760000000  0.4875340000000 1.0
C      1  0.4848900000000  0.4251890000000  0.5124530000000 1.0
C      1  0.5150870000000  0.4251890000000  0.4875340000000 1.0
C      1  0.4251950000000  0.5124420000000  0.4848950000000 1.0
C      1  0.4251950000000  0.4875230000000  0.5150920000000 1.0
C      1  0.5747820000000  0.4875230000000  0.4848950000000 1.0
C      1  0.5124480000000  0.4848840000000  0.5747880000000 1.0
C      1  0.5150870000000  0.4251890000000  0.5124530000000 1.0
C      1  0.5747820000000  0.4875230000000  0.5150920000000 1.0
C      1  0.4875290000000  0.4848840000000  0.4252000000000 1.0
C      1  0.4875290000000  0.5150810000000  0.5747880000000 1.0
C      1  0.5124480000000  0.5150810000000  0.4252000000000 1.0
C      1  0.4848900000000  0.4251890000000  0.4875340000000 1.0
C      1  0.4848900000000  0.5747760000000  0.5124530000000 1.0
C      1  0.5150870000000  0.5747760000000  0.4875340000000 1.0
C      1  0.4251950000000  0.4875230000000  0.4848950000000 1.0
C      1  0.4251950000000  0.5124420000000  0.5150920000000 1.0
C      1  0.5747820000000  0.5124420000000  0.4848950000000 1.0
C      1  0.4620260000000  0.4436600000000  0.4488760000000 1.0
C      1  0.4436660000000  0.4488650000000  0.4620310000000 1.0
C      1  0.4488710000000  0.4620200000000  0.4436720000000 1.0
C      1  0.5379510000000  0.4436600000000  0.5511120000000 1.0
C      1  0.5379510000000  0.5563050000000  0.4488760000000 1.0
C      1  0.4620260000000  0.5563050000000  0.5511120000000 1.0
C      1  0.5563110000000  0.4488650000000  0.5379570000000 1.0
C      1  0.5563110000000  0.5511000000000  0.4620310000000 1.0
C      1  0.4436660000000  0.5511000000000  0.5379570000000 1.0
C      1  0.5511060000000  0.4620200000000  0.5563160000000 1.0
C      1  0.5511060000000  0.5379450000000  0.4436720000000 1.0
C      1  0.4488710000000  0.5379450000000  0.5563160000000 1.0
C      1  0.4620260000000  0.5563050000000  0.4488760000000 1.0
C      1  0.4436660000000  0.5511000000000  0.4620310000000 1.0
C      1  0.4488710000000  0.5379450000000  0.4436720000000 1.0
C      1  0.5379510000000  0.5563050000000  0.5511120000000 1.0
C      1  0.5379510000000  0.4436600000000  0.4488760000000 1.0
C      1  0.4620260000000  0.4436600000000  0.5511120000000 1.0
C      1  0.5563110000000  0.5511000000000  0.5379570000000 1.0
C      1  0.5563110000000  0.4488650000000  0.4620310000000 1.0
C      1  0.4436660000000  0.4488650000000  0.5379570000000 1.0
C      1  0.5511060000000  0.5379450000000  0.5563160000000 1.0
C      1  0.5511060000000  0.4620200000000  0.4436720000000 1.0
C      1  0.4488710000000  0.4620200000000  0.5563160000000 1.0
C      1  0.4537020000000  0.5369450000000  0.4884440000000 1.0
C      1  0.5369510000000  0.4884320000000  0.4537080000000 1.0
C      1  0.4884380000000  0.4536960000000  0.5369570000000 1.0
C      1  0.5462750000000  0.5369450000000  0.5115440000000 1.0
C      1  0.5462750000000  0.4630200000000  0.4884440000000 1.0
C      1  0.4537020000000  0.4630200000000  0.5115440000000 1.0
C      1  0.4630260000000  0.4884320000000  0.5462800000000 1.0
C      1  0.4630260000000  0.5115330000000  0.4537080000000 1.0
C      1  0.5369510000000  0.5115330000000  0.5462800000000 1.0
C      1  0.5115390000000  0.4536960000000  0.4630310000000 1.0
C      1  0.5115390000000  0.5462690000000  0.5369570000000 1.0
C      1  0.4884380000000  0.5462690000000  0.4630310000000 1.0
C      1  0.4537020000000  0.4630200000000  0.4884440000000 1.0
C      1  0.5369510000000  0.5115330000000  0.4537080000000 1.0
C      1  0.4884380000000  0.5462690000000  0.5369570000000 1.0
C      1  0.5462750000000  0.4630200000000  0.5115440000000 1.0
C      1  0.5462750000000  0.5369450000000  0.4884440000000 1.0
C      1  0.4537020000000  0.5369450000000  0.5115440000000 1.0
C      1  0.4630260000000  0.5115330000000  0.5462800000000 1.0
C      1  0.4630260000000  0.4884320000000  0.4537080000000 1.0
C      1  0.5369510000000  0.4884320000000  0.5462800000000 1.0
C      1  0.5115390000000  0.5462690000000  0.4630310000000 1.0
C      1  0.5115390000000  0.4536960000000  0.5369570000000 1.0
C      1  0.4884380000000  0.4536960000000  0.4630310000000 1.0
C      1  0.5151090000000  0.5494850000000  0.5610100000000 1.0
C      1  0.5494910000000  0.5609980000000  0.5151140000000 1.0
C      1  0.5610040000000  0.5151030000000  0.5494970000000 1.0
C      1  0.4848680000000  0.5494850000000  0.4389780000000 1.0
C      1  0.4848680000000  0.4504800000000  0.5610100000000 1.0
C      1  0.5151090000000  0.4504800000000  0.4389780000000 1.0
C      1  0.4504860000000  0.5609980000000  0.4848740000000 1.0
C      1  0.4504860000000  0.4389670000000  0.5151140000000 1.0
C      1  0.5494910000000  0.4389670000000  0.4848740000000 1.0
C      1  0.4389730000000  0.5151030000000  0.4504910000000 1.0
C      1  0.4389730000000  0.4848620000000  0.5494970000000 1.0
C      1  0.5610040000000  0.4848620000000  0.4504910000000 1.0
C      1  0.5151090000000  0.4504800000000  0.5610100000000 1.0
C      1  0.5494910000000  0.4389670000000  0.5151140000000 1.0
C      1  0.5610040000000  0.4848620000000  0.5494970000000 1.0
C      1  0.4848680000000  0.4504800000000  0.4389780000000 1.0
C      1  0.4848680000000  0.5494850000000  0.5610100000000 1.0
C      1  0.5151090000000  0.5494850000000  0.4389780000000 1.0
C      1  0.4504860000000  0.4389670000000  0.4848740000000 1.0
C      1  0.4504860000000  0.5609980000000  0.5151140000000 1.0
C      1  0.5494910000000  0.5609980000000  0.4848740000000 1.0
C      1  0.4389730000000  0.4848620000000  0.4504910000000 1.0
C      1  0.4389730000000  0.5151030000000  0.5494970000000 1.0
C      1  0.5610040000000  0.5151030000000  0.4504910000000 1.0
C      1  0.5499460000000  0.5069960000000  0.4463160000000 1.0
C      1  0.5070020000000  0.4463050000000  0.5499520000000 1.0
C      1  0.4463110000000  0.5499400000000  0.5070070000000 1.0
C      1  0.4500310000000  0.5069960000000  0.5536720000000 1.0
C      1  0.4500310000000  0.4929690000000  0.4463160000000 1.0
C      1  0.5499460000000  0.4929690000000  0.5536720000000 1.0
C      1  0.4929750000000  0.4463050000000  0.4500360000000 1.0
C      1  0.4929750000000  0.5536600000000  0.5499520000000 1.0
C      1  0.5070020000000  0.5536600000000  0.4500360000000 1.0
C      1  0.5536660000000  0.5499400000000  0.4929810000000 1.0
C      1  0.5536660000000  0.4500250000000  0.5070070000000 1.0
C      1  0.4463110000000  0.4500250000000  0.4929810000000 1.0
C      1  0.5499460000000  0.4929690000000  0.4463160000000 1.0
C      1  0.5070020000000  0.5536600000000  0.5499520000000 1.0
C      1  0.4463110000000  0.4500250000000  0.5070070000000 1.0
C      1  0.4500310000000  0.4929690000000  0.5536720000000 1.0
C      1  0.4500310000000  0.5069960000000  0.4463160000000 1.0
C      1  0.5499460000000  0.5069960000000  0.5536720000000 1.0
C      1  0.4929750000000  0.5536600000000  0.4500360000000 1.0
C      1  0.4929750000000  0.4463050000000  0.5499520000000 1.0
C      1  0.5070020000000  0.4463050000000  0.4500360000000 1.0
C      1  0.5536660000000  0.4500250000000  0.4929810000000 1.0
C      1  0.5536660000000  0.5499400000000  0.5070070000000 1.0
C      1  0.4463110000000  0.5499400000000  0.4929810000000 1.0
C      1  0.4925960000000  0.5627970000000  0.5075470000000 1.0
C      1  0.5628030000000  0.5075360000000  0.4926010000000 1.0
C      1  0.5075420000000  0.4925900000000  0.5628080000000 1.0
C      1  0.5073810000000  0.5627970000000  0.4924410000000 1.0
C      1  0.5073810000000  0.4371680000000  0.5075470000000 1.0
C      1  0.4925960000000  0.4371680000000  0.4924410000000 1.0
C      1  0.4371740000000  0.5075360000000  0.5073860000000 1.0
C      1  0.4371740000000  0.4924290000000  0.4926010000000 1.0
C      1  0.5628030000000  0.4924290000000  0.5073860000000 1.0
C      1  0.4924350000000  0.4925900000000  0.4371790000000 1.0
C      1  0.4924350000000  0.5073750000000  0.5628080000000 1.0
C      1  0.5075420000000  0.5073750000000  0.4371790000000 1.0
C      1  0.4925960000000  0.4371680000000  0.5075470000000 1.0
C      1  0.5628030000000  0.4924290000000  0.4926010000000 1.0
C      1  0.5075420000000  0.5073750000000  0.5628080000000 1.0
C      1  0.5073810000000  0.4371680000000  0.4924410000000 1.0
C      1  0.5073810000000  0.5627970000000  0.5075470000000 1.0
C      1  0.4925960000000  0.5627970000000  0.4924410000000 1.0
C      1  0.4371740000000  0.4924290000000  0.5073860000000 1.0
C      1  0.4371740000000  0.5075360000000  0.4926010000000 1.0
C      1  0.5628030000000  0.5075360000000  0.5073860000000 1.0
C      1  0.4924350000000  0.5073750000000  0.4371790000000 1.0
C      1  0.4924350000000  0.4925900000000  0.5628080000000 1.0
C      1  0.5075420000000  0.4925900000000  0.4371790000000 1.0
C      1  0.5858680000000  0.4923970000000  0.4926520000000 1.0
C      1  0.4924040000000  0.4926410000000  0.5858740000000 1.0
C      1  0.4926470000000  0.5858620000000  0.4924090000000 1.0
C      1  0.4141090000000  0.4923970000000  0.5073360000000 1.0
C      1  0.4141090000000  0.5075680000000  0.4926520000000 1.0
C      1  0.5858680000000  0.5075680000000  0.5073360000000 1.0
C      1  0.5075740000000  0.4926410000000  0.4141140000000 1.0
C      1  0.5075740000000  0.5073240000000  0.5858740000000 1.0
C      1  0.4924040000000  0.5073240000000  0.4141140000000 1.0
C      1  0.5073300000000  0.5858620000000  0.5075790000000 1.0
C      1  0.5073300000000  0.4141030000000  0.4924090000000 1.0
C      1  0.4926470000000  0.4141030000000  0.5075790000000 1.0
C      1  0.5858680000000  0.5075680000000  0.4926520000000 1.0
C      1  0.4924040000000  0.5073240000000  0.5858740000000 1.0
C      1  0.4926470000000  0.4141030000000  0.4924090000000 1.0
C      1  0.4141090000000  0.5075680000000  0.5073360000000 1.0
C      1  0.4141090000000  0.4923970000000  0.4926520000000 1.0
C      1  0.5858680000000  0.4923970000000  0.5073360000000 1.0
C      1  0.5075740000000  0.5073240000000  0.4141140000000 1.0
C      1  0.5075740000000  0.4926410000000  0.5858740000000 1.0
C      1  0.4924040000000  0.4926410000000  0.4141140000000 1.0
C      1  0.5073300000000  0.4141030000000  0.5075790000000 1.0
C      1  0.5073300000000  0.5858620000000  0.4924090000000 1.0
C      1  0.4926470000000  0.5858620000000  0.5075790000000 1.0
C      1  0.5350970000000  0.5577450000000  0.4631540000000 1.0
C      1  0.5577510000000  0.4631430000000  0.5351020000000 1.0
C      1  0.4631490000000  0.5350910000000  0.5577560000000 1.0
C      1  0.4648800000000  0.5577450000000  0.5368340000000 1.0
C      1  0.4648800000000  0.4422200000000  0.4631540000000 1.0
C      1  0.5350970000000  0.4422200000000  0.5368340000000 1.0
C      1  0.4422260000000  0.4631430000000  0.4648860000000 1.0
C      1  0.4422260000000  0.5368220000000  0.5351020000000 1.0
C      1  0.5577510000000  0.5368220000000  0.4648860000000 1.0
C      1  0.5368280000000  0.5350910000000  0.4422320000000 1.0
C      1  0.5368290000000  0.4648740000000  0.5577560000000 1.0
C      1  0.4631490000000  0.4648740000000  0.4422320000000 1.0
C      1  0.5350970000000  0.4422200000000  0.4631540000000 1.0
C      1  0.5577510000000  0.5368220000000  0.5351020000000 1.0
C      1  0.4631490000000  0.4648740000000  0.5577560000000 1.0
C      1  0.4648800000000  0.4422200000000  0.5368340000000 1.0
C      1  0.4648800000000  0.5577450000000  0.4631540000000 1.0
C      1  0.5350970000000  0.5577450000000  0.5368340000000 1.0
C      1  0.4422260000000  0.5368220000000  0.4648860000000 1.0
C      1  0.4422260000000  0.4631430000000  0.5351020000000 1.0
C      1  0.5577510000000  0.4631430000000  0.4648860000000 1.0
C      1  0.5368280000000  0.4648740000000  0.4422320000000 1.0
C      1  0.5368290000000  0.5350910000000  0.5577560000000 1.0
C      1  0.4631490000000  0.5350910000000  0.4422320000000 1.0
C      1  0.4758720000000  0.4488470000000  0.4690180000000 1.0
C      1  0.4488530000000  0.4690060000000  0.4758770000000 1.0
C      1  0.4690120000000  0.4758660000000  0.4488590000000 1.0
C      1  0.5241050000000  0.4488470000000  0.5309700000000 1.0
C      1  0.5241050000000  0.5511180000000  0.4690180000000 1.0
C      1  0.4758720000000  0.5511180000000  0.5309700000000 1.0
C      1  0.5511240000000  0.4690060000000  0.5241110000000 1.0
C      1  0.5511240000000  0.5309590000000  0.4758770000000 1.0
C      1  0.4488530000000  0.5309590000000  0.5241110000000 1.0
C      1  0.5309650000000  0.4758660000000  0.5511290000000 1.0
C      1  0.5309650000000  0.5240990000000  0.4488590000000 1.0
C      1  0.4690120000000  0.5240990000000  0.5511290000000 1.0
C      1  0.4758720000000  0.5511180000000  0.4690180000000 1.0
C      1  0.4488530000000  0.5309590000000  0.4758770000000 1.0
C      1  0.4690120000000  0.5240990000000  0.4488590000000 1.0
C      1  0.5241050000000  0.5511180000000  0.5309700000000 1.0
C      1  0.5241050000000  0.4488470000000  0.4690180000000 1.0
C      1  0.4758720000000  0.4488470000000  0.5309700000000 1.0
C      1  0.5511240000000  0.5309590000000  0.5241110000000 1.0
C      1  0.5511240000000  0.4690060000000  0.4758770000000 1.0
C      1  0.4488530000000  0.4690060000000  0.5241110000000 1.0
C      1  0.5309650000000  0.5240990000000  0.5511290000000 1.0
C      1  0.5309650000000  0.4758660000000  0.4488590000000 1.0
C      1  0.4690120000000  0.4758660000000  0.5511290000000 1.0
C      1  0.5251760000000  0.4999820000000  0.5476890000000 1.0
C      1  0.4999890000000  0.5476770000000  0.5251810000000 1.0
C      1  0.5476830000000  0.5251700000000  0.4999940000000 1.0
C      1  0.4748010000000  0.4999820000000  0.5476890000000 1.0
C      1  0.5251760000000  0.4999820000000  0.4522990000000 1.0
C      1  0.4999890000000  0.5476770000000  0.4748060000000 1.0
C      1  0.4999890000000  0.4522880000000  0.5251810000000 1.0
C      1  0.4999890000000  0.4522880000000  0.4748060000000 1.0
C      1  0.4522940000000  0.5251700000000  0.4999940000000 1.0
C      1  0.4522940000000  0.4747950000000  0.4999940000000 1.0
C      1  0.5476830000000  0.4747950000000  0.4999940000000 1.0
C      1  0.4748010000000  0.4999820000000  0.4522990000000 1.0
C      1  0.4485180000000  0.5514530000000  0.5514640000000 1.0
C      1  0.5514590000000  0.4485120000000  0.5514640000000 1.0
C      1  0.5514590000000  0.4485120000000  0.4485240000000 1.0
C      1  0.4485180000000  0.5514530000000  0.4485240000000 1.0
C      1  0.5514590000000  0.5514530000000  0.4485240000000 1.0
C      1  0.4485180000000  0.4485120000000  0.4485240000000 1.0
C      1  0.4485180000000  0.4485120000000  0.5514640000000 1.0
C      1  0.5514590000000  0.5514530000000  0.5514640000000 1.0
END
