TITL C-1379265-1223-326 -2.58964926464012e-07 1000000 -1665.30662981921 0 0 240 (Th) n - 1
REM
REM in /nfs/bkarasulu/CARBON/AIRSS/Generating-Clusters/GAP-ML-2020/Higher-Symm/Selected-Sizes/TryA-Only_Ih-Symm/Larger-Clusters/Try2-MINAMP_6A
REM
REM
REM
REM
REM
REM ./C.cell (31579ac4e95a012ec27f3239692ae8a5)
REM
REM compiler GCC version 9.2.1 20190827 (Red Hat 9.2.1-1)
REM options -cpp -mtune=generic -march=x86-64 -g -O0 -fpre-include=/usr/include/finclude/math-vector-fortran.h
REM seed -1392805501 -799638764 -1570701850 -246072886 907188662 -2024310029 -1688783182 -278898325 -1967417475 -1188558524 880108013 1374024453 -1102506503 -67429756 369935332 -939498370 2005287394 -1805999732 1362314634 -1437631697 1967731660 1366839369 1640827997 -589693423 1142297245 2076810322 224121549 -1098449344 -385564472 -1972020358 1640865210 -904585812 539949980
REM
CELL 1.54180  100.00000  100.00000  100.00000   90.00000   90.00000   90.00000
LATT -1
SFAC C  
C      1  0.5064390000000  0.5638530000000  0.4489650000000 1.0
C      1  0.5638530000000  0.4489650000000  0.5064390000000 1.0
C      1  0.4489650000000  0.5064390000000  0.5638530000000 1.0
C      1  0.4935610000000  0.5638530000000  0.5510350000000 1.0
C      1  0.4935610000000  0.4361470000000  0.4489650000000 1.0
C      1  0.5064390000000  0.4361470000000  0.5510350000000 1.0
C      1  0.4361470000000  0.4489650000000  0.4935610000000 1.0
C      1  0.4361470000000  0.5510350000000  0.5064390000000 1.0
C      1  0.5638530000000  0.5510350000000  0.4935610000000 1.0
C      1  0.5510350000000  0.5064390000000  0.4361470000000 1.0
C      1  0.5510350000000  0.4935610000000  0.5638530000000 1.0
C      1  0.4489650000000  0.4935610000000  0.4361470000000 1.0
C      1  0.5064390000000  0.4361470000000  0.4489650000000 1.0
C      1  0.5638530000000  0.5510350000000  0.5064390000000 1.0
C      1  0.4489650000000  0.4935610000000  0.5638530000000 1.0
C      1  0.4935610000000  0.4361470000000  0.5510350000000 1.0
C      1  0.4935610000000  0.5638530000000  0.4489650000000 1.0
C      1  0.5064390000000  0.5638530000000  0.5510350000000 1.0
C      1  0.4361470000000  0.5510350000000  0.4935610000000 1.0
C      1  0.4361470000000  0.4489650000000  0.5064390000000 1.0
C      1  0.5638530000000  0.4489650000000  0.4935610000000 1.0
C      1  0.5510350000000  0.4935610000000  0.4361470000000 1.0
C      1  0.5510350000000  0.5064390000000  0.5638530000000 1.0
C      1  0.4489650000000  0.5064390000000  0.4361470000000 1.0
C      1  0.5298980000000  0.4430190000000  0.4805920000000 1.0
C      1  0.4430190000000  0.4805920000000  0.5298980000000 1.0
C      1  0.4805920000000  0.5298980000000  0.4430190000000 1.0
C      1  0.4701020000000  0.4430190000000  0.5194080000000 1.0
C      1  0.4701020000000  0.5569810000000  0.4805920000000 1.0
C      1  0.5298980000000  0.5569810000000  0.5194080000000 1.0
C      1  0.5569810000000  0.4805920000000  0.4701020000000 1.0
C      1  0.5569810000000  0.5194080000000  0.5298980000000 1.0
C      1  0.4430190000000  0.5194080000000  0.4701020000000 1.0
C      1  0.5194080000000  0.5298980000000  0.5569810000000 1.0
C      1  0.5194080000000  0.4701020000000  0.4430190000000 1.0
C      1  0.4805920000000  0.4701020000000  0.5569810000000 1.0
C      1  0.5298980000000  0.5569810000000  0.4805920000000 1.0
C      1  0.4430190000000  0.5194080000000  0.5298980000000 1.0
C      1  0.4805920000000  0.4701020000000  0.4430190000000 1.0
C      1  0.4701020000000  0.5569810000000  0.5194080000000 1.0
C      1  0.4701020000000  0.4430190000000  0.4805920000000 1.0
C      1  0.5298980000000  0.4430190000000  0.5194080000000 1.0
C      1  0.5569810000000  0.5194080000000  0.4701020000000 1.0
C      1  0.5569810000000  0.4805920000000  0.5298980000000 1.0
C      1  0.4430190000000  0.4805920000000  0.4701020000000 1.0
C      1  0.5194080000000  0.4701020000000  0.5569810000000 1.0
C      1  0.5194080000000  0.5298980000000  0.4430190000000 1.0
C      1  0.4805920000000  0.5298980000000  0.5569810000000 1.0
C      1  0.4451710000000  0.4552380000000  0.4842070000000 1.0
C      1  0.4552380000000  0.4842070000000  0.4451710000000 1.0
C      1  0.4842070000000  0.4451710000000  0.4552380000000 1.0
C      1  0.5548290000000  0.4552380000000  0.5157930000000 1.0
C      1  0.5548290000000  0.5447620000000  0.4842070000000 1.0
C      1  0.4451710000000  0.5447620000000  0.5157930000000 1.0
C      1  0.5447620000000  0.4842070000000  0.5548290000000 1.0
C      1  0.5447620000000  0.5157930000000  0.4451710000000 1.0
C      1  0.4552380000000  0.5157930000000  0.5548290000000 1.0
C      1  0.5157930000000  0.4451710000000  0.5447620000000 1.0
C      1  0.5157930000000  0.5548290000000  0.4552380000000 1.0
C      1  0.4842070000000  0.5548290000000  0.5447620000000 1.0
C      1  0.4451710000000  0.5447620000000  0.4842070000000 1.0
C      1  0.4552380000000  0.5157930000000  0.4451710000000 1.0
C      1  0.4842070000000  0.5548290000000  0.4552380000000 1.0
C      1  0.5548290000000  0.5447620000000  0.5157930000000 1.0
C      1  0.5548290000000  0.4552380000000  0.4842070000000 1.0
C      1  0.4451710000000  0.4552380000000  0.5157930000000 1.0
C      1  0.5447620000000  0.5157930000000  0.5548290000000 1.0
C      1  0.5447620000000  0.4842070000000  0.4451710000000 1.0
C      1  0.4552380000000  0.4842070000000  0.5548290000000 1.0
C      1  0.5157930000000  0.5548290000000  0.5447620000000 1.0
C      1  0.5157930000000  0.4451710000000  0.4552380000000 1.0
C      1  0.4842070000000  0.4451710000000  0.5447620000000 1.0
C      1  0.4708690000000  0.5486370000000  0.4566200000000 1.0
C      1  0.5486370000000  0.4566200000000  0.4708690000000 1.0
C      1  0.4566200000000  0.4708690000000  0.5486370000000 1.0
C      1  0.5291310000000  0.5486370000000  0.5433800000000 1.0
C      1  0.5291310000000  0.4513630000000  0.4566200000000 1.0
C      1  0.4708690000000  0.4513630000000  0.5433800000000 1.0
C      1  0.4513630000000  0.4566200000000  0.5291310000000 1.0
C      1  0.4513630000000  0.5433800000000  0.4708690000000 1.0
C      1  0.5486370000000  0.5433800000000  0.5291310000000 1.0
C      1  0.5433800000000  0.4708690000000  0.4513630000000 1.0
C      1  0.5433800000000  0.5291310000000  0.5486370000000 1.0
C      1  0.4566200000000  0.5291310000000  0.4513630000000 1.0
C      1  0.4708690000000  0.4513630000000  0.4566200000000 1.0
C      1  0.5486370000000  0.5433800000000  0.4708690000000 1.0
C      1  0.4566200000000  0.5291310000000  0.5486370000000 1.0
C      1  0.5291310000000  0.4513630000000  0.5433800000000 1.0
C      1  0.5291310000000  0.5486370000000  0.4566200000000 1.0
C      1  0.4708690000000  0.5486370000000  0.5433800000000 1.0
C      1  0.4513630000000  0.5433800000000  0.5291310000000 1.0
C      1  0.4513630000000  0.4566200000000  0.4708690000000 1.0
C      1  0.5486370000000  0.4566200000000  0.5291310000000 1.0
C      1  0.5433800000000  0.5291310000000  0.4513630000000 1.0
C      1  0.5433800000000  0.4708690000000  0.5486370000000 1.0
C      1  0.4566200000000  0.4708690000000  0.4513630000000 1.0
C      1  0.4558540000000  0.4591320000000  0.5072630000000 1.0
C      1  0.4591320000000  0.5072630000000  0.4558540000000 1.0
C      1  0.5072630000000  0.4558540000000  0.4591320000000 1.0
C      1  0.5441460000000  0.4591320000000  0.4927370000000 1.0
C      1  0.5441460000000  0.5408680000000  0.5072630000000 1.0
C      1  0.4558540000000  0.5408680000000  0.4927370000000 1.0
C      1  0.5408680000000  0.5072630000000  0.5441460000000 1.0
C      1  0.5408680000000  0.4927370000000  0.4558540000000 1.0
C      1  0.4591320000000  0.4927370000000  0.5441460000000 1.0
C      1  0.4927370000000  0.4558540000000  0.5408680000000 1.0
C      1  0.4927370000000  0.5441460000000  0.4591320000000 1.0
C      1  0.5072630000000  0.5441460000000  0.5408680000000 1.0
C      1  0.4558540000000  0.5408680000000  0.5072630000000 1.0
C      1  0.4591320000000  0.4927370000000  0.4558540000000 1.0
C      1  0.5072630000000  0.5441460000000  0.4591320000000 1.0
C      1  0.5441460000000  0.5408680000000  0.4927370000000 1.0
C      1  0.5441460000000  0.4591320000000  0.5072630000000 1.0
C      1  0.4558540000000  0.4591320000000  0.4927370000000 1.0
C      1  0.5408680000000  0.4927370000000  0.5441460000000 1.0
C      1  0.5408680000000  0.5072630000000  0.4558540000000 1.0
C      1  0.4591320000000  0.5072630000000  0.5441460000000 1.0
C      1  0.4927370000000  0.5441460000000  0.5408680000000 1.0
C      1  0.4927370000000  0.4558540000000  0.4591320000000 1.0
C      1  0.5072630000000  0.4558540000000  0.5408680000000 1.0
C      1  0.5503730000000  0.4926910000000  0.4667170000000 1.0
C      1  0.4926910000000  0.4667170000000  0.5503730000000 1.0
C      1  0.4667170000000  0.5503730000000  0.4926910000000 1.0
C      1  0.4496270000000  0.4926910000000  0.5332830000000 1.0
C      1  0.4496270000000  0.5073090000000  0.4667170000000 1.0
C      1  0.5503730000000  0.5073090000000  0.5332830000000 1.0
C      1  0.5073090000000  0.4667170000000  0.4496270000000 1.0
C      1  0.5073090000000  0.5332830000000  0.5503730000000 1.0
C      1  0.4926910000000  0.5332830000000  0.4496270000000 1.0
C      1  0.5332830000000  0.5503730000000  0.5073090000000 1.0
C      1  0.5332830000000  0.4496270000000  0.4926910000000 1.0
C      1  0.4667170000000  0.4496270000000  0.5073090000000 1.0
C      1  0.5503730000000  0.5073090000000  0.4667170000000 1.0
C      1  0.4926910000000  0.5332830000000  0.5503730000000 1.0
C      1  0.4667170000000  0.4496270000000  0.4926910000000 1.0
C      1  0.4496270000000  0.5073090000000  0.5332830000000 1.0
C      1  0.4496270000000  0.4926910000000  0.4667170000000 1.0
C      1  0.5503730000000  0.4926910000000  0.5332830000000 1.0
C      1  0.5073090000000  0.5332830000000  0.4496270000000 1.0
C      1  0.5073090000000  0.4667170000000  0.5503730000000 1.0
C      1  0.4926910000000  0.4667170000000  0.4496270000000 1.0
C      1  0.5332830000000  0.4496270000000  0.5073090000000 1.0
C      1  0.5332830000000  0.5503730000000  0.4926910000000 1.0
C      1  0.4667170000000  0.5503730000000  0.5073090000000 1.0
C      1  0.5061120000000  0.5183600000000  0.5736860000000 1.0
C      1  0.5183600000000  0.5736860000000  0.5061120000000 1.0
C      1  0.5736860000000  0.5061120000000  0.5183600000000 1.0
C      1  0.4938880000000  0.5183600000000  0.4263140000000 1.0
C      1  0.4938880000000  0.4816400000000  0.5736860000000 1.0
C      1  0.5061120000000  0.4816400000000  0.4263140000000 1.0
C      1  0.4816400000000  0.5736860000000  0.4938880000000 1.0
C      1  0.4816400000000  0.4263140000000  0.5061120000000 1.0
C      1  0.5183600000000  0.4263140000000  0.4938880000000 1.0
C      1  0.4263140000000  0.5061120000000  0.4816400000000 1.0
C      1  0.4263140000000  0.4938880000000  0.5183600000000 1.0
C      1  0.5736860000000  0.4938880000000  0.4816400000000 1.0
C      1  0.5061120000000  0.4816400000000  0.5736860000000 1.0
C      1  0.5183600000000  0.4263140000000  0.5061120000000 1.0
C      1  0.5736860000000  0.4938880000000  0.5183600000000 1.0
C      1  0.4938880000000  0.4816400000000  0.4263140000000 1.0
C      1  0.4938880000000  0.5183600000000  0.5736860000000 1.0
C      1  0.5061120000000  0.5183600000000  0.4263140000000 1.0
C      1  0.4816400000000  0.4263140000000  0.4938880000000 1.0
C      1  0.4816400000000  0.5736860000000  0.5061120000000 1.0
C      1  0.5183600000000  0.5736860000000  0.4938880000000 1.0
C      1  0.4263140000000  0.4938880000000  0.4816400000000 1.0
C      1  0.4263140000000  0.5061120000000  0.5183600000000 1.0
C      1  0.5736860000000  0.5061120000000  0.4816400000000 1.0
C      1  0.4807780000000  0.4333330000000  0.5183110000000 1.0
C      1  0.4333330000000  0.5183110000000  0.4807780000000 1.0
C      1  0.5183110000000  0.4807780000000  0.4333330000000 1.0
C      1  0.5192220000000  0.4333330000000  0.4816890000000 1.0
C      1  0.5192220000000  0.5666670000000  0.5183110000000 1.0
C      1  0.4807780000000  0.5666670000000  0.4816890000000 1.0
C      1  0.5666670000000  0.5183110000000  0.5192220000000 1.0
C      1  0.5666670000000  0.4816890000000  0.4807780000000 1.0
C      1  0.4333330000000  0.4816890000000  0.5192220000000 1.0
C      1  0.4816890000000  0.4807780000000  0.5666670000000 1.0
C      1  0.4816890000000  0.5192220000000  0.4333330000000 1.0
C      1  0.5183110000000  0.5192220000000  0.5666670000000 1.0
C      1  0.4807780000000  0.5666670000000  0.5183110000000 1.0
C      1  0.4333330000000  0.4816890000000  0.4807780000000 1.0
C      1  0.5183110000000  0.5192220000000  0.4333330000000 1.0
C      1  0.5192220000000  0.5666670000000  0.4816890000000 1.0
C      1  0.5192220000000  0.4333330000000  0.5183110000000 1.0
C      1  0.4807780000000  0.4333330000000  0.4816890000000 1.0
C      1  0.5666670000000  0.4816890000000  0.5192220000000 1.0
C      1  0.5666670000000  0.5183110000000  0.4807780000000 1.0
C      1  0.4333330000000  0.5183110000000  0.5192220000000 1.0
C      1  0.4816890000000  0.5192220000000  0.5666670000000 1.0
C      1  0.4816890000000  0.4807780000000  0.4333330000000 1.0
C      1  0.5183110000000  0.4807780000000  0.5666670000000 1.0
C      1  0.5660470000000  0.4772610000000  0.5062080000000 1.0
C      1  0.4772610000000  0.5062080000000  0.5660470000000 1.0
C      1  0.5062080000000  0.5660470000000  0.4772610000000 1.0
C      1  0.4339530000000  0.4772610000000  0.4937920000000 1.0
C      1  0.4339530000000  0.5227390000000  0.5062080000000 1.0
C      1  0.5660470000000  0.5227390000000  0.4937920000000 1.0
C      1  0.5227390000000  0.5062080000000  0.4339530000000 1.0
C      1  0.5227390000000  0.4937920000000  0.5660470000000 1.0
C      1  0.4772610000000  0.4937920000000  0.4339530000000 1.0
C      1  0.4937920000000  0.5660470000000  0.5227390000000 1.0
C      1  0.4937920000000  0.4339530000000  0.4772610000000 1.0
C      1  0.5062080000000  0.4339530000000  0.5227390000000 1.0
C      1  0.5660470000000  0.5227390000000  0.5062080000000 1.0
C      1  0.4772610000000  0.4937920000000  0.5660470000000 1.0
C      1  0.5062080000000  0.4339530000000  0.4772610000000 1.0
C      1  0.4339530000000  0.5227390000000  0.4937920000000 1.0
C      1  0.4339530000000  0.4772610000000  0.5062080000000 1.0
C      1  0.5660470000000  0.4772610000000  0.4937920000000 1.0
C      1  0.5227390000000  0.4937920000000  0.4339530000000 1.0
C      1  0.5227390000000  0.5062080000000  0.5660470000000 1.0
C      1  0.4772610000000  0.5062080000000  0.4339530000000 1.0
C      1  0.4937920000000  0.4339530000000  0.5227390000000 1.0
C      1  0.4937920000000  0.5660470000000  0.4772610000000 1.0
C      1  0.5062080000000  0.5660470000000  0.5227390000000 1.0
C      1  0.4686990000000  0.4635730000000  0.5508490000000 1.0
C      1  0.4635730000000  0.5508490000000  0.4686990000000 1.0
C      1  0.5508490000000  0.4686990000000  0.4635730000000 1.0
C      1  0.5313010000000  0.4635730000000  0.4491510000000 1.0
C      1  0.5313010000000  0.5364270000000  0.5508490000000 1.0
C      1  0.4686990000000  0.5364270000000  0.4491510000000 1.0
C      1  0.5364270000000  0.5508490000000  0.5313010000000 1.0
C      1  0.5364270000000  0.4491510000000  0.4686990000000 1.0
C      1  0.4635730000000  0.4491510000000  0.5313010000000 1.0
C      1  0.4491510000000  0.4686990000000  0.5364270000000 1.0
C      1  0.4491510000000  0.5313010000000  0.4635730000000 1.0
C      1  0.5508490000000  0.5313010000000  0.5364270000000 1.0
C      1  0.4686990000000  0.5364270000000  0.5508490000000 1.0
C      1  0.4635730000000  0.4491510000000  0.4686990000000 1.0
C      1  0.5508490000000  0.5313010000000  0.4635730000000 1.0
C      1  0.5313010000000  0.5364270000000  0.4491510000000 1.0
C      1  0.5313010000000  0.4635730000000  0.5508490000000 1.0
C      1  0.4686990000000  0.4635730000000  0.4491510000000 1.0
C      1  0.5364270000000  0.4491510000000  0.5313010000000 1.0
C      1  0.5364270000000  0.5508490000000  0.4686990000000 1.0
C      1  0.4635730000000  0.5508490000000  0.5313010000000 1.0
C      1  0.4491510000000  0.5313010000000  0.5364270000000 1.0
C      1  0.4491510000000  0.4686990000000  0.4635730000000 1.0
C      1  0.5508490000000  0.4686990000000  0.5364270000000 1.0
END
