TITL C-1379265-1223-346 1.37585165630598e-06 1000000 -3856.48785840056 0 0 540 (C1) n - 1
REM
REM in /nfs/bkarasulu/CARBON/AIRSS/Generating-Clusters/GAP-ML-2020/Higher-Symm/Selected-Sizes/TryA-Only_Ih-Symm/Larger-Clusters/Try2-MINAMP_6A
REM
REM
REM
REM
REM
REM ./C.cell (31579ac4e95a012ec27f3239692ae8a5)
REM
REM compiler GCC version 9.2.1 20190827 (Red Hat 9.2.1-1)
REM options -cpp -mtune=generic -march=x86-64 -g -O0 -fpre-include=/usr/include/finclude/math-vector-fortran.h
REM seed -1165768016 -981247070 -1822668781 -663683276 -1206654257 -991676999 -1872497689 -1434975092 -222898989 -1989326650 390229311 -847624296 558178202 177520140 1539546461 215229297 -1883856592 1743668969 -984654377 637781717 2027345817 -1685729719 971385974 912110439 1029395449 133604174 894824633 -1755505229 52172800 818396218 1032269205 1429986755 1911284001
REM
CELL 1.54180  100.00000  100.00000  100.00000   90.00000   90.00000   90.00000
LATT -1
SFAC C  
C      1  0.5222610000000  0.5577600000000  0.4530260000000 1.0
C      1  0.4545910000000  0.5211800000000  0.5572740000000 1.0
C      1  0.5574350000000  0.4531790000000  0.5217720000000 1.0
C      1  0.4778330000000  0.4422830000000  0.4532750000000 1.0
C      1  0.4779460000000  0.5573440000000  0.5467570000000 1.0
C      1  0.5216440000000  0.4422680000000  0.5455430000000 1.0
C      1  0.5473730000000  0.4788650000000  0.5574890000000 1.0
C      1  0.5455000000000  0.5214340000000  0.4425240000000 1.0
C      1  0.4544580000000  0.4785240000000  0.4425920000000 1.0
C      1  0.4424850000000  0.5473290000000  0.5208830000000 1.0
C      1  0.4421670000000  0.4523940000000  0.4788980000000 1.0
C      1  0.5577380000000  0.5476810000000  0.4787900000000 1.0
C      1  0.5567810000000  0.5214020000000  0.4529640000000 1.0
C      1  0.5215930000000  0.4526650000000  0.5568220000000 1.0
C      1  0.4528620000000  0.5584260000000  0.5207200000000 1.0
C      1  0.4431610000000  0.4785690000000  0.4529890000000 1.0
C      1  0.5584240000000  0.4790990000000  0.5470500000000 1.0
C      1  0.4433070000000  0.5212360000000  0.5468540000000 1.0
C      1  0.4770500000000  0.5452370000000  0.5558660000000 1.0
C      1  0.5231450000000  0.5456950000000  0.4438750000000 1.0
C      1  0.4768800000000  0.4543160000000  0.4440480000000 1.0
C      1  0.5454680000000  0.4439010000000  0.5227830000000 1.0
C      1  0.4524820000000  0.4412410000000  0.4791090000000 1.0
C      1  0.5473500000000  0.5587300000000  0.4790830000000 1.0
C      1  0.5252230000000  0.5835670000000  0.4853110000000 1.0
C      1  0.4851900000000  0.5241480000000  0.5820650000000 1.0
C      1  0.5833050000000  0.4853650000000  0.5248840000000 1.0
C      1  0.4744710000000  0.4162260000000  0.4852540000000 1.0
C      1  0.4748460000000  0.5834010000000  0.5147500000000 1.0
C      1  0.5244890000000  0.4175440000000  0.5148050000000 1.0
C      1  0.5150480000000  0.4744270000000  0.5824050000000 1.0
C      1  0.5149400000000  0.5246720000000  0.4175780000000 1.0
C      1  0.4850650000000  0.4752680000000  0.4176580000000 1.0
C      1  0.4176840000000  0.5148340000000  0.5249900000000 1.0
C      1  0.4175760000000  0.4852000000000  0.4748930000000 1.0
C      1  0.5824090000000  0.5149120000000  0.4747570000000 1.0
C      1  0.5827550000000  0.5251200000000  0.4849840000000 1.0
C      1  0.5251320000000  0.4847730000000  0.5824740000000 1.0
C      1  0.4849820000000  0.5831110000000  0.5250720000000 1.0
C      1  0.4173290000000  0.4750220000000  0.4851440000000 1.0
C      1  0.5829150000000  0.4750890000000  0.5147020000000 1.0
C      1  0.4175170000000  0.5250080000000  0.5147390000000 1.0
C      1  0.4750770000000  0.5140290000000  0.5826230000000 1.0
C      1  0.5250100000000  0.5144680000000  0.4171280000000 1.0
C      1  0.4749920000000  0.4854700000000  0.4171690000000 1.0
C      1  0.5144350000000  0.4167690000000  0.5249870000000 1.0
C      1  0.4847220000000  0.4166450000000  0.4750210000000 1.0
C      1  0.5150860000000  0.5833610000000  0.4749870000000 1.0
C      1  0.4735810000000  0.5170510000000  0.4483920000000 1.0
C      1  0.4480590000000  0.4731330000000  0.5167370000000 1.0
C      1  0.5164800000000  0.4481060000000  0.4736940000000 1.0
C      1  0.5264170000000  0.4829190000000  0.4484470000000 1.0
C      1  0.5262120000000  0.5166230000000  0.5515450000000 1.0
C      1  0.4730640000000  0.4826590000000  0.5515220000000 1.0
C      1  0.5522460000000  0.5271800000000  0.5163230000000 1.0
C      1  0.5516400000000  0.4732050000000  0.4831490000000 1.0
C      1  0.4482650000000  0.5266940000000  0.4830510000000 1.0
C      1  0.4837870000000  0.5523630000000  0.4727170000000 1.0
C      1  0.4833020000000  0.4475800000000  0.5274150000000 1.0
C      1  0.5163940000000  0.5521080000000  0.5271020000000 1.0
C      1  0.5156730000000  0.4726120000000  0.4486260000000 1.0
C      1  0.4729750000000  0.4473460000000  0.5171140000000 1.0
C      1  0.4484480000000  0.5163980000000  0.4727480000000 1.0
C      1  0.4843060000000  0.5273740000000  0.4485350000000 1.0
C      1  0.5156450000000  0.5268970000000  0.5512270000000 1.0
C      1  0.4834840000000  0.4722920000000  0.5515230000000 1.0
C      1  0.5267230000000  0.5523620000000  0.5169640000000 1.0
C      1  0.4734540000000  0.5524740000000  0.4828470000000 1.0
C      1  0.5268760000000  0.4484270000000  0.4841600000000 1.0
C      1  0.5515050000000  0.4834230000000  0.4727380000000 1.0
C      1  0.4483510000000  0.4834090000000  0.5270660000000 1.0
C      1  0.5523300000000  0.5169470000000  0.5265150000000 1.0
C      1  0.5389960000000  0.4402030000000  0.4505740000000 1.0
C      1  0.4505550000000  0.5396360000000  0.4402610000000 1.0
C      1  0.4400330000000  0.4499280000000  0.5394400000000 1.0
C      1  0.4609340000000  0.5600660000000  0.4502930000000 1.0
C      1  0.4604010000000  0.4396760000000  0.5497770000000 1.0
C      1  0.5391850000000  0.5597760000000  0.5496310000000 1.0
C      1  0.5494610000000  0.4604400000000  0.4403740000000 1.0
C      1  0.5496300000000  0.5393790000000  0.5596050000000 1.0
C      1  0.4502280000000  0.4601740000000  0.5597820000000 1.0
C      1  0.5598240000000  0.5499210000000  0.5393960000000 1.0
C      1  0.5595040000000  0.4502620000000  0.4608000000000 1.0
C      1  0.4404010000000  0.5499900000000  0.4605140000000 1.0
C      1  0.4404450000000  0.5396210000000  0.4502410000000 1.0
C      1  0.5390170000000  0.4502030000000  0.4405160000000 1.0
C      1  0.4499820000000  0.4397040000000  0.5394840000000 1.0
C      1  0.5595650000000  0.4604910000000  0.4503760000000 1.0
C      1  0.4401560000000  0.4602730000000  0.5497410000000 1.0
C      1  0.5598370000000  0.5395170000000  0.5496510000000 1.0
C      1  0.4609690000000  0.5499290000000  0.4403590000000 1.0
C      1  0.5391540000000  0.5495740000000  0.5595060000000 1.0
C      1  0.4605140000000  0.4497600000000  0.5597710000000 1.0
C      1  0.5496810000000  0.5599700000000  0.5394150000000 1.0
C      1  0.4504610000000  0.5601410000000  0.4605140000000 1.0
C      1  0.5493640000000  0.4402800000000  0.4608840000000 1.0
C      1  0.5108910000000  0.5000770000000  0.4464250000000 1.0
C      1  0.4468450000000  0.5111500000000  0.5004300000000 1.0
C      1  0.4995990000000  0.4458640000000  0.5108240000000 1.0
C      1  0.4891040000000  0.4999070000000  0.4464220000000 1.0
C      1  0.4892830000000  0.4992770000000  0.5533070000000 1.0
C      1  0.5113320000000  0.4987510000000  0.5530850000000 1.0
C      1  0.5532010000000  0.4889040000000  0.5003030000000 1.0
C      1  0.5535500000000  0.5113160000000  0.4991620000000 1.0
C      1  0.4466840000000  0.4887400000000  0.4994080000000 1.0
C      1  0.4994480000000  0.5535980000000  0.5110920000000 1.0
C      1  0.4988730000000  0.4463940000000  0.4887770000000 1.0
C      1  0.5006880000000  0.5537740000000  0.4887690000000 1.0
C      1  0.5008420000000  0.5110350000000  0.4465010000000 1.0
C      1  0.5103030000000  0.4464970000000  0.5004760000000 1.0
C      1  0.4468860000000  0.5006270000000  0.5112040000000 1.0
C      1  0.4991500000000  0.4889530000000  0.4465490000000 1.0
C      1  0.5009500000000  0.4878480000000  0.5531500000000 1.0
C      1  0.4993960000000  0.5101950000000  0.5530650000000 1.0
C      1  0.4889350000000  0.5537290000000  0.5002090000000 1.0
C      1  0.5112000000000  0.5537590000000  0.4996520000000 1.0
C      1  0.4881430000000  0.4458870000000  0.4994460000000 1.0
C      1  0.5536490000000  0.4996430000000  0.5109450000000 1.0
C      1  0.4468740000000  0.4992600000000  0.4886440000000 1.0
C      1  0.5530770000000  0.5005910000000  0.4885780000000 1.0
C      1  0.4997900000000  0.5540430000000  0.5645350000000 1.0
C      1  0.5664430000000  0.5007640000000  0.5553400000000 1.0
C      1  0.5556020000000  0.5667140000000  0.5007670000000 1.0
C      1  0.4996750000000  0.4444040000000  0.5655820000000 1.0
C      1  0.5003560000000  0.5545220000000  0.4352750000000 1.0
C      1  0.4996530000000  0.4455060000000  0.4354400000000 1.0
C      1  0.4345450000000  0.4993480000000  0.5550030000000 1.0
C      1  0.4345780000000  0.5005420000000  0.4448900000000 1.0
C      1  0.5654500000000  0.4994740000000  0.4448530000000 1.0
C      1  0.4441020000000  0.4332200000000  0.5007490000000 1.0
C      1  0.4445440000000  0.5665870000000  0.4991430000000 1.0
C      1  0.5541660000000  0.4352910000000  0.5000490000000 1.0
C      1  0.5554490000000  0.5006180000000  0.5658840000000 1.0
C      1  0.4999900000000  0.5655350000000  0.5548630000000 1.0
C      1  0.5661340000000  0.5557080000000  0.5006040000000 1.0
C      1  0.4453320000000  0.4992010000000  0.5655290000000 1.0
C      1  0.5546350000000  0.4993770000000  0.4343460000000 1.0
C      1  0.4453880000000  0.5006080000000  0.4343800000000 1.0
C      1  0.4996010000000  0.4339070000000  0.5548040000000 1.0
C      1  0.4998910000000  0.4341190000000  0.4452540000000 1.0
C      1  0.5001410000000  0.5659340000000  0.4450420000000 1.0
C      1  0.4337160000000  0.4443700000000  0.5006700000000 1.0
C      1  0.5655530000000  0.4451300000000  0.4997610000000 1.0
C      1  0.4340490000000  0.5555360000000  0.4992030000000 1.0
C      1  0.5338920000000  0.5516960000000  0.4836040000000 1.0
C      1  0.4771260000000  0.5312010000000  0.5458040000000 1.0
C      1  0.5514270000000  0.4835850000000  0.5335960000000 1.0
C      1  0.4658350000000  0.4482740000000  0.4836620000000 1.0
C      1  0.4662770000000  0.5514060000000  0.5162060000000 1.0
C      1  0.5314300000000  0.4538190000000  0.5227570000000 1.0
C      1  0.5181870000000  0.4652090000000  0.5491590000000 1.0
C      1  0.5230240000000  0.5316370000000  0.4539310000000 1.0
C      1  0.4769550000000  0.4683640000000  0.4540640000000 1.0
C      1  0.4509320000000  0.5179050000000  0.5342150000000 1.0
C      1  0.4507760000000  0.4818880000000  0.4656420000000 1.0
C      1  0.5491460000000  0.5181180000000  0.4656310000000 1.0
C      1  0.5495850000000  0.5346570000000  0.4819470000000 1.0
C      1  0.5344010000000  0.4819700000000  0.5492280000000 1.0
C      1  0.4838290000000  0.5516590000000  0.5335640000000 1.0
C      1  0.4503280000000  0.4654850000000  0.4820940000000 1.0
C      1  0.5516140000000  0.4663800000000  0.5159140000000 1.0
C      1  0.4506680000000  0.5342990000000  0.5176700000000 1.0
C      1  0.4692700000000  0.5188960000000  0.5502550000000 1.0
C      1  0.5308540000000  0.5192700000000  0.4495610000000 1.0
C      1  0.4691320000000  0.4807060000000  0.4496180000000 1.0
C      1  0.5192990000000  0.4491410000000  0.5307280000000 1.0
C      1  0.4836070000000  0.4480020000000  0.4665460000000 1.0
C      1  0.5163860000000  0.5521130000000  0.4662380000000 1.0
C      1  0.4883070000000  0.4307680000000  0.4526340000000 1.0
C      1  0.4531750000000  0.4891000000000  0.4313260000000 1.0
C      1  0.4307030000000  0.4522610000000  0.4891460000000 1.0
C      1  0.5116980000000  0.5692280000000  0.4524950000000 1.0
C      1  0.5110700000000  0.4309850000000  0.5468820000000 1.0
C      1  0.4884210000000  0.5688620000000  0.5474470000000 1.0
C      1  0.5468250000000  0.5108570000000  0.4312730000000 1.0
C      1  0.5476940000000  0.4890260000000  0.5690050000000 1.0
C      1  0.4532430000000  0.5106070000000  0.5685250000000 1.0
C      1  0.5692120000000  0.5478700000000  0.4890300000000 1.0
C      1  0.5689030000000  0.4526100000000  0.5112630000000 1.0
C      1  0.4309830000000  0.5476470000000  0.5107080000000 1.0
C      1  0.4315730000000  0.4889140000000  0.4524190000000 1.0
C      1  0.4880510000000  0.4537260000000  0.4329680000000 1.0
C      1  0.4517420000000  0.4297390000000  0.4892500000000 1.0
C      1  0.5684160000000  0.5111210000000  0.4523600000000 1.0
C      1  0.4316370000000  0.5109950000000  0.5474560000000 1.0
C      1  0.5698670000000  0.4893050000000  0.5476550000000 1.0
C      1  0.5119530000000  0.5462740000000  0.4328050000000 1.0
C      1  0.4882390000000  0.5457470000000  0.5669200000000 1.0
C      1  0.5113380000000  0.4519640000000  0.5684970000000 1.0
C      1  0.5479430000000  0.5701640000000  0.4893030000000 1.0
C      1  0.4521910000000  0.5699570000000  0.5106320000000 1.0
C      1  0.5459590000000  0.4328410000000  0.5116180000000 1.0
C      1  0.5109700000000  0.4788110000000  0.4142440000000 1.0
C      1  0.4143610000000  0.5111200000000  0.4789010000000 1.0
C      1  0.4785070000000  0.4132740000000  0.5112930000000 1.0
C      1  0.4890320000000  0.5211360000000  0.4141950000000 1.0
C      1  0.4890490000000  0.4782740000000  0.5856810000000 1.0
C      1  0.5109910000000  0.5204120000000  0.5854230000000 1.0
C      1  0.5856500000000  0.4889870000000  0.4788210000000 1.0
C      1  0.5863040000000  0.5113530000000  0.5208570000000 1.0
C      1  0.4143000000000  0.4889480000000  0.5209980000000 1.0
C      1  0.5209250000000  0.5863610000000  0.5112810000000 1.0
C      1  0.5205580000000  0.4141300000000  0.4890200000000 1.0
C      1  0.4791270000000  0.5864310000000  0.4888100000000 1.0
C      1  0.4790240000000  0.5114160000000  0.4140440000000 1.0
C      1  0.5107360000000  0.4139560000000  0.4790820000000 1.0
C      1  0.4140820000000  0.4790700000000  0.5111280000000 1.0
C      1  0.5209820000000  0.4885260000000  0.4140770000000 1.0
C      1  0.4791510000000  0.4881230000000  0.5857970000000 1.0
C      1  0.5209940000000  0.5106890000000  0.5855880000000 1.0
C      1  0.4890850000000  0.5863920000000  0.4789780000000 1.0
C      1  0.5109600000000  0.5861730000000  0.5211030000000 1.0
C      1  0.4884350000000  0.4133200000000  0.5211280000000 1.0
C      1  0.5862290000000  0.5212160000000  0.5109640000000 1.0
C      1  0.4142680000000  0.5209950000000  0.4887780000000 1.0
C      1  0.5857330000000  0.4791230000000  0.4887360000000 1.0
C      1  0.5276900000000  0.4222670000000  0.4623170000000 1.0
C      1  0.4623120000000  0.5283560000000  0.4223180000000 1.0
C      1  0.4222000000000  0.4619850000000  0.5279620000000 1.0
C      1  0.4723080000000  0.5781220000000  0.4619070000000 1.0
C      1  0.4716670000000  0.4215880000000  0.5381540000000 1.0
C      1  0.5277750000000  0.5778630000000  0.5381050000000 1.0
C      1  0.5377170000000  0.4716180000000  0.4223630000000 1.0
C      1  0.5376880000000  0.5277930000000  0.5773890000000 1.0
C      1  0.4620690000000  0.4714220000000  0.5777200000000 1.0
C      1  0.5778880000000  0.5381920000000  0.5278670000000 1.0
C      1  0.5775560000000  0.4620090000000  0.4720270000000 1.0
C      1  0.4224430000000  0.5380420000000  0.4719240000000 1.0
C      1  0.4224830000000  0.5280430000000  0.4619580000000 1.0
C      1  0.5275780000000  0.4618040000000  0.4225790000000 1.0
C      1  0.4616150000000  0.4215870000000  0.5282340000000 1.0
C      1  0.5775840000000  0.4719390000000  0.4619780000000 1.0
C      1  0.4223210000000  0.4719800000000  0.5379340000000 1.0
C      1  0.5779490000000  0.5281990000000  0.5378520000000 1.0
C      1  0.4724430000000  0.5381870000000  0.4225150000000 1.0
C      1  0.5275350000000  0.5376030000000  0.5772280000000 1.0
C      1  0.4720480000000  0.4614410000000  0.5776370000000 1.0
C      1  0.5378810000000  0.5780480000000  0.5282130000000 1.0
C      1  0.4622040000000  0.5782130000000  0.4718020000000 1.0
C      1  0.5376290000000  0.4223920000000  0.4723600000000 1.0
C      1  0.4808640000000  0.5663100000000  0.4994870000000 1.0
C      1  0.4998720000000  0.4799000000000  0.5656410000000 1.0
C      1  0.5655600000000  0.4996650000000  0.4805520000000 1.0
C      1  0.5185510000000  0.4341020000000  0.4998160000000 1.0
C      1  0.5192360000000  0.5663450000000  0.5004670000000 1.0
C      1  0.4801290000000  0.4333170000000  0.5003920000000 1.0
C      1  0.5000800000000  0.5183660000000  0.5655100000000 1.0
C      1  0.4999870000000  0.4808280000000  0.4341400000000 1.0
C      1  0.5000200000000  0.5191600000000  0.4340830000000 1.0
C      1  0.4343720000000  0.5002850000000  0.4806850000000 1.0
C      1  0.4343890000000  0.4996650000000  0.5191910000000 1.0
C      1  0.5662720000000  0.5005080000000  0.5189460000000 1.0
C      1  0.5657220000000  0.4809200000000  0.4995030000000 1.0
C      1  0.4810020000000  0.4987620000000  0.5657820000000 1.0
C      1  0.4999550000000  0.5663780000000  0.4808360000000 1.0
C      1  0.4342920000000  0.5191520000000  0.4994910000000 1.0
C      1  0.5661850000000  0.5192920000000  0.5000790000000 1.0
C      1  0.4340690000000  0.4808300000000  0.5003790000000 1.0
C      1  0.5192870000000  0.4999510000000  0.5655950000000 1.0
C      1  0.4808630000000  0.5007170000000  0.4340050000000 1.0
C      1  0.5191560000000  0.4992470000000  0.4340220000000 1.0
C      1  0.4999040000000  0.4339090000000  0.4808040000000 1.0
C      1  0.4991770000000  0.4333300000000  0.5191100000000 1.0
C      1  0.5001380000000  0.5661210000000  0.5191410000000 1.0
C      1  0.5322660000000  0.4846480000000  0.4222480000000 1.0
C      1  0.4223230000000  0.5324010000000  0.4849090000000 1.0
C      1  0.4847080000000  0.4214050000000  0.5325630000000 1.0
C      1  0.4677510000000  0.5153170000000  0.4222130000000 1.0
C      1  0.4676860000000  0.4844000000000  0.5777680000000 1.0
C      1  0.5322460000000  0.5147470000000  0.5774640000000 1.0
C      1  0.5776780000000  0.4677160000000  0.4849600000000 1.0
C      1  0.5781290000000  0.5326130000000  0.5148100000000 1.0
C      1  0.4220790000000  0.4676180000000  0.5149750000000 1.0
C      1  0.5147700000000  0.5780490000000  0.5324560000000 1.0
C      1  0.5146930000000  0.4221110000000  0.4678480000000 1.0
C      1  0.4853090000000  0.5783400000000  0.4675610000000 1.0
C      1  0.4854270000000  0.5325530000000  0.4223800000000 1.0
C      1  0.5320460000000  0.4222470000000  0.4853830000000 1.0
C      1  0.4223310000000  0.4850580000000  0.5324130000000 1.0
C      1  0.5145860000000  0.4674220000000  0.4224510000000 1.0
C      1  0.4851080000000  0.4669240000000  0.5776110000000 1.0
C      1  0.5145370000000  0.5319320000000  0.5773480000000 1.0
C      1  0.4677610000000  0.5783880000000  0.4848250000000 1.0
C      1  0.5323210000000  0.5783220000000  0.5151980000000 1.0
C      1  0.4672140000000  0.4214110000000  0.5152550000000 1.0
C      1  0.5782010000000  0.5152040000000  0.5322050000000 1.0
C      1  0.4223920000000  0.5149590000000  0.4674700000000 1.0
C      1  0.5776340000000  0.4850510000000  0.4674100000000 1.0
C      1  0.5649140000000  0.5105790000000  0.5285150000000 1.0
C      1  0.5286960000000  0.5649850000000  0.5106140000000 1.0
C      1  0.5097220000000  0.5283270000000  0.5640450000000 1.0
C      1  0.4356750000000  0.4896580000000  0.5288020000000 1.0
C      1  0.4357000000000  0.5102620000000  0.4710600000000 1.0
C      1  0.5642490000000  0.4896040000000  0.4710320000000 1.0
C      1  0.4708710000000  0.4347450000000  0.5107180000000 1.0
C      1  0.4714320000000  0.5650230000000  0.4893050000000 1.0
C      1  0.5283730000000  0.4355910000000  0.4900850000000 1.0
C      1  0.4896850000000  0.4705140000000  0.5642420000000 1.0
C      1  0.4901930000000  0.5288860000000  0.4356800000000 1.0
C      1  0.5098210000000  0.4711200000000  0.4357420000000 1.0
C      1  0.5100460000000  0.5647590000000  0.5288520000000 1.0
C      1  0.5648960000000  0.5289650000000  0.5100580000000 1.0
C      1  0.5284920000000  0.5103050000000  0.5641220000000 1.0
C      1  0.4893720000000  0.4347750000000  0.5289080000000 1.0
C      1  0.5101510000000  0.4354730000000  0.4715040000000 1.0
C      1  0.4900890000000  0.5650560000000  0.4710750000000 1.0
C      1  0.4354100000000  0.4712620000000  0.5104410000000 1.0
C      1  0.5643020000000  0.4713330000000  0.4894950000000 1.0
C      1  0.4356560000000  0.5286650000000  0.4893880000000 1.0
C      1  0.4714010000000  0.4887920000000  0.5642920000000 1.0
C      1  0.5284670000000  0.4890390000000  0.4357110000000 1.0
C      1  0.4715460000000  0.5109210000000  0.4356640000000 1.0
C      1  0.5317310000000  0.5788370000000  0.4588560000000 1.0
C      1  0.4586990000000  0.5307610000000  0.5786460000000 1.0
C      1  0.5785370000000  0.4589400000000  0.5313090000000 1.0
C      1  0.4681720000000  0.4211600000000  0.4588550000000 1.0
C      1  0.4683480000000  0.5784680000000  0.5411500000000 1.0
C      1  0.5312580000000  0.4210240000000  0.5412470000000 1.0
C      1  0.5415400000000  0.4684170000000  0.5780340000000 1.0
C      1  0.5414800000000  0.5310950000000  0.4211650000000 1.0
C      1  0.4585300000000  0.4688390000000  0.4212790000000 1.0
C      1  0.4220260000000  0.5412650000000  0.5312480000000 1.0
C      1  0.4217720000000  0.4587090000000  0.4686240000000 1.0
C      1  0.5781210000000  0.5414210000000  0.4684880000000 1.0
C      1  0.5776300000000  0.5314160000000  0.4585710000000 1.0
C      1  0.5316840000000  0.4583230000000  0.5776820000000 1.0
C      1  0.4584570000000  0.5790320000000  0.5311210000000 1.0
C      1  0.4222790000000  0.4686690000000  0.4586620000000 1.0
C      1  0.5790650000000  0.4689160000000  0.5412510000000 1.0
C      1  0.4224650000000  0.5313220000000  0.5412290000000 1.0
C      1  0.4685490000000  0.5407400000000  0.5779780000000 1.0
C      1  0.5316870000000  0.5411470000000  0.4218140000000 1.0
C      1  0.4683280000000  0.4587980000000  0.4219690000000 1.0
C      1  0.5411690000000  0.4217790000000  0.5313300000000 1.0
C      1  0.4581580000000  0.4206100000000  0.4687840000000 1.0
C      1  0.5416150000000  0.5793570000000  0.4688950000000 1.0
C      1  0.5192320000000  0.4974400000000  0.5799000000000 1.0
C      1  0.5805310000000  0.5191630000000  0.4977180000000 1.0
C      1  0.4976840000000  0.5804940000000  0.5191510000000 1.0
C      1  0.4809860000000  0.5013250000000  0.5801200000000 1.0
C      1  0.4808100000000  0.4981960000000  0.4196810000000 1.0
C      1  0.5192040000000  0.5017500000000  0.4196940000000 1.0
C      1  0.4197520000000  0.4809580000000  0.4978660000000 1.0
C      1  0.4199750000000  0.5191000000000  0.5020260000000 1.0
C      1  0.5800870000000  0.4809530000000  0.5020210000000 1.0
C      1  0.5016540000000  0.4189900000000  0.5191120000000 1.0
C      1  0.5023790000000  0.5807490000000  0.4809160000000 1.0
C      1  0.4974150000000  0.4195430000000  0.4808150000000 1.0
C      1  0.4978400000000  0.5180620000000  0.5798560000000 1.0
C      1  0.5192660000000  0.5807010000000  0.4979360000000 1.0
C      1  0.5806220000000  0.4980370000000  0.5189770000000 1.0
C      1  0.5022740000000  0.4801180000000  0.5799620000000 1.0
C      1  0.4978120000000  0.4811310000000  0.4197850000000 1.0
C      1  0.5021910000000  0.5188210000000  0.4197280000000 1.0
C      1  0.4802140000000  0.4189520000000  0.4979720000000 1.0
C      1  0.5183550000000  0.4197590000000  0.5021760000000 1.0
C      1  0.4808070000000  0.5806520000000  0.5021080000000 1.0
C      1  0.4200790000000  0.5021440000000  0.5190620000000 1.0
C      1  0.5798710000000  0.5022140000000  0.4806340000000 1.0
C      1  0.4200510000000  0.4978800000000  0.4808240000000 1.0
C      1  0.5037670000000  0.4569020000000  0.4772110000000 1.0
C      1  0.4783920000000  0.5036400000000  0.4570550000000 1.0
C      1  0.4568950000000  0.4774730000000  0.5038340000000 1.0
C      1  0.4960930000000  0.5433340000000  0.4768060000000 1.0
C      1  0.4961920000000  0.4563620000000  0.5219200000000 1.0
C      1  0.5041250000000  0.5430190000000  0.5230040000000 1.0
C      1  0.5215700000000  0.4963770000000  0.4570770000000 1.0
C      1  0.5223040000000  0.5035750000000  0.5427110000000 1.0
C      1  0.4783060000000  0.4958140000000  0.5427580000000 1.0
C      1  0.5432510000000  0.5226410000000  0.5036370000000 1.0
C      1  0.5427010000000  0.4770720000000  0.4956840000000 1.0
C      1  0.4571660000000  0.5223590000000  0.4959200000000 1.0
C      1  0.4574650000000  0.5035950000000  0.4771430000000 1.0
C      1  0.5023020000000  0.4780580000000  0.4573690000000 1.0
C      1  0.4769030000000  0.4561930000000  0.5044460000000 1.0
C      1  0.5424900000000  0.4962900000000  0.4770990000000 1.0
C      1  0.4574440000000  0.4962060000000  0.5226490000000 1.0
C      1  0.5433890000000  0.5044080000000  0.5223520000000 1.0
C      1  0.4977060000000  0.5219310000000  0.4572860000000 1.0
C      1  0.5024210000000  0.5212970000000  0.5423270000000 1.0
C      1  0.4964830000000  0.4764920000000  0.5426170000000 1.0
C      1  0.5226390000000  0.5434860000000  0.5043380000000 1.0
C      1  0.4775190000000  0.5434630000000  0.4953820000000 1.0
C      1  0.5213530000000  0.4573100000000  0.4974310000000 1.0
C      1  0.5549260000000  0.4841420000000  0.4347220000000 1.0
C      1  0.4346930000000  0.5555450000000  0.4841150000000 1.0
C      1  0.4843340000000  0.4341710000000  0.5550890000000 1.0
C      1  0.4451380000000  0.5158510000000  0.4347460000000 1.0
C      1  0.4450090000000  0.4839930000000  0.5651990000000 1.0
C      1  0.5553490000000  0.5157340000000  0.5652480000000 1.0
C      1  0.5650140000000  0.4449010000000  0.4845930000000 1.0
C      1  0.5655010000000  0.5555920000000  0.5157140000000 1.0
C      1  0.4343310000000  0.4443850000000  0.5157710000000 1.0
C      1  0.5152010000000  0.5650800000000  0.5550160000000 1.0
C      1  0.5151220000000  0.4346310000000  0.4450760000000 1.0
C      1  0.4849190000000  0.5654940000000  0.4448830000000 1.0
C      1  0.4850350000000  0.5548850000000  0.4353310000000 1.0
C      1  0.5544180000000  0.4352900000000  0.4847980000000 1.0
C      1  0.4348340000000  0.4841120000000  0.5551540000000 1.0
C      1  0.5149730000000  0.4451710000000  0.4354530000000 1.0
C      1  0.4843810000000  0.4441940000000  0.5652490000000 1.0
C      1  0.5150690000000  0.5543700000000  0.5644700000000 1.0
C      1  0.4446220000000  0.5659530000000  0.4840710000000 1.0
C      1  0.5555070000000  0.5659250000000  0.5158390000000 1.0
C      1  0.4441320000000  0.4338730000000  0.5158570000000 1.0
C      1  0.5657200000000  0.5158470000000  0.5552990000000 1.0
C      1  0.4349410000000  0.5157880000000  0.4447590000000 1.0
C      1  0.5651350000000  0.4842260000000  0.4447260000000 1.0
C      1  0.5099420000000  0.5296390000000  0.5198840000000 1.0
C      1  0.5197930000000  0.5096120000000  0.5293300000000 1.0
C      1  0.5298540000000  0.5200800000000  0.5096690000000 1.0
C      1  0.4901170000000  0.4696530000000  0.5195610000000 1.0
C      1  0.4903290000000  0.5299080000000  0.4798200000000 1.0
C      1  0.5094470000000  0.4703310000000  0.4801810000000 1.0
C      1  0.4805820000000  0.4896600000000  0.5294920000000 1.0
C      1  0.4807650000000  0.5097840000000  0.4703190000000 1.0
C      1  0.5191900000000  0.4902350000000  0.4703520000000 1.0
C      1  0.4702860000000  0.4798460000000  0.5097670000000 1.0
C      1  0.4705490000000  0.5199100000000  0.4899280000000 1.0
C      1  0.5292960000000  0.4800430000000  0.4899570000000 1.0
C      1  0.5298760000000  0.5100410000000  0.5196830000000 1.0
C      1  0.5094830000000  0.5193280000000  0.5292390000000 1.0
C      1  0.5200400000000  0.5299580000000  0.5099260000000 1.0
C      1  0.4706340000000  0.4898890000000  0.5197880000000 1.0
C      1  0.5292500000000  0.4901170000000  0.4799280000000 1.0
C      1  0.4707360000000  0.5098020000000  0.4799580000000 1.0
C      1  0.4904070000000  0.4794280000000  0.5293800000000 1.0
C      1  0.5091290000000  0.4802990000000  0.4704900000000 1.0
C      1  0.4908260000000  0.5197430000000  0.4703730000000 1.0
C      1  0.4797970000000  0.4696960000000  0.5099010000000 1.0
C      1  0.5192640000000  0.4704140000000  0.4903770000000 1.0
C      1  0.4801890000000  0.5299820000000  0.4897120000000 1.0
C      1  0.5276860000000  0.5685930000000  0.5488020000000 1.0
C      1  0.5486230000000  0.5279720000000  0.5683970000000 1.0
C      1  0.5687360000000  0.5490100000000  0.5279940000000 1.0
C      1  0.4718090000000  0.4307940000000  0.5488850000000 1.0
C      1  0.4724220000000  0.5689180000000  0.4511530000000 1.0
C      1  0.5275850000000  0.4313570000000  0.4514870000000 1.0
C      1  0.4512450000000  0.4715400000000  0.5686030000000 1.0
C      1  0.4515030000000  0.5282870000000  0.4314320000000 1.0
C      1  0.5485430000000  0.4717140000000  0.4314580000000 1.0
C      1  0.4311870000000  0.4510300000000  0.5280450000000 1.0
C      1  0.4315070000000  0.5489420000000  0.4718540000000 1.0
C      1  0.5684010000000  0.4511980000000  0.4721640000000 1.0
C      1  0.5688160000000  0.5281760000000  0.5487040000000 1.0
C      1  0.5275620000000  0.5483520000000  0.5680910000000 1.0
C      1  0.5487980000000  0.5689820000000  0.5281390000000 1.0
C      1  0.4314070000000  0.4717740000000  0.5487650000000 1.0
C      1  0.5684740000000  0.4718610000000  0.4511660000000 1.0
C      1  0.4316010000000  0.5281680000000  0.4511520000000 1.0
C      1  0.4719630000000  0.4506000000000  0.5685810000000 1.0
C      1  0.5275000000000  0.4511740000000  0.4318440000000 1.0
C      1  0.4725080000000  0.5488710000000  0.4317230000000 1.0
C      1  0.4507620000000  0.4307250000000  0.5281800000000 1.0
C      1  0.5483270000000  0.4316120000000  0.4723720000000 1.0
C      1  0.4513140000000  0.5691120000000  0.4718100000000 1.0
C      1  0.5381000000000  0.4218080000000  0.5174320000000 1.0
C      1  0.5177410000000  0.5382870000000  0.4218130000000 1.0
C      1  0.4215090000000  0.5174460000000  0.5388550000000 1.0
C      1  0.4608660000000  0.5801260000000  0.5172310000000 1.0
C      1  0.4604780000000  0.4195500000000  0.4826860000000 1.0
C      1  0.5392080000000  0.5803470000000  0.4827960000000 1.0
C      1  0.4822660000000  0.4616680000000  0.4219520000000 1.0
C      1  0.4824740000000  0.5377780000000  0.5779140000000 1.0
C      1  0.5177870000000  0.4605780000000  0.5786310000000 1.0
C      1  0.5800410000000  0.4828190000000  0.5388770000000 1.0
C      1  0.5786020000000  0.5175420000000  0.4609060000000 1.0
C      1  0.4214060000000  0.4825520000000  0.4610320000000 1.0
C      1  0.4209130000000  0.5389300000000  0.5173250000000 1.0
C      1  0.5388060000000  0.5171530000000  0.4204990000000 1.0
C      1  0.5172730000000  0.4202820000000  0.5387350000000 1.0
C      1  0.5792560000000  0.4612170000000  0.5174210000000 1.0
C      1  0.4207010000000  0.4610800000000  0.4825490000000 1.0
C      1  0.5792160000000  0.5390600000000  0.4824150000000 1.0
C      1  0.4612010000000  0.4827840000000  0.4205730000000 1.0
C      1  0.5390850000000  0.4823160000000  0.5791220000000 1.0
C      1  0.4613080000000  0.5167940000000  0.5792820000000 1.0
C      1  0.4822410000000  0.5792570000000  0.5389130000000 1.0
C      1  0.5178400000000  0.5795800000000  0.4611160000000 1.0
C      1  0.4820450000000  0.4203710000000  0.4611510000000 1.0
C      1  0.5458300000000  0.5658250000000  0.4654200000000 1.0
C      1  0.4644620000000  0.5448150000000  0.5645030000000 1.0
C      1  0.5655190000000  0.4654390000000  0.5454550000000 1.0
C      1  0.4540800000000  0.4342160000000  0.4654070000000 1.0
C      1  0.4543340000000  0.5654290000000  0.5344460000000 1.0
C      1  0.5451970000000  0.4352740000000  0.5354020000000 1.0
C      1  0.5353720000000  0.4545520000000  0.5640760000000 1.0
C      1  0.5357610000000  0.5451750000000  0.4353010000000 1.0
C      1  0.4642530000000  0.4547900000000  0.4354640000000 1.0
C      1  0.4360490000000  0.5350560000000  0.5450730000000 1.0
C      1  0.4358040000000  0.4648000000000  0.4547690000000 1.0
C      1  0.5640880000000  0.5352080000000  0.4546960000000 1.0
C      1  0.5646370000000  0.5456860000000  0.4649780000000 1.0
C      1  0.5456200000000  0.4650620000000  0.5644730000000 1.0
C      1  0.4645190000000  0.5648960000000  0.5448870000000 1.0
C      1  0.4352350000000  0.4543900000000  0.4651140000000 1.0
C      1  0.5650170000000  0.4550740000000  0.5351840000000 1.0
C      1  0.4355520000000  0.5454150000000  0.5346770000000 1.0
C      1  0.4546020000000  0.5342340000000  0.5650880000000 1.0
C      1  0.5455580000000  0.5345170000000  0.4347410000000 1.0
C      1  0.4544400000000  0.4654320000000  0.4348520000000 1.0
C      1  0.5347380000000  0.4345670000000  0.5453910000000 1.0
C      1  0.4644030000000  0.4347250000000  0.4550900000000 1.0
C      1  0.5356580000000  0.5653360000000  0.4549590000000 1.0
C      1  0.5072690000000  0.4570150000000  0.5310630000000 1.0
C      1  0.5310360000000  0.5072450000000  0.4576000000000 1.0
C      1  0.4570130000000  0.5335150000000  0.5050850000000 1.0
C      1  0.4947940000000  0.5426230000000  0.5341960000000 1.0
C      1  0.4946060000000  0.4569980000000  0.4658670000000 1.0
C      1  0.5054220000000  0.5431020000000  0.4656110000000 1.0
C      1  0.4689330000000  0.4927510000000  0.4575970000000 1.0
C      1  0.4690420000000  0.5068810000000  0.5422210000000 1.0
C      1  0.5335890000000  0.4945880000000  0.5428880000000 1.0
C      1  0.5425310000000  0.4657700000000  0.5049770000000 1.0
C      1  0.5432510000000  0.5337910000000  0.4945080000000 1.0
C      1  0.4565890000000  0.4662960000000  0.4946870000000 1.0
C      1  0.4581910000000  0.5058300000000  0.5335460000000 1.0
C      1  0.5086750000000  0.5313990000000  0.4585360000000 1.0
C      1  0.5308790000000  0.4586060000000  0.5083930000000 1.0
C      1  0.5438450000000  0.4954840000000  0.5336830000000 1.0
C      1  0.4581080000000  0.4939130000000  0.4662880000000 1.0
C      1  0.5418430000000  0.5060720000000  0.4663080000000 1.0
C      1  0.4913090000000  0.4686240000000  0.4586560000000 1.0
C      1  0.5060820000000  0.4656070000000  0.5419550000000 1.0
C      1  0.4914600000000  0.5308140000000  0.5411070000000 1.0
C      1  0.4661730000000  0.5438300000000  0.5042810000000 1.0
C      1  0.5339950000000  0.5440010000000  0.4954460000000 1.0
C      1  0.4655600000000  0.4558300000000  0.4956060000000 1.0
C      1  0.5451370000000  0.4738570000000  0.5257760000000 1.0
C      1  0.4691040000000  0.5345570000000  0.5333420000000 1.0
C      1  0.5423180000000  0.5288700000000  0.4713100000000 1.0
C      1  0.4740790000000  0.5451550000000  0.5259640000000 1.0
C      1  0.5286550000000  0.4711720000000  0.5421330000000 1.0
C      1  0.5310480000000  0.5349260000000  0.4664000000000 1.0
C      1  0.5346600000000  0.4663180000000  0.5308050000000 1.0
C      1  0.5260920000000  0.5455160000000  0.4738100000000 1.0
C      1  0.4578400000000  0.5285180000000  0.5283860000000 1.0
C      1  0.4576130000000  0.4712190000000  0.4714370000000 1.0
C      1  0.4737560000000  0.4545420000000  0.4739860000000 1.0
C      1  0.4688670000000  0.4651170000000  0.4665230000000 1.0
END
