TITL C-1379268-1316-351 4.65224401727814e-07 1000000 -1346.23899054619 0 0 180 (Oh) n - 1
REM
REM in /nfs/bkarasulu/CARBON/AIRSS/Generating-Clusters/GAP-ML-2020/Higher-Symm/Selected-Sizes/TryA-Only_Ih-Symm/Larger-Clusters/Try2-MINAMP_6A
REM
REM
REM
REM
REM
REM ./C.cell (31579ac4e95a012ec27f3239692ae8a5)
REM
REM compiler GCC version 9.2.1 20190827 (Red Hat 9.2.1-1)
REM options -cpp -mtune=generic -march=x86-64 -g -O0 -fpre-include=/usr/include/finclude/math-vector-fortran.h
REM seed -853724177 961725448 -1294334089 1916592122 424534866 -1608235142 -239992941 1758883158 -1233424281 -1177373362 1890898245 -2048220039 -215301806 1593466003 -1371839672 -933448846 2119580373 -2042931922 57736258 1592428991 196118796 1315834362 -963024662 -1231758403 -358574919 -1175655519 1887990598 -762156916 -2112494489 658681726 -2042703461 -1525789804 -64367819
REM
CELL 1.54180  100.00000  100.00000  100.00000   90.00000   90.00000   90.00000
LATT -1
SFAC C  
C      1  0.5232630000000  0.4665240000000  0.5437070000000 1.0
C      1  0.4665240000000  0.5437070000000  0.5232630000000 1.0
C      1  0.5437070000000  0.5232630000000  0.4665240000000 1.0
C      1  0.5232630000000  0.5334760000000  0.4562930000000 1.0
C      1  0.4767370000000  0.4665240000000  0.4562930000000 1.0
C      1  0.4767370000000  0.5334760000000  0.5437070000000 1.0
C      1  0.4665240000000  0.4562930000000  0.4767370000000 1.0
C      1  0.5334760000000  0.5437070000000  0.4767370000000 1.0
C      1  0.5334760000000  0.4562930000000  0.5232630000000 1.0
C      1  0.5437070000000  0.4767370000000  0.5334760000000 1.0
C      1  0.4562930000000  0.5232630000000  0.5334760000000 1.0
C      1  0.4562930000000  0.4767370000000  0.4665240000000 1.0
C      1  0.5232630000000  0.5437070000000  0.4665240000000 1.0
C      1  0.4665240000000  0.5232630000000  0.5437070000000 1.0
C      1  0.5437070000000  0.4665240000000  0.5232630000000 1.0
C      1  0.5232630000000  0.4562930000000  0.5334760000000 1.0
C      1  0.4767370000000  0.4562930000000  0.4665240000000 1.0
C      1  0.4767370000000  0.5437070000000  0.5334760000000 1.0
C      1  0.4665240000000  0.4767370000000  0.4562930000000 1.0
C      1  0.5334760000000  0.4767370000000  0.5437070000000 1.0
C      1  0.5334760000000  0.5232630000000  0.4562930000000 1.0
C      1  0.5437070000000  0.5334760000000  0.4767370000000 1.0
C      1  0.4562930000000  0.5334760000000  0.5232630000000 1.0
C      1  0.4562930000000  0.4665240000000  0.4767370000000 1.0
C      1  0.4562930000000  0.4665240000000  0.5232630000000 1.0
C      1  0.4665240000000  0.5232630000000  0.4562930000000 1.0
C      1  0.5232630000000  0.4562930000000  0.4665240000000 1.0
C      1  0.4562930000000  0.5334760000000  0.4767370000000 1.0
C      1  0.5437070000000  0.4665240000000  0.4767370000000 1.0
C      1  0.5437070000000  0.5334760000000  0.5232630000000 1.0
C      1  0.4665240000000  0.4767370000000  0.5437070000000 1.0
C      1  0.5334760000000  0.5232630000000  0.5437070000000 1.0
C      1  0.5334760000000  0.4767370000000  0.4562930000000 1.0
C      1  0.5232630000000  0.5437070000000  0.5334760000000 1.0
C      1  0.4767370000000  0.4562930000000  0.5334760000000 1.0
C      1  0.4767370000000  0.5437070000000  0.4665240000000 1.0
C      1  0.4562930000000  0.5232630000000  0.4665240000000 1.0
C      1  0.4665240000000  0.4562930000000  0.5232630000000 1.0
C      1  0.5232630000000  0.4665240000000  0.4562930000000 1.0
C      1  0.4562930000000  0.4767370000000  0.5334760000000 1.0
C      1  0.5437070000000  0.4767370000000  0.4665240000000 1.0
C      1  0.5437070000000  0.5232630000000  0.5334760000000 1.0
C      1  0.4665240000000  0.5437070000000  0.4767370000000 1.0
C      1  0.5334760000000  0.5437070000000  0.5232630000000 1.0
C      1  0.5334760000000  0.4562930000000  0.4767370000000 1.0
C      1  0.5232630000000  0.5334760000000  0.5437070000000 1.0
C      1  0.4767370000000  0.5334760000000  0.4562930000000 1.0
C      1  0.4767370000000  0.4665240000000  0.5437070000000 1.0
C      1  0.4695410000000  0.4489280000000  0.4884290000000 1.0
C      1  0.4489280000000  0.4884290000000  0.4695410000000 1.0
C      1  0.4884290000000  0.4695410000000  0.4489280000000 1.0
C      1  0.4695410000000  0.5510720000000  0.5115710000000 1.0
C      1  0.5304590000000  0.4489280000000  0.5115710000000 1.0
C      1  0.5304590000000  0.5510720000000  0.4884290000000 1.0
C      1  0.4489280000000  0.5115710000000  0.5304590000000 1.0
C      1  0.5510720000000  0.4884290000000  0.5304590000000 1.0
C      1  0.5510720000000  0.5115710000000  0.4695410000000 1.0
C      1  0.4884290000000  0.5304590000000  0.5510720000000 1.0
C      1  0.5115710000000  0.4695410000000  0.5510720000000 1.0
C      1  0.5115710000000  0.5304590000000  0.4489280000000 1.0
C      1  0.4695410000000  0.4884290000000  0.4489280000000 1.0
C      1  0.4489280000000  0.4695410000000  0.4884290000000 1.0
C      1  0.4884290000000  0.4489280000000  0.4695410000000 1.0
C      1  0.4695410000000  0.5115710000000  0.5510720000000 1.0
C      1  0.5304590000000  0.5115710000000  0.4489280000000 1.0
C      1  0.5304590000000  0.4884290000000  0.5510720000000 1.0
C      1  0.4489280000000  0.5304590000000  0.5115710000000 1.0
C      1  0.5510720000000  0.5304590000000  0.4884290000000 1.0
C      1  0.5510720000000  0.4695410000000  0.5115710000000 1.0
C      1  0.4884290000000  0.5510720000000  0.5304590000000 1.0
C      1  0.5115710000000  0.5510720000000  0.4695410000000 1.0
C      1  0.5115710000000  0.4489280000000  0.5304590000000 1.0
C      1  0.4884280000000  0.4695410000000  0.5510720000000 1.0
C      1  0.4695410000000  0.5510720000000  0.4884280000000 1.0
C      1  0.5510720000000  0.4884280000000  0.4695410000000 1.0
C      1  0.4884280000000  0.5304590000000  0.4489280000000 1.0
C      1  0.5115720000000  0.4695410000000  0.4489280000000 1.0
C      1  0.5115720000000  0.5304590000000  0.5510720000000 1.0
C      1  0.4695410000000  0.4489280000000  0.5115720000000 1.0
C      1  0.5304590000000  0.5510720000000  0.5115720000000 1.0
C      1  0.5304590000000  0.4489280000000  0.4884280000000 1.0
C      1  0.5510720000000  0.5115720000000  0.5304590000000 1.0
C      1  0.4489280000000  0.4884280000000  0.5304590000000 1.0
C      1  0.4489280000000  0.5115720000000  0.4695410000000 1.0
C      1  0.4884280000000  0.5510720000000  0.4695410000000 1.0
C      1  0.4695410000000  0.4884280000000  0.5510720000000 1.0
C      1  0.5510720000000  0.4695410000000  0.4884280000000 1.0
C      1  0.4884280000000  0.4489280000000  0.5304590000000 1.0
C      1  0.5115720000000  0.4489280000000  0.4695410000000 1.0
C      1  0.5115720000000  0.5510720000000  0.5304590000000 1.0
C      1  0.4695410000000  0.5115720000000  0.4489280000000 1.0
C      1  0.5304590000000  0.5115720000000  0.5510720000000 1.0
C      1  0.5304590000000  0.4884280000000  0.4489280000000 1.0
C      1  0.5510720000000  0.5304590000000  0.5115720000000 1.0
C      1  0.4489280000000  0.5304590000000  0.4884280000000 1.0
C      1  0.4489280000000  0.4695410000000  0.5115720000000 1.0
C      1  0.5171320000000  0.4460390000000  0.5073120000000 1.0
C      1  0.4460390000000  0.5073120000000  0.5171320000000 1.0
C      1  0.5073120000000  0.5171320000000  0.4460390000000 1.0
C      1  0.5171320000000  0.5539610000000  0.4926880000000 1.0
C      1  0.4828680000000  0.4460390000000  0.4926880000000 1.0
C      1  0.4828680000000  0.5539610000000  0.5073120000000 1.0
C      1  0.4460390000000  0.4926880000000  0.4828680000000 1.0
C      1  0.5539610000000  0.5073120000000  0.4828680000000 1.0
C      1  0.5539610000000  0.4926880000000  0.5171320000000 1.0
C      1  0.5073120000000  0.4828680000000  0.5539610000000 1.0
C      1  0.4926880000000  0.5171320000000  0.5539610000000 1.0
C      1  0.4926880000000  0.4828680000000  0.4460390000000 1.0
C      1  0.5171320000000  0.5073120000000  0.4460390000000 1.0
C      1  0.4460390000000  0.5171320000000  0.5073120000000 1.0
C      1  0.5073120000000  0.4460390000000  0.5171320000000 1.0
C      1  0.5171320000000  0.4926880000000  0.5539610000000 1.0
C      1  0.4828680000000  0.4926880000000  0.4460390000000 1.0
C      1  0.4828680000000  0.5073120000000  0.5539610000000 1.0
C      1  0.4460390000000  0.4828680000000  0.4926880000000 1.0
C      1  0.5539610000000  0.4828680000000  0.5073120000000 1.0
C      1  0.5539610000000  0.5171320000000  0.4926880000000 1.0
C      1  0.5073120000000  0.5539610000000  0.4828680000000 1.0
C      1  0.4926880000000  0.5539610000000  0.5171320000000 1.0
C      1  0.4926880000000  0.4460390000000  0.4828680000000 1.0
C      1  0.5000000000000  0.4610570000000  0.5518900000000 1.0
C      1  0.4610570000000  0.5518900000000  0.5000000000000 1.0
C      1  0.5518900000000  0.5000000000000  0.4610570000000 1.0
C      1  0.5000000000000  0.5389430000000  0.4481100000000 1.0
C      1  0.5000000000000  0.4610570000000  0.4481100000000 1.0
C      1  0.5000000000000  0.5389430000000  0.5518900000000 1.0
C      1  0.4610570000000  0.4481100000000  0.5000000000000 1.0
C      1  0.5389430000000  0.5518900000000  0.5000000000000 1.0
C      1  0.5389430000000  0.4481100000000  0.5000000000000 1.0
C      1  0.5518900000000  0.5000000000000  0.5389430000000 1.0
C      1  0.4481100000000  0.5000000000000  0.5389430000000 1.0
C      1  0.4481100000000  0.5000000000000  0.4610570000000 1.0
C      1  0.5000000000000  0.5518900000000  0.4610570000000 1.0
C      1  0.4610570000000  0.5000000000000  0.5518900000000 1.0
C      1  0.5518900000000  0.4610570000000  0.5000000000000 1.0
C      1  0.5000000000000  0.4481100000000  0.5389430000000 1.0
C      1  0.5000000000000  0.4481100000000  0.4610570000000 1.0
C      1  0.5000000000000  0.5518900000000  0.5389430000000 1.0
C      1  0.4610570000000  0.5000000000000  0.4481100000000 1.0
C      1  0.5389430000000  0.5000000000000  0.5518900000000 1.0
C      1  0.5389430000000  0.5000000000000  0.4481100000000 1.0
C      1  0.5518900000000  0.5389430000000  0.5000000000000 1.0
C      1  0.4481100000000  0.5389430000000  0.5000000000000 1.0
C      1  0.4481100000000  0.4610570000000  0.5000000000000 1.0
C      1  0.4828680000000  0.4926880000000  0.5539610000000 1.0
C      1  0.4926880000000  0.5539610000000  0.4828680000000 1.0
C      1  0.5539610000000  0.4828680000000  0.4926880000000 1.0
C      1  0.4828680000000  0.5073120000000  0.4460390000000 1.0
C      1  0.5171320000000  0.4926880000000  0.4460390000000 1.0
C      1  0.5171320000000  0.5073120000000  0.5539610000000 1.0
C      1  0.4926880000000  0.4460390000000  0.5171320000000 1.0
C      1  0.5073120000000  0.5539610000000  0.5171320000000 1.0
C      1  0.5073120000000  0.4460390000000  0.4828680000000 1.0
C      1  0.5539610000000  0.5171320000000  0.5073120000000 1.0
C      1  0.4460390000000  0.4828680000000  0.5073120000000 1.0
C      1  0.4460390000000  0.5171320000000  0.4926880000000 1.0
C      1  0.4828680000000  0.5539610000000  0.4926880000000 1.0
C      1  0.4926880000000  0.4828680000000  0.5539610000000 1.0
C      1  0.5539610000000  0.4926880000000  0.4828680000000 1.0
C      1  0.4828680000000  0.4460390000000  0.5073120000000 1.0
C      1  0.5171320000000  0.4460390000000  0.4926880000000 1.0
C      1  0.5171320000000  0.5539610000000  0.5073120000000 1.0
C      1  0.4926880000000  0.5171320000000  0.4460390000000 1.0
C      1  0.5073120000000  0.5171320000000  0.5539610000000 1.0
C      1  0.5073120000000  0.4828680000000  0.4460390000000 1.0
C      1  0.5539610000000  0.5073120000000  0.5171320000000 1.0
C      1  0.4460390000000  0.5073120000000  0.4828680000000 1.0
C      1  0.4460390000000  0.4926880000000  0.5171320000000 1.0
C      1  0.4471800000000  0.5528200000000  0.5000000000000 1.0
C      1  0.5528200000000  0.5000000000000  0.4471800000000 1.0
C      1  0.5000000000000  0.4471800000000  0.5528200000000 1.0
C      1  0.5528200000000  0.4471800000000  0.5000000000000 1.0
C      1  0.5528200000000  0.5000000000000  0.5528200000000 1.0
C      1  0.4471800000000  0.5000000000000  0.5528200000000 1.0
C      1  0.4471800000000  0.5000000000000  0.4471800000000 1.0
C      1  0.5000000000000  0.5528200000000  0.4471800000000 1.0
C      1  0.5000000000000  0.4471800000000  0.4471800000000 1.0
C      1  0.5528200000000  0.5528200000000  0.5000000000000 1.0
C      1  0.4471800000000  0.4471800000000  0.5000000000000 1.0
C      1  0.5000000000000  0.5528200000000  0.5528200000000 1.0
END
