TITL C-1379266-1300-383 -1.56767778530232e-07 1000000 -1754.62567829458 0 0 260 (Th) n - 1
REM
REM in /nfs/bkarasulu/CARBON/AIRSS/Generating-Clusters/GAP-ML-2020/Higher-Symm/Selected-Sizes/TryA-Only_Ih-Symm/Larger-Clusters/Try2-MINAMP_6A
REM
REM
REM
REM
REM
REM ./C.cell (31579ac4e95a012ec27f3239692ae8a5)
REM
REM compiler GCC version 9.2.1 20190827 (Red Hat 9.2.1-1)
REM options -cpp -mtune=generic -march=x86-64 -g -O0 -fpre-include=/usr/include/finclude/math-vector-fortran.h
REM seed 1405413069 39985684 -456782184 2123354251 1878145547 1429855154 -458611010 545330370 -961386435 685949326 -848762552 -166695518 -1531770099 635110770 1433426291 -1067857070 -506171658 720453253 1085156050 416016152 -91735308 -679872048 863874239 776713310 -462281210 1568860518 561991881 295498858 1869383287 564560014 535013105 -1052032205 989211224
REM
CELL 1.54180  100.00000  100.00000  100.00000   90.00000   90.00000   90.00000
LATT -1
SFAC C  
C      1  0.4358240000000  0.5378380000000  0.5300770000000 1.0
C      1  0.5301540000000  0.4357670000000  0.5378190000000 1.0
C      1  0.5378950000000  0.5300970000000  0.4357480000000 1.0
C      1  0.5641370000000  0.4620090000000  0.5300770000000 1.0
C      1  0.5641370000000  0.5378380000000  0.4697300000000 1.0
C      1  0.4358250000000  0.4620090000000  0.4697300000000 1.0
C      1  0.4698070000000  0.5640790000000  0.5378180000000 1.0
C      1  0.4698070000000  0.4357670000000  0.4619900000000 1.0
C      1  0.5301540000000  0.5640800000000  0.4619890000000 1.0
C      1  0.4620660000000  0.4697500000000  0.4357470000000 1.0
C      1  0.4620660000000  0.5300970000000  0.5640600000000 1.0
C      1  0.5378950000000  0.4697500000000  0.5640600000000 1.0
C      1  0.4358240000000  0.5378380000000  0.4697300000000 1.0
C      1  0.5301540000000  0.4357670000000  0.4619890000000 1.0
C      1  0.5378950000000  0.5300970000000  0.5640600000000 1.0
C      1  0.5641370000000  0.4620090000000  0.4697300000000 1.0
C      1  0.5641370000000  0.5378380000000  0.5300770000000 1.0
C      1  0.4358240000000  0.4620090000000  0.5300770000000 1.0
C      1  0.4698070000000  0.5640790000000  0.4619900000000 1.0
C      1  0.4698070000000  0.4357670000000  0.5378180000000 1.0
C      1  0.5301540000000  0.5640790000000  0.5378190000000 1.0
C      1  0.4620660000000  0.4697500000000  0.5640600000000 1.0
C      1  0.4620660000000  0.5300970000000  0.4357470000000 1.0
C      1  0.5378950000000  0.4697500000000  0.4357480000000 1.0
C      1  0.4701550000000  0.4661710000000  0.5212670000000 1.0
C      1  0.5213440000000  0.4700970000000  0.4661510000000 1.0
C      1  0.4662280000000  0.5212870000000  0.4700780000000 1.0
C      1  0.5298060000000  0.5336770000000  0.5212670000000 1.0
C      1  0.5298060000000  0.4661700000000  0.4785400000000 1.0
C      1  0.4701550000000  0.5336760000000  0.4785400000000 1.0
C      1  0.4786170000000  0.5297490000000  0.4661510000000 1.0
C      1  0.4786170000000  0.4700980000000  0.5336570000000 1.0
C      1  0.5213440000000  0.5297490000000  0.5336560000000 1.0
C      1  0.5337330000000  0.4785600000000  0.4700780000000 1.0
C      1  0.5337330000000  0.5212870000000  0.5297290000000 1.0
C      1  0.4662280000000  0.4785600000000  0.5297300000000 1.0
C      1  0.4701550000000  0.4661710000000  0.4785400000000 1.0
C      1  0.5213440000000  0.4700970000000  0.5336560000000 1.0
C      1  0.4662280000000  0.5212870000000  0.5297300000000 1.0
C      1  0.5298060000000  0.5336770000000  0.4785400000000 1.0
C      1  0.5298060000000  0.4661700000000  0.5212670000000 1.0
C      1  0.4701550000000  0.5336760000000  0.5212670000000 1.0
C      1  0.4786170000000  0.5297490000000  0.5336570000000 1.0
C      1  0.4786170000000  0.4700980000000  0.4661510000000 1.0
C      1  0.5213440000000  0.5297490000000  0.4661510000000 1.0
C      1  0.5337330000000  0.4785600000000  0.5297290000000 1.0
C      1  0.5337330000000  0.5212870000000  0.4700780000000 1.0
C      1  0.4662280000000  0.4785600000000  0.4700780000000 1.0
C      1  0.4620000000000  0.5497340000000  0.5104210000000 1.0
C      1  0.5104970000000  0.4619420000000  0.5497140000000 1.0
C      1  0.5497910000000  0.5104400000000  0.4619240000000 1.0
C      1  0.5379620000000  0.4501120000000  0.5104210000000 1.0
C      1  0.5379620000000  0.5497340000000  0.4893870000000 1.0
C      1  0.4620000000000  0.4501130000000  0.4893870000000 1.0
C      1  0.4894640000000  0.5379040000000  0.5497150000000 1.0
C      1  0.4894640000000  0.4619420000000  0.4500930000000 1.0
C      1  0.5104970000000  0.5379050000000  0.4500930000000 1.0
C      1  0.4501700000000  0.4894070000000  0.4619230000000 1.0
C      1  0.4501700000000  0.5104400000000  0.5378850000000 1.0
C      1  0.5497910000000  0.4894070000000  0.5378840000000 1.0
C      1  0.4620000000000  0.5497340000000  0.4893870000000 1.0
C      1  0.5104970000000  0.4619420000000  0.4500930000000 1.0
C      1  0.5497910000000  0.5104400000000  0.5378840000000 1.0
C      1  0.5379620000000  0.4501120000000  0.4893870000000 1.0
C      1  0.5379620000000  0.5497340000000  0.5104210000000 1.0
C      1  0.4620000000000  0.4501130000000  0.5104210000000 1.0
C      1  0.4894640000000  0.5379040000000  0.4500930000000 1.0
C      1  0.4894640000000  0.4619430000000  0.5497150000000 1.0
C      1  0.5104970000000  0.5379040000000  0.5497140000000 1.0
C      1  0.4501700000000  0.4894070000000  0.5378850000000 1.0
C      1  0.4501700000000  0.5104400000000  0.4619230000000 1.0
C      1  0.5497910000000  0.4894070000000  0.4619240000000 1.0
C      1  0.5060740000000  0.4288780000000  0.4617860000000 1.0
C      1  0.4618630000000  0.5060170000000  0.4288580000000 1.0
C      1  0.4289350000000  0.4618060000000  0.5059970000000 1.0
C      1  0.4938870000000  0.5709690000000  0.4617860000000 1.0
C      1  0.4938870000000  0.4288780000000  0.5380220000000 1.0
C      1  0.5060730000000  0.5709680000000  0.5380220000000 1.0
C      1  0.5380980000000  0.4938300000000  0.4288590000000 1.0
C      1  0.5380980000000  0.5060170000000  0.5709490000000 1.0
C      1  0.4618630000000  0.4938300000000  0.5709500000000 1.0
C      1  0.5710260000000  0.5380410000000  0.5059970000000 1.0
C      1  0.5710260000000  0.4618060000000  0.4938110000000 1.0
C      1  0.4289350000000  0.5380410000000  0.4938100000000 1.0
C      1  0.5060730000000  0.4288780000000  0.5380220000000 1.0
C      1  0.4618630000000  0.5060170000000  0.5709500000000 1.0
C      1  0.4289350000000  0.4618060000000  0.4938100000000 1.0
C      1  0.4938870000000  0.5709680000000  0.5380220000000 1.0
C      1  0.4938870000000  0.4288780000000  0.4617860000000 1.0
C      1  0.5060740000000  0.5709690000000  0.4617860000000 1.0
C      1  0.5380980000000  0.4938300000000  0.5709490000000 1.0
C      1  0.5380980000000  0.5060170000000  0.4288590000000 1.0
C      1  0.4618630000000  0.4938300000000  0.4288580000000 1.0
C      1  0.5710260000000  0.5380410000000  0.4938110000000 1.0
C      1  0.5710260000000  0.4618060000000  0.5059970000000 1.0
C      1  0.4289350000000  0.5380410000000  0.5059970000000 1.0
C      1  0.5311690000000  0.4812930000000  0.5679770000000 1.0
C      1  0.5680550000000  0.5311110000000  0.4812740000000 1.0
C      1  0.4813500000000  0.5679970000000  0.5310920000000 1.0
C      1  0.4687920000000  0.5185530000000  0.5679780000000 1.0
C      1  0.4687920000000  0.4812930000000  0.4318290000000 1.0
C      1  0.5311690000000  0.5185530000000  0.4318300000000 1.0
C      1  0.4319070000000  0.4687350000000  0.4812740000000 1.0
C      1  0.4319070000000  0.5311120000000  0.5185340000000 1.0
C      1  0.5680550000000  0.4687350000000  0.5185340000000 1.0
C      1  0.5186100000000  0.4318500000000  0.5310920000000 1.0
C      1  0.5186100000000  0.5679970000000  0.4687150000000 1.0
C      1  0.4813500000000  0.4318490000000  0.4687160000000 1.0
C      1  0.5311690000000  0.4812930000000  0.4318300000000 1.0
C      1  0.5680550000000  0.5311110000000  0.5185340000000 1.0
C      1  0.4813500000000  0.5679970000000  0.4687160000000 1.0
C      1  0.4687920000000  0.5185530000000  0.4318290000000 1.0
C      1  0.4687920000000  0.4812930000000  0.5679780000000 1.0
C      1  0.5311690000000  0.5185530000000  0.5679770000000 1.0
C      1  0.4319070000000  0.4687350000000  0.5185340000000 1.0
C      1  0.4319070000000  0.5311110000000  0.4812740000000 1.0
C      1  0.5680550000000  0.4687350000000  0.4812740000000 1.0
C      1  0.5186100000000  0.4318490000000  0.4687150000000 1.0
C      1  0.5186100000000  0.5679970000000  0.5310920000000 1.0
C      1  0.4813500000000  0.4318500000000  0.5310920000000 1.0
C      1  0.4331690000000  0.5171620000000  0.4832260000000 1.0
C      1  0.4833030000000  0.4331120000000  0.5171430000000 1.0
C      1  0.5172190000000  0.4832460000000  0.4330930000000 1.0
C      1  0.5667910000000  0.4826850000000  0.4832270000000 1.0
C      1  0.5667910000000  0.5171620000000  0.5165810000000 1.0
C      1  0.4331700000000  0.4826840000000  0.5165810000000 1.0
C      1  0.5166580000000  0.5667340000000  0.5171430000000 1.0
C      1  0.5166580000000  0.4331120000000  0.4826650000000 1.0
C      1  0.4833030000000  0.5667340000000  0.4826650000000 1.0
C      1  0.4827420000000  0.5166010000000  0.4330920000000 1.0
C      1  0.4827420000000  0.4832460000000  0.5667150000000 1.0
C      1  0.5172190000000  0.5166010000000  0.5667140000000 1.0
C      1  0.4331700000000  0.5171620000000  0.5165810000000 1.0
C      1  0.4833030000000  0.4331120000000  0.4826650000000 1.0
C      1  0.5172190000000  0.4832460000000  0.5667140000000 1.0
C      1  0.5667910000000  0.4826850000000  0.5165810000000 1.0
C      1  0.5667910000000  0.5171620000000  0.4832270000000 1.0
C      1  0.4331690000000  0.4826850000000  0.4832260000000 1.0
C      1  0.5166580000000  0.5667340000000  0.4826650000000 1.0
C      1  0.5166580000000  0.4331130000000  0.5171430000000 1.0
C      1  0.4833030000000  0.5667340000000  0.5171420000000 1.0
C      1  0.4827420000000  0.5166010000000  0.5667150000000 1.0
C      1  0.4827420000000  0.4832460000000  0.4330920000000 1.0
C      1  0.5172190000000  0.5166010000000  0.4330930000000 1.0
C      1  0.4325810000000  0.4923960000000  0.5076030000000 1.0
C      1  0.5076790000000  0.4325240000000  0.4923760000000 1.0
C      1  0.4924530000000  0.5076220000000  0.4325050000000 1.0
C      1  0.5673800000000  0.5074510000000  0.5076030000000 1.0
C      1  0.5673800000000  0.4923960000000  0.4922050000000 1.0
C      1  0.4325810000000  0.5074510000000  0.4922050000000 1.0
C      1  0.4922820000000  0.5673220000000  0.4923760000000 1.0
C      1  0.4922820000000  0.4325240000000  0.5074310000000 1.0
C      1  0.5076790000000  0.5673220000000  0.5074310000000 1.0
C      1  0.5075080000000  0.4922250000000  0.4325050000000 1.0
C      1  0.5075080000000  0.5076220000000  0.5673030000000 1.0
C      1  0.4924530000000  0.4922250000000  0.5673030000000 1.0
C      1  0.4325810000000  0.4923960000000  0.4922050000000 1.0
C      1  0.5076790000000  0.4325240000000  0.5074310000000 1.0
C      1  0.4924530000000  0.5076220000000  0.5673030000000 1.0
C      1  0.5673800000000  0.5074510000000  0.4922050000000 1.0
C      1  0.5673800000000  0.4923960000000  0.5076030000000 1.0
C      1  0.4325810000000  0.5074510000000  0.5076030000000 1.0
C      1  0.4922820000000  0.5673220000000  0.5074310000000 1.0
C      1  0.4922820000000  0.4325240000000  0.4923760000000 1.0
C      1  0.5076790000000  0.5673220000000  0.4923760000000 1.0
C      1  0.5075080000000  0.4922250000000  0.5673030000000 1.0
C      1  0.5075080000000  0.5076220000000  0.4325050000000 1.0
C      1  0.4924530000000  0.4922250000000  0.4325050000000 1.0
C      1  0.5359760000000  0.5392840000000  0.5544330000000 1.0
C      1  0.5545100000000  0.5359190000000  0.5392640000000 1.0
C      1  0.5393410000000  0.5544530000000  0.5358990000000 1.0
C      1  0.4639850000000  0.4605630000000  0.5544340000000 1.0
C      1  0.4639850000000  0.5392840000000  0.4453740000000 1.0
C      1  0.5359760000000  0.4605630000000  0.4453740000000 1.0
C      1  0.4454510000000  0.4639280000000  0.5392640000000 1.0
C      1  0.4454510000000  0.5359180000000  0.4605430000000 1.0
C      1  0.5545100000000  0.4639280000000  0.4605440000000 1.0
C      1  0.4606200000000  0.4453940000000  0.5358990000000 1.0
C      1  0.4606200000000  0.5544530000000  0.4639090000000 1.0
C      1  0.5393410000000  0.4453930000000  0.4639080000000 1.0
C      1  0.5359760000000  0.5392840000000  0.4453740000000 1.0
C      1  0.5545100000000  0.5359190000000  0.4605440000000 1.0
C      1  0.5393410000000  0.5544530000000  0.4639080000000 1.0
C      1  0.4639850000000  0.4605630000000  0.4453740000000 1.0
C      1  0.4639850000000  0.5392840000000  0.5544340000000 1.0
C      1  0.5359760000000  0.4605630000000  0.5544330000000 1.0
C      1  0.4454510000000  0.4639280000000  0.4605430000000 1.0
C      1  0.4454510000000  0.5359180000000  0.5392640000000 1.0
C      1  0.5545100000000  0.4639280000000  0.5392640000000 1.0
C      1  0.4606200000000  0.4453940000000  0.4639090000000 1.0
C      1  0.4606200000000  0.5544530000000  0.5358990000000 1.0
C      1  0.5393410000000  0.4453930000000  0.5358990000000 1.0
C      1  0.5468200000000  0.5238370000000  0.5373870000000 1.0
C      1  0.5374640000000  0.5467640000000  0.5238180000000 1.0
C      1  0.5238940000000  0.5374070000000  0.5467440000000 1.0
C      1  0.4531400000000  0.4760100000000  0.5373870000000 1.0
C      1  0.4531410000000  0.5238370000000  0.4624210000000 1.0
C      1  0.5468200000000  0.4760100000000  0.4624210000000 1.0
C      1  0.4624970000000  0.4530840000000  0.5238170000000 1.0
C      1  0.4624980000000  0.5467630000000  0.4759900000000 1.0
C      1  0.5374640000000  0.4530830000000  0.4759900000000 1.0
C      1  0.4760670000000  0.4624410000000  0.5467440000000 1.0
C      1  0.4760670000000  0.5374060000000  0.4530640000000 1.0
C      1  0.5238940000000  0.4624400000000  0.4530640000000 1.0
C      1  0.5468200000000  0.5238370000000  0.4624210000000 1.0
C      1  0.5374640000000  0.5467640000000  0.4759900000000 1.0
C      1  0.5238940000000  0.5374070000000  0.4530640000000 1.0
C      1  0.4531410000000  0.4760100000000  0.4624210000000 1.0
C      1  0.4531400000000  0.5238370000000  0.5373870000000 1.0
C      1  0.5468200000000  0.4760100000000  0.5373870000000 1.0
C      1  0.4624980000000  0.4530840000000  0.4759900000000 1.0
C      1  0.4624970000000  0.5467630000000  0.5238170000000 1.0
C      1  0.5374640000000  0.4530830000000  0.5238180000000 1.0
C      1  0.4760670000000  0.4624410000000  0.4530630000000 1.0
C      1  0.4760670000000  0.5374060000000  0.5467440000000 1.0
C      1  0.5238940000000  0.4624400000000  0.5467440000000 1.0
C      1  0.4629500000000  0.4930970000000  0.5297670000000 1.0
C      1  0.5298440000000  0.4628920000000  0.4930780000000 1.0
C      1  0.4931540000000  0.5297860000000  0.4628730000000 1.0
C      1  0.5370110000000  0.5067500000000  0.5297660000000 1.0
C      1  0.5370110000000  0.4930970000000  0.4700410000000 1.0
C      1  0.4629500000000  0.5067490000000  0.4700410000000 1.0
C      1  0.4701180000000  0.5369540000000  0.4930780000000 1.0
C      1  0.4701180000000  0.4628930000000  0.5067300000000 1.0
C      1  0.5298440000000  0.5369550000000  0.5067300000000 1.0
C      1  0.5068070000000  0.4700600000000  0.4628730000000 1.0
C      1  0.5068070000000  0.5297860000000  0.5369340000000 1.0
C      1  0.4931540000000  0.4700610000000  0.5369350000000 1.0
C      1  0.4629500000000  0.4930970000000  0.4700410000000 1.0
C      1  0.5298440000000  0.4628920000000  0.5067300000000 1.0
C      1  0.4931540000000  0.5297860000000  0.5369350000000 1.0
C      1  0.5370110000000  0.5067500000000  0.4700410000000 1.0
C      1  0.5370110000000  0.4930970000000  0.5297660000000 1.0
C      1  0.4629500000000  0.5067500000000  0.5297670000000 1.0
C      1  0.4701180000000  0.5369540000000  0.5067300000000 1.0
C      1  0.4701180000000  0.4628930000000  0.4930780000000 1.0
C      1  0.5298440000000  0.5369550000000  0.4930780000000 1.0
C      1  0.5068070000000  0.4700600000000  0.5369340000000 1.0
C      1  0.5068070000000  0.5297860000000  0.4628730000000 1.0
C      1  0.4931540000000  0.4700610000000  0.4628730000000 1.0
C      1  0.4999810000000  0.4575420000000  0.5573390000000 1.0
C      1  0.5574150000000  0.4999230000000  0.4575240000000 1.0
C      1  0.4576000000000  0.5573580000000  0.4999040000000 1.0
C      1  0.4999810000000  0.5423040000000  0.4424690000000 1.0
C      1  0.4425460000000  0.4999230000000  0.4575230000000 1.0
C      1  0.4425460000000  0.4999230000000  0.5422860000000 1.0
C      1  0.5574150000000  0.4999230000000  0.5422840000000 1.0
C      1  0.5423630000000  0.4424880000000  0.4999040000000 1.0
C      1  0.5423630000000  0.5573580000000  0.4999040000000 1.0
C      1  0.4576000000000  0.4424890000000  0.4999040000000 1.0
C      1  0.4999810000000  0.5423040000000  0.5573390000000 1.0
C      1  0.4999810000000  0.4575420000000  0.4424690000000 1.0
C      1  0.4545210000000  0.5453830000000  0.4544440000000 1.0
C      1  0.4545210000000  0.4544640000000  0.5453640000000 1.0
C      1  0.5454400000000  0.4544640000000  0.4544440000000 1.0
C      1  0.5454400000000  0.4544640000000  0.5453630000000 1.0
C      1  0.4545210000000  0.5453830000000  0.5453640000000 1.0
C      1  0.5454400000000  0.5453830000000  0.4544440000000 1.0
C      1  0.5454400000000  0.5453830000000  0.5453630000000 1.0
C      1  0.4545210000000  0.4544640000000  0.4544440000000 1.0
END
