TITL C-1379267-1329-327 -3.04502361603263e-07 1000000 -2837.70280528583 0 0 400 (C2) n - 1
REM
REM in /nfs/bkarasulu/CARBON/AIRSS/Generating-Clusters/GAP-ML-2020/Higher-Symm/Selected-Sizes/TryA-Only_Ih-Symm/Larger-Clusters/Try2-MINAMP_6A
REM
REM
REM
REM
REM
REM ./C.cell (31579ac4e95a012ec27f3239692ae8a5)
REM
REM compiler GCC version 9.2.1 20190827 (Red Hat 9.2.1-1)
REM options -cpp -mtune=generic -march=x86-64 -g -O0 -fpre-include=/usr/include/finclude/math-vector-fortran.h
REM seed -1425827209 -1212069066 1817003421 -110130070 -138847250 -748198847 -998351925 29845314 1854762761 1755677472 1222300798 -2119146451 30542621 -717107357 -364076714 1529270110 -85195555 957469953 -1935228144 527850789 1427598689 -327964981 -1401552024 2067528480 -866566933 -2033900277 1278173261 -585937011 2054393107 -1533805219 -1560008409 983803987 -2109945161
REM
CELL 1.54180  100.00000  100.00000  100.00000   90.00000   90.00000   90.00000
LATT -1
SFAC C  
C      1  0.4857620000000  0.5624070000000  0.5261390000000 1.0
C      1  0.5246790000000  0.4851080000000  0.5535310000000 1.0
C      1  0.5535930000000  0.5273120000000  0.4828520000000 1.0
C      1  0.5130570000000  0.4395860000000  0.5248960000000 1.0
C      1  0.5144790000000  0.5624060000000  0.4746230000000 1.0
C      1  0.4871670000000  0.4395880000000  0.4758690000000 1.0
C      1  0.4749100000000  0.5148120000000  0.5544310000000 1.0
C      1  0.4755520000000  0.4851110000000  0.4472330000000 1.0
C      1  0.5253250000000  0.5148080000000  0.4463320000000 1.0
C      1  0.4469840000000  0.4732310000000  0.4839000000000 1.0
C      1  0.4466440000000  0.5273190000000  0.5179110000000 1.0
C      1  0.5532440000000  0.4732250000000  0.5168650000000 1.0
C      1  0.5541560000000  0.4855550000000  0.5246190000000 1.0
C      1  0.4827780000000  0.5270910000000  0.5536460000000 1.0
C      1  0.5259560000000  0.5624200000000  0.4860800000000 1.0
C      1  0.4460170000000  0.5150270000000  0.5258460000000 1.0
C      1  0.5542170000000  0.5150200000000  0.4749180000000 1.0
C      1  0.4460740000000  0.4855610000000  0.4761460000000 1.0
C      1  0.5165760000000  0.4729000000000  0.5529060000000 1.0
C      1  0.4836540000000  0.4729020000000  0.4478590000000 1.0
C      1  0.5174590000000  0.5270880000000  0.4471170000000 1.0
C      1  0.4753260000000  0.4403810000000  0.4862950000000 1.0
C      1  0.5248980000000  0.4403790000000  0.5144690000000 1.0
C      1  0.4742850000000  0.5624220000000  0.5146820000000 1.0
C      1  0.5009800000000  0.5106690000000  0.4575860000000 1.0
C      1  0.4570700000000  0.5004310000000  0.5107530000000 1.0
C      1  0.5102460000000  0.4525870000000  0.5008400000000 1.0
C      1  0.5001300000000  0.4894890000000  0.4577070000000 1.0
C      1  0.4992540000000  0.5106690000000  0.5431770000000 1.0
C      1  0.5001020000000  0.4894890000000  0.5430570000000 1.0
C      1  0.5429580000000  0.5009590000000  0.5101190000000 1.0
C      1  0.5431620000000  0.5004260000000  0.4900110000000 1.0
C      1  0.4572750000000  0.5009640000000  0.4906460000000 1.0
C      1  0.4897300000000  0.5515790000000  0.5002910000000 1.0
C      1  0.4899790000000  0.4525880000000  0.4999240000000 1.0
C      1  0.5105110000000  0.5515780000000  0.5004710000000 1.0
C      1  0.5105740000000  0.4999340000000  0.4576420000000 1.0
C      1  0.4995020000000  0.4526080000000  0.5107380000000 1.0
C      1  0.4572000000000  0.5112560000000  0.5012790000000 1.0
C      1  0.4905030000000  0.5002110000000  0.4578080000000 1.0
C      1  0.5097310000000  0.5002100000000  0.5429560000000 1.0
C      1  0.4896590000000  0.4999350000000  0.5431220000000 1.0
C      1  0.5001470000000  0.5515670000000  0.5107460000000 1.0
C      1  0.5000930000000  0.5515670000000  0.4900160000000 1.0
C      1  0.5007230000000  0.4526080000000  0.4900260000000 1.0
C      1  0.5433080000000  0.4902320000000  0.5005970000000 1.0
C      1  0.4569230000000  0.4902370000000  0.5001670000000 1.0
C      1  0.5430340000000  0.5112510000000  0.4994850000000 1.0
C      1  0.4827320000000  0.4918930000000  0.4270900000000 1.0
C      1  0.4263760000000  0.4818690000000  0.4940120000000 1.0
C      1  0.5036250000000  0.4216720000000  0.4811810000000 1.0
C      1  0.5178670000000  0.5080110000000  0.4266150000000 1.0
C      1  0.5175000000000  0.4918920000000  0.5736740000000 1.0
C      1  0.4823670000000  0.5080140000000  0.5741490000000 1.0
C      1  0.5742020000000  0.5179350000000  0.4930870000000 1.0
C      1  0.5738530000000  0.4818590000000  0.5067530000000 1.0
C      1  0.4260330000000  0.5179440000000  0.5076770000000 1.0
C      1  0.4984350000000  0.5827000000000  0.4738910000000 1.0
C      1  0.4965960000000  0.4216730000000  0.5195840000000 1.0
C      1  0.5018090000000  0.5827000000000  0.5268690000000 1.0
C      1  0.4934540000000  0.4819970000000  0.4269100000000 1.0
C      1  0.4643810000000  0.4251840000000  0.5031150000000 1.0
C      1  0.4266600000000  0.4918710000000  0.4832970000000 1.0
C      1  0.5071400000000  0.5179070000000  0.4264850000000 1.0
C      1  0.4930960000000  0.5179090000000  0.5742780000000 1.0
C      1  0.5067770000000  0.4819970000000  0.5738550000000 1.0
C      1  0.5267790000000  0.5827940000000  0.5020170000000 1.0
C      1  0.4734650000000  0.5827970000000  0.4987450000000 1.0
C      1  0.5358410000000  0.4251800000000  0.4976500000000 1.0
C      1  0.5741040000000  0.5079730000000  0.4823740000000 1.0
C      1  0.4261290000000  0.5079830000000  0.5183900000000 1.0
C      1  0.5735710000000  0.4918620000000  0.5174680000000 1.0
C      1  0.4666470000000  0.5058590000000  0.4572860000000 1.0
C      1  0.4574570000000  0.4670090000000  0.5067330000000 1.0
C      1  0.5071750000000  0.4541010000000  0.4654990000000 1.0
C      1  0.5341580000000  0.4941730000000  0.4567260000000 1.0
C      1  0.5335870000000  0.5058550000000  0.5434790000000 1.0
C      1  0.4660740000000  0.4941780000000  0.5440380000000 1.0
C      1  0.5425660000000  0.5347620000000  0.5054210000000 1.0
C      1  0.5427700000000  0.4670040000000  0.4940320000000 1.0
C      1  0.4576720000000  0.5347660000000  0.4953420000000 1.0
C      1  0.4951870000000  0.5463410000000  0.4657210000000 1.0
C      1  0.4930510000000  0.4541030000000  0.5352660000000 1.0
C      1  0.5050530000000  0.5463400000000  0.5350410000000 1.0
C      1  0.5069570000000  0.4659440000000  0.4579350000000 1.0
C      1  0.4679630000000  0.4572680000000  0.5071910000000 1.0
C      1  0.4567510000000  0.5058280000000  0.4669120000000 1.0
C      1  0.4950410000000  0.5344520000000  0.4582220000000 1.0
C      1  0.5051970000000  0.5344510000000  0.5425410000000 1.0
C      1  0.4932710000000  0.4659460000000  0.5428300000000 1.0
C      1  0.5349160000000  0.5465700000000  0.5054880000000 1.0
C      1  0.4653230000000  0.5465740000000  0.4952750000000 1.0
C      1  0.5322620000000  0.4572650000000  0.4935740000000 1.0
C      1  0.5438400000000  0.4942040000000  0.4664620000000 1.0
C      1  0.4563920000000  0.4942100000000  0.5343030000000 1.0
C      1  0.5434820000000  0.5058240000000  0.5338520000000 1.0
C      1  0.5234300000000  0.4394220000000  0.5359340000000 1.0
C      1  0.5427780000000  0.5354440000000  0.4476980000000 1.0
C      1  0.4472610000000  0.5389210000000  0.5292380000000 1.0
C      1  0.4743580000000  0.5607580000000  0.5362140000000 1.0
C      1  0.4767940000000  0.4394250000000  0.4648310000000 1.0
C      1  0.5258830000000  0.5607540000000  0.4645470000000 1.0
C      1  0.4583460000000  0.4644810000000  0.4488760000000 1.0
C      1  0.4574600000000  0.5354500000000  0.5530650000000 1.0
C      1  0.5418820000000  0.4644770000000  0.5518900000000 1.0
C      1  0.5521640000000  0.4615690000000  0.5279720000000 1.0
C      1  0.5529770000000  0.5389140000000  0.4715250000000 1.0
C      1  0.4480620000000  0.4615740000000  0.4727930000000 1.0
C      1  0.4473960000000  0.5355520000000  0.5431550000000 1.0
C      1  0.5288390000000  0.5387400000000  0.4477200000000 1.0
C      1  0.5344120000000  0.4410020000000  0.5267410000000 1.0
C      1  0.5519510000000  0.4645900000000  0.5419160000000 1.0
C      1  0.4482770000000  0.4645950000000  0.4588490000000 1.0
C      1  0.5528420000000  0.5355450000000  0.4576080000000 1.0
C      1  0.4723080000000  0.4611090000000  0.4487230000000 1.0
C      1  0.5279200000000  0.4611060000000  0.5520430000000 1.0
C      1  0.4713990000000  0.5387440000000  0.5530420000000 1.0
C      1  0.4642140000000  0.5607530000000  0.5261130000000 1.0
C      1  0.5360270000000  0.5607490000000  0.4746490000000 1.0
C      1  0.4658110000000  0.4410060000000  0.4740240000000 1.0
C      1  0.5175330000000  0.4184630000000  0.5350440000000 1.0
C      1  0.5358130000000  0.5253390000000  0.4259030000000 1.0
C      1  0.4248500000000  0.5372600000000  0.5239790000000 1.0
C      1  0.4788610000000  0.5821180000000  0.5379020000000 1.0
C      1  0.4826870000000  0.4184640000000  0.4657210000000 1.0
C      1  0.5213820000000  0.5821150000000  0.4628590000000 1.0
C      1  0.4649530000000  0.4743740000000  0.4269200000000 1.0
C      1  0.4644230000000  0.5253450000000  0.5748600000000 1.0
C      1  0.5352760000000  0.4743710000000  0.5738450000000 1.0
C      1  0.5745050000000  0.4623540000000  0.5227040000000 1.0
C      1  0.5753880000000  0.5372500000000  0.4767850000000 1.0
C      1  0.4257210000000  0.4623630000000  0.4780610000000 1.0
C      1  0.4255570000000  0.5253610000000  0.5363120000000 1.0
C      1  0.5234860000000  0.5371500000000  0.4253200000000 1.0
C      1  0.5351520000000  0.4199260000000  0.5213450000000 1.0
C      1  0.5739480000000  0.4744420000000  0.5352880000000 1.0
C      1  0.4262810000000  0.4744510000000  0.4654760000000 1.0
C      1  0.5746790000000  0.5253510000000  0.4644520000000 1.0
C      1  0.4772790000000  0.4624620000000  0.4263460000000 1.0
C      1  0.5229490000000  0.4624600000000  0.5744200000000 1.0
C      1  0.4767510000000  0.5371540000000  0.5754420000000 1.0
C      1  0.4625500000000  0.5821200000000  0.5217230000000 1.0
C      1  0.5376930000000  0.5821160000000  0.4790380000000 1.0
C      1  0.4650680000000  0.4199300000000  0.4794200000000 1.0
C      1  0.5375360000000  0.4856130000000  0.4442440000000 1.0
C      1  0.4433640000000  0.5361160000000  0.4844720000000 1.0
C      1  0.4810790000000  0.4437510000000  0.5410350000000 1.0
C      1  0.4632290000000  0.5145380000000  0.4449100000000 1.0
C      1  0.4626950000000  0.4856180000000  0.5565210000000 1.0
C      1  0.5370060000000  0.5145350000000  0.5558540000000 1.0
C      1  0.5557240000000  0.4644740000000  0.4835880000000 1.0
C      1  0.5568740000000  0.5361100000000  0.5162920000000 1.0
C      1  0.4445030000000  0.4644810000000  0.5171770000000 1.0
C      1  0.5173250000000  0.5568800000000  0.5410710000000 1.0
C      1  0.5191460000000  0.4437480000000  0.4597300000000 1.0
C      1  0.4829150000000  0.5568810000000  0.4596910000000 1.0
C      1  0.4840730000000  0.5360060000000  0.4438780000000 1.0
C      1  0.5461480000000  0.4394140000000  0.4755670000000 1.0
C      1  0.4439230000000  0.4857300000000  0.5378780000000 1.0
C      1  0.5169470000000  0.4642860000000  0.4441220000000 1.0
C      1  0.4832810000000  0.4642890000000  0.5566430000000 1.0
C      1  0.5161650000000  0.5360040000000  0.5568850000000 1.0
C      1  0.4590650000000  0.5570990000000  0.4832120000000 1.0
C      1  0.5411750000000  0.5570950000000  0.5175510000000 1.0
C      1  0.4540760000000  0.4394200000000  0.5251980000000 1.0
C      1  0.5558040000000  0.5145890000000  0.5371030000000 1.0
C      1  0.4444310000000  0.5145950000000  0.4636610000000 1.0
C      1  0.5563070000000  0.4857220000000  0.4628860000000 1.0
C      1  0.4475530000000  0.4352870000000  0.4889510000000 1.0
C      1  0.4868340000000  0.4458460000000  0.4383460000000 1.0
C      1  0.4371390000000  0.4826640000000  0.4475210000000 1.0
C      1  0.5555500000000  0.5658630000000  0.4873380000000 1.0
C      1  0.5526690000000  0.4352800000000  0.5118150000000 1.0
C      1  0.4446910000000  0.5658690000000  0.5134250000000 1.0
C      1  0.5146370000000  0.5540810000000  0.4374360000000 1.0
C      1  0.5133910000000  0.4458450000000  0.5624190000000 1.0
C      1  0.4856030000000  0.5540840000000  0.5633260000000 1.0
C      1  0.5637820000000  0.5172770000000  0.4464630000000 1.0
C      1  0.5630910000000  0.4826580000000  0.5532440000000 1.0
C      1  0.4364530000000  0.5172860000000  0.5543010000000 1.0
C      1  0.4386240000000  0.4459400000000  0.4872610000000 1.0
C      1  0.4470490000000  0.4826280000000  0.4377500000000 1.0
C      1  0.4896500000000  0.4337630000000  0.4452710000000 1.0
C      1  0.5633060000000  0.5541820000000  0.4857010000000 1.0
C      1  0.4369330000000  0.5541900000000  0.5150620000000 1.0
C      1  0.5616000000000  0.4459320000000  0.5135050000000 1.0
C      1  0.5538720000000  0.5172550000000  0.4366610000000 1.0
C      1  0.4463630000000  0.5172630000000  0.5641030000000 1.0
C      1  0.5531820000000  0.4826220000000  0.5630160000000 1.0
C      1  0.5130200000000  0.5657860000000  0.4451510000000 1.0
C      1  0.4872210000000  0.5657880000000  0.5556110000000 1.0
C      1  0.5105730000000  0.4337630000000  0.5554940000000 1.0
C      1  0.4589320000000  0.5478120000000  0.4721410000000 1.0
C      1  0.4696420000000  0.4623820000000  0.5510450000000 1.0
C      1  0.5500140000000  0.4726400000000  0.4604050000000 1.0
C      1  0.5408260000000  0.4521160000000  0.4696220000000 1.0
C      1  0.5413070000000  0.5478080000000  0.5286220000000 1.0
C      1  0.4594000000000  0.4521210000000  0.5311430000000 1.0
C      1  0.5293840000000  0.5374830000000  0.5506800000000 1.0
C      1  0.5305860000000  0.4623780000000  0.4497200000000 1.0
C      1  0.4708540000000  0.5374860000000  0.4500830000000 1.0
C      1  0.4507590000000  0.5278000000000  0.4612670000000 1.0
C      1  0.4502140000000  0.4726460000000  0.5403600000000 1.0
C      1  0.5494780000000  0.5277940000000  0.5394960000000 1.0
C      1  0.5503310000000  0.4628710000000  0.4700700000000 1.0
C      1  0.4600820000000  0.4725190000000  0.5504120000000 1.0
C      1  0.4718550000000  0.5476210000000  0.4596220000000 1.0
C      1  0.4494570000000  0.5376270000000  0.4711880000000 1.0
C      1  0.5507810000000  0.5376220000000  0.5295750000000 1.0
C      1  0.4498960000000  0.4628780000000  0.5306960000000 1.0
C      1  0.5394000000000  0.5277510000000  0.5495030000000 1.0
C      1  0.4608370000000  0.5277550000000  0.4512600000000 1.0
C      1  0.5401470000000  0.4725140000000  0.4503530000000 1.0
C      1  0.5314950000000  0.4514620000000  0.4580600000000 1.0
C      1  0.4687310000000  0.4514660000000  0.5427050000000 1.0
C      1  0.5283840000000  0.5476180000000  0.5411410000000 1.0
C      1  0.4718180000000  0.4256960000000  0.4909010000000 1.0
C      1  0.4895070000000  0.4685210000000  0.4323530000000 1.0
C      1  0.4320050000000  0.4872600000000  0.4699220000000 1.0
C      1  0.5295210000000  0.5773370000000  0.4900220000000 1.0
C      1  0.5284030000000  0.4256930000000  0.5098640000000 1.0
C      1  0.4707220000000  0.5773400000000  0.5107400000000 1.0
C      1  0.5112960000000  0.5314180000000  0.4316580000000 1.0
C      1  0.5107220000000  0.4685200000000  0.5684120000000 1.0
C      1  0.4889410000000  0.5314210000000  0.5691050000000 1.0
C      1  0.5685690000000  0.5127380000000  0.4690810000000 1.0
C      1  0.5682250000000  0.4872520000000  0.5308430000000 1.0
C      1  0.4316660000000  0.5127470000000  0.5316830000000 1.0
C      1  0.4319010000000  0.4683870000000  0.4901660000000 1.0
C      1  0.4695640000000  0.4871350000000  0.4328260000000 1.0
C      1  0.4919170000000  0.4250650000000  0.4753100000000 1.0
C      1  0.5690580000000  0.5314830000000  0.4889620000000 1.0
C      1  0.4311790000000  0.5314920000000  0.5118010000000 1.0
C      1  0.5683260000000  0.4683790000000  0.5105990000000 1.0
C      1  0.5312350000000  0.5127150000000  0.4320380000000 1.0
C      1  0.4690000000000  0.5127200000000  0.5687250000000 1.0
C      1  0.5306670000000  0.4871320000000  0.5679380000000 1.0
C      1  0.5104470000000  0.5773060000000  0.4710920000000 1.0
C      1  0.4897960000000  0.5773070000000  0.5296690000000 1.0
C      1  0.5083050000000  0.4250640000000  0.5254550000000 1.0
C      1  0.5662620000000  0.4748580000000  0.4833680000000 1.0
C      1  0.4789130000000  0.5673740000000  0.4691750000000 1.0
C      1  0.4732760000000  0.4850150000000  0.5668380000000 1.0
C      1  0.4336240000000  0.5252920000000  0.4841850000000 1.0
C      1  0.4339660000000  0.4748660000000  0.5173970000000 1.0
C      1  0.5666120000000  0.5252840000000  0.5165790000000 1.0
C      1  0.5230730000000  0.4327890000000  0.4685840000000 1.0
C      1  0.5213290000000  0.5673720000000  0.5315860000000 1.0
C      1  0.4771510000000  0.4327930000000  0.5321810000000 1.0
C      1  0.5264090000000  0.5150930000000  0.5662160000000 1.0
C      1  0.5269550000000  0.4850100000000  0.4339270000000 1.0
C      1  0.4738250000000  0.5150950000000  0.4345480000000 1.0
C      1  0.4686910000000  0.5674810000000  0.4792480000000 1.0
C      1  0.5665530000000  0.4848820000000  0.4734470000000 1.0
C      1  0.4831180000000  0.4748530000000  0.5666790000000 1.0
C      1  0.5361280000000  0.4300460000000  0.4739880000000 1.0
C      1  0.4640950000000  0.4300510000000  0.5267770000000 1.0
C      1  0.5315510000000  0.5674780000000  0.5215140000000 1.0
C      1  0.4340950000000  0.5150730000000  0.4743300000000 1.0
C      1  0.5661400000000  0.5150660000000  0.5264340000000 1.0
C      1  0.4336770000000  0.4848910000000  0.5273180000000 1.0
C      1  0.5165130000000  0.5252460000000  0.5666420000000 1.0
C      1  0.4837230000000  0.5252470000000  0.4341220000000 1.0
C      1  0.5171110000000  0.4748500000000  0.4340860000000 1.0
C      1  0.4701340000000  0.4233760000000  0.5154500000000 1.0
C      1  0.5073980000000  0.4834660000000  0.4271110000000 1.0
C      1  0.4271000000000  0.5058620000000  0.4836030000000 1.0
C      1  0.5248880000000  0.5786390000000  0.5145480000000 1.0
C      1  0.5300880000000  0.4233710000000  0.4853150000000 1.0
C      1  0.4753550000000  0.5786420000000  0.4862140000000 1.0
C      1  0.4932040000000  0.5164340000000  0.4270650000000 1.0
C      1  0.4928330000000  0.4834680000000  0.5736530000000 1.0
C      1  0.5070310000000  0.5164340000000  0.5736990000000 1.0
C      1  0.5737160000000  0.4939850000000  0.4826780000000 1.0
C      1  0.5731330000000  0.5058530000000  0.5171610000000 1.0
C      1  0.4265150000000  0.4939950000000  0.5180860000000 1.0
C      1  0.4266050000000  0.4833880000000  0.5079200000000 1.0
C      1  0.4830220000000  0.5058660000000  0.4275070000000 1.0
C      1  0.5166760000000  0.4248750000000  0.4793790000000 1.0
C      1  0.5736150000000  0.5164660000000  0.5070350000000 1.0
C      1  0.4266190000000  0.5164760000000  0.4937280000000 1.0
C      1  0.5736250000000  0.4833780000000  0.4928450000000 1.0
C      1  0.5175430000000  0.4940680000000  0.4270320000000 1.0
C      1  0.4826890000000  0.4940720000000  0.5737320000000 1.0
C      1  0.5172120000000  0.5058650000000  0.5732570000000 1.0
C      1  0.4858960000000  0.5785630000000  0.4757820000000 1.0
C      1  0.5143470000000  0.5785620000000  0.5249800000000 1.0
C      1  0.4835460000000  0.4248780000000  0.5213860000000 1.0
C      1  0.4768570000000  0.5701630000000  0.5465880000000 1.0
C      1  0.5455950000000  0.4708590000000  0.5642320000000 1.0
C      1  0.5647370000000  0.5472480000000  0.4738130000000 1.0
C      1  0.5195480000000  0.4293310000000  0.5451140000000 1.0
C      1  0.5233860000000  0.5701600000000  0.4541740000000 1.0
C      1  0.4806740000000  0.4293320000000  0.4556510000000 1.0
C      1  0.4539360000000  0.5290120000000  0.5654360000000 1.0
C      1  0.4546340000000  0.4708640000000  0.4365330000000 1.0
C      1  0.5463010000000  0.5290050000000  0.4353270000000 1.0
C      1  0.4366880000000  0.4528200000000  0.4752620000000 1.0
C      1  0.4355020000000  0.5472560000000  0.5269490000000 1.0
C      1  0.5635370000000  0.4528130000000  0.5255040000000 1.0
C      1  0.5643510000000  0.4708870000000  0.5456280000000 1.0
C      1  0.4737300000000  0.5471220000000  0.5647680000000 1.0
C      1  0.5464080000000  0.5701760000000  0.4770420000000 1.0
C      1  0.4350740000000  0.5290370000000  0.5467320000000 1.0
C      1  0.5651630000000  0.5290280000000  0.4540310000000 1.0
C      1  0.4358780000000  0.4708940000000  0.4551370000000 1.0
C      1  0.5255030000000  0.4524610000000  0.5635510000000 1.0
C      1  0.4747240000000  0.4524640000000  0.4372140000000 1.0
C      1  0.5265090000000  0.5471180000000  0.4359940000000 1.0
C      1  0.4557480000000  0.4313890000000  0.4777730000000 1.0
C      1  0.5444740000000  0.4313830000000  0.5229930000000 1.0
C      1  0.4538350000000  0.5701810000000  0.5237200000000 1.0
C      1  0.4985120000000  0.4503550000000  0.4763160000000 1.0
C      1  0.4770710000000  0.4963890000000  0.4557310000000 1.0
C      1  0.4553200000000  0.4764010000000  0.4964070000000 1.0
C      1  0.5033530000000  0.5518020000000  0.4762250000000 1.0
C      1  0.5017130000000  0.4503550000000  0.5244490000000 1.0
C      1  0.4968870000000  0.5518020000000  0.5245370000000 1.0
C      1  0.5239020000000  0.5037550000000  0.4550990000000 1.0
C      1  0.5231620000000  0.4963860000000  0.5450340000000 1.0
C      1  0.4763310000000  0.5037580000000  0.5456650000000 1.0
C      1  0.5448770000000  0.5249170000000  0.4954600000000 1.0
C      1  0.5449080000000  0.4763960000000  0.5043580000000 1.0
C      1  0.4553590000000  0.5249220000000  0.5053030000000 1.0
C      1  0.4550110000000  0.4965810000000  0.4774160000000 1.0
C      1  0.4965600000000  0.4755950000000  0.4561510000000 1.0
C      1  0.4764660000000  0.4511200000000  0.4969990000000 1.0
C      1  0.5455240000000  0.5039450000000  0.4765870000000 1.0
C      1  0.4547090000000  0.5039510000000  0.5241770000000 1.0
C      1  0.5452210000000  0.4965770000000  0.5233480000000 1.0
C      1  0.5048510000000  0.5244740000000  0.4558080000000 1.0
C      1  0.4953850000000  0.5244750000000  0.5449550000000 1.0
C      1  0.5036700000000  0.4755940000000  0.5446140000000 1.0
C      1  0.5243320000000  0.5519030000000  0.4973010000000 1.0
C      1  0.4759090000000  0.5519060000000  0.5034620000000 1.0
C      1  0.5237590000000  0.4511170000000  0.5037660000000 1.0
C      1  0.4906080000000  0.4526380000000  0.5617050000000 1.0
C      1  0.5588190000000  0.4951760000000  0.4518840000000 1.0
C      1  0.4462290000000  0.5598750000000  0.4902360000000 1.0
C      1  0.5084820000000  0.5477490000000  0.5616310000000 1.0
C      1  0.5096180000000  0.4526360000000  0.4390600000000 1.0
C      1  0.4917570000000  0.5477490000000  0.4391310000000 1.0
C      1  0.4420760000000  0.5048180000000  0.4528350000000 1.0
C      1  0.4414130000000  0.4951840000000  0.5488800000000 1.0
C      1  0.5581580000000  0.5048120000000  0.5479300000000 1.0
C      1  0.5534900000000  0.4400500000000  0.4876470000000 1.0
C      1  0.5540120000000  0.5598690000000  0.5105260000000 1.0
C      1  0.4467330000000  0.4400570000000  0.5131180000000 1.0
C      1  0.4517610000000  0.4951900000000  0.5590320000000 1.0
C      1  0.4898770000000  0.5597350000000  0.4468320000000 1.0
C      1  0.5603190000000  0.4522190000000  0.4907370000000 1.0
C      1  0.5478990000000  0.5048160000000  0.5582680000000 1.0
C      1  0.4523340000000  0.5048210000000  0.4424960000000 1.0
C      1  0.5484710000000  0.4951830000000  0.4417320000000 1.0
C      1  0.5123660000000  0.4405340000000  0.4460160000000 1.0
C      1  0.4878590000000  0.4405370000000  0.5547490000000 1.0
C      1  0.5103640000000  0.5597340000000  0.5539300000000 1.0
C      1  0.4385820000000  0.5478490000000  0.4921880000000 1.0
C      1  0.5616570000000  0.5478420000000  0.5085750000000 1.0
C      1  0.4399060000000  0.4522260000000  0.5100280000000 1.0
C      1  0.4340320000000  0.5064780000000  0.5456840000000 1.0
C      1  0.5487090000000  0.4318970000000  0.4985000000000 1.0
C      1  0.5044710000000  0.5446720000000  0.4343580000000 1.0
C      1  0.5656880000000  0.4935520000000  0.5447860000000 1.0
C      1  0.5662010000000  0.5064690000000  0.4550800000000 1.0
C      1  0.4345440000000  0.4935590000000  0.4559780000000 1.0
C      1  0.4474910000000  0.5688920000000  0.5004030000000 1.0
C      1  0.4515130000000  0.4319030000000  0.5022660000000 1.0
C      1  0.5527510000000  0.5688860000000  0.5003600000000 1.0
C      1  0.4966070000000  0.4554930000000  0.4348910000000 1.0
C      1  0.4957680000000  0.5446730000000  0.5664040000000 1.0
C      1  0.5036200000000  0.4554940000000  0.5658740000000 1.0
C      1  0.4971450000000  0.4309230000000  0.5558930000000 1.0
C      1  0.4338430000000  0.5447660000000  0.5049140000000 1.0
C      1  0.5452310000000  0.5064420000000  0.4343260000000 1.0
C      1  0.5002330000000  0.5688200000000  0.5527320000000 1.0
C      1  0.5000080000000  0.5688190000000  0.4480300000000 1.0
C      1  0.5030780000000  0.4309220000000  0.4448730000000 1.0
C      1  0.5651990000000  0.4551660000000  0.5035190000000 1.0
C      1  0.4350260000000  0.4551740000000  0.4972470000000 1.0
C      1  0.5663960000000  0.5447580000000  0.4958490000000 1.0
C      1  0.4556020000000  0.4934560000000  0.4352120000000 1.0
C      1  0.5446300000000  0.4934520000000  0.5655530000000 1.0
C      1  0.4550030000000  0.5064490000000  0.5664380000000 1.0
C      1  0.5301470000000  0.4675460000000  0.5850130000000 1.0
C      1  0.5859200000000  0.5319590000000  0.4696670000000 1.0
C      1  0.4678360000000  0.5886270000000  0.5327020000000 1.0
C      1  0.4697210000000  0.5319380000000  0.5860760000000 1.0
C      1  0.4700820000000  0.4675490000000  0.4157520000000 1.0
C      1  0.5305160000000  0.5319330000000  0.4146870000000 1.0
C      1  0.4152780000000  0.4675700000000  0.4708050000000 1.0
C      1  0.4143170000000  0.5319710000000  0.5310960000000 1.0
C      1  0.5849500000000  0.4675590000000  0.5299590000000 1.0
C      1  0.5289220000000  0.4118670000000  0.5305630000000 1.0
C      1  0.5324080000000  0.5886230000000  0.4680590000000 1.0
C      1  0.4712970000000  0.4118700000000  0.4702020000000 1.0
C      1  0.4704170000000  0.4549960000000  0.5203110000000 1.0
C      1  0.5298090000000  0.4549920000000  0.4804540000000 1.0
C      1  0.4721410000000  0.5430980000000  0.4729030000000 1.0
C      1  0.5280980000000  0.5430950000000  0.5278600000000 1.0
END
