TITL C-1379265-1223-428 9.63819002076002e-08 1000000 -3071.00099344772 0 0 440 (Cs) n - 1
REM
REM in /nfs/bkarasulu/CARBON/AIRSS/Generating-Clusters/GAP-ML-2020/Higher-Symm/Selected-Sizes/TryA-Only_Ih-Symm/Larger-Clusters/Try2-MINAMP_6A
REM
REM
REM
REM
REM
REM ./C.cell (31579ac4e95a012ec27f3239692ae8a5)
REM
REM compiler GCC version 9.2.1 20190827 (Red Hat 9.2.1-1)
REM options -cpp -mtune=generic -march=x86-64 -g -O0 -fpre-include=/usr/include/finclude/math-vector-fortran.h
REM seed -969281066 -1840706413 649133859 -421999317 -1882945124 -1202108177 -595476408 -2134401924 -1723045890 2063465356 -1412137602 -489886378 1339454593 1848791772 1286626806 1342556855 1447828496 -225505955 262479771 -1269982299 2006301003 334140594 1817238403 477097631 199625892 805922504 1567634646 -1469094015 897563254 299513987 698458860 -66666478 -83580570
REM
CELL 1.54180  100.00000  100.00000  100.00000   90.00000   90.00000   90.00000
LATT -1
SFAC C  
C      1  0.4709530000000  0.5208500000000  0.5412080000000 1.0
C      1  0.5408640000000  0.4708230000000  0.5207950000000 1.0
C      1  0.5211390000000  0.5412070000000  0.4705410000000 1.0
C      1  0.5294030000000  0.5209060000000  0.4592920000000 1.0
C      1  0.4705120000000  0.4792360000000  0.4593020000000 1.0
C      1  0.5294380000000  0.4794770000000  0.5410440000000 1.0
C      1  0.4593450000000  0.4708200000000  0.4797280000000 1.0
C      1  0.5408320000000  0.5296110000000  0.4795490000000 1.0
C      1  0.4594270000000  0.5298060000000  0.5215120000000 1.0
C      1  0.4797320000000  0.5411730000000  0.5298210000000 1.0
C      1  0.5211950000000  0.4592150000000  0.5297140000000 1.0
C      1  0.4796250000000  0.4594380000000  0.4708690000000 1.0
C      1  0.4709520000000  0.4795790000000  0.5412080000000 1.0
C      1  0.5408640000000  0.5296050000000  0.5207950000000 1.0
C      1  0.5211390000000  0.4592220000000  0.4705410000000 1.0
C      1  0.5294020000000  0.4795220000000  0.4592920000000 1.0
C      1  0.4705120000000  0.5211930000000  0.4593020000000 1.0
C      1  0.5294380000000  0.5209510000000  0.5410440000000 1.0
C      1  0.4593460000000  0.5296090000000  0.4797280000000 1.0
C      1  0.5408310000000  0.4708170000000  0.4795490000000 1.0
C      1  0.4594270000000  0.4706230000000  0.5215120000000 1.0
C      1  0.4797310000000  0.4592560000000  0.5298200000000 1.0
C      1  0.5211960000000  0.5412130000000  0.5297140000000 1.0
C      1  0.4796250000000  0.5409910000000  0.4708700000000 1.0
C      1  0.5572540000000  0.5175450000000  0.4429020000000 1.0
C      1  0.4440530000000  0.5575010000000  0.5192230000000 1.0
C      1  0.5191310000000  0.4439520000000  0.5574860000000 1.0
C      1  0.4425640000000  0.5178640000000  0.5566980000000 1.0
C      1  0.5569930000000  0.4828710000000  0.5575910000000 1.0
C      1  0.4427580000000  0.4813490000000  0.4442360000000 1.0
C      1  0.5565150000000  0.5577790000000  0.4825890000000 1.0
C      1  0.4429410000000  0.4431550000000  0.4831420000000 1.0
C      1  0.5565280000000  0.4426990000000  0.5177900000000 1.0
C      1  0.4826830000000  0.4438040000000  0.4425950000000 1.0
C      1  0.5191650000000  0.5562980000000  0.4427850000000 1.0
C      1  0.4829510000000  0.5576040000000  0.5573230000000 1.0
C      1  0.5572540000000  0.4828840000000  0.4429020000000 1.0
C      1  0.4440520000000  0.4429290000000  0.5192230000000 1.0
C      1  0.5191320000000  0.5564770000000  0.5574860000000 1.0
C      1  0.4425640000000  0.4825660000000  0.5566980000000 1.0
C      1  0.5569930000000  0.5175570000000  0.5575910000000 1.0
C      1  0.4427580000000  0.5190800000000  0.4442370000000 1.0
C      1  0.5565140000000  0.4426490000000  0.4825890000000 1.0
C      1  0.4429410000000  0.5572750000000  0.4831420000000 1.0
C      1  0.5565290000000  0.5577290000000  0.5177900000000 1.0
C      1  0.4826840000000  0.5566250000000  0.4425960000000 1.0
C      1  0.5191650000000  0.4441310000000  0.4427850000000 1.0
C      1  0.4829510000000  0.4428250000000  0.5573230000000 1.0
C      1  0.5538210000000  0.5637870000000  0.4599640000000 1.0
C      1  0.4576280000000  0.5524790000000  0.5550870000000 1.0
C      1  0.5550130000000  0.4576400000000  0.5524240000000 1.0
C      1  0.4507370000000  0.5583010000000  0.5435970000000 1.0
C      1  0.5538350000000  0.4366490000000  0.5404340000000 1.0
C      1  0.4480570000000  0.4453510000000  0.4577760000000 1.0
C      1  0.5437180000000  0.5497490000000  0.4421540000000 1.0
C      1  0.4599170000000  0.4466580000000  0.4366420000000 1.0
C      1  0.5435270000000  0.4506480000000  0.5582330000000 1.0
C      1  0.4421670000000  0.4568330000000  0.4509140000000 1.0
C      1  0.5552100000000  0.5428030000000  0.4480480000000 1.0
C      1  0.4364930000000  0.5405310000000  0.5538790000000 1.0
C      1  0.5538200000000  0.4366410000000  0.4599640000000 1.0
C      1  0.4576270000000  0.4479500000000  0.5550870000000 1.0
C      1  0.5550140000000  0.5427880000000  0.5524240000000 1.0
C      1  0.4507360000000  0.4421280000000  0.5435970000000 1.0
C      1  0.5538350000000  0.5637790000000  0.5404340000000 1.0
C      1  0.4480580000000  0.5550790000000  0.4577760000000 1.0
C      1  0.5437180000000  0.4506790000000  0.4421540000000 1.0
C      1  0.4599170000000  0.5537720000000  0.4366420000000 1.0
C      1  0.5435270000000  0.5497800000000  0.5582330000000 1.0
C      1  0.4421670000000  0.5435960000000  0.4509140000000 1.0
C      1  0.5552090000000  0.4576250000000  0.4480480000000 1.0
C      1  0.4364920000000  0.4598990000000  0.5538790000000 1.0
C      1  0.4930560000000  0.4611900000000  0.4250220000000 1.0
C      1  0.4253600000000  0.4931050000000  0.4609730000000 1.0
C      1  0.4609490000000  0.4258890000000  0.4922930000000 1.0
C      1  0.5064800000000  0.4608070000000  0.5746560000000 1.0
C      1  0.4920810000000  0.5395680000000  0.5745850000000 1.0
C      1  0.5072900000000  0.5394140000000  0.4252200000000 1.0
C      1  0.5740640000000  0.4929140000000  0.5394660000000 1.0
C      1  0.4249410000000  0.5073320000000  0.5391830000000 1.0
C      1  0.5741990000000  0.5075110000000  0.4611090000000 1.0
C      1  0.5390380000000  0.4249320000000  0.5072740000000 1.0
C      1  0.4609020000000  0.5747110000000  0.5066840000000 1.0
C      1  0.5390070000000  0.5755160000000  0.4930290000000 1.0
C      1  0.4930560000000  0.5392380000000  0.4250220000000 1.0
C      1  0.4253600000000  0.5073250000000  0.4609730000000 1.0
C      1  0.4609500000000  0.5745400000000  0.4922940000000 1.0
C      1  0.5064810000000  0.5396220000000  0.5746560000000 1.0
C      1  0.4920810000000  0.4608610000000  0.5745850000000 1.0
C      1  0.5072890000000  0.4610150000000  0.4252190000000 1.0
C      1  0.5740650000000  0.5075140000000  0.5394660000000 1.0
C      1  0.4249410000000  0.4930970000000  0.5391830000000 1.0
C      1  0.5741990000000  0.4929170000000  0.4611090000000 1.0
C      1  0.5390390000000  0.5754970000000  0.5072740000000 1.0
C      1  0.4609010000000  0.4257180000000  0.5066840000000 1.0
C      1  0.5390060000000  0.4249120000000  0.4930290000000 1.0
C      1  0.4621910000000  0.4334170000000  0.5421040000000 1.0
C      1  0.5424920000000  0.4620410000000  0.4333270000000 1.0
C      1  0.4333080000000  0.5424270000000  0.4623100000000 1.0
C      1  0.5405800000000  0.4350410000000  0.4573210000000 1.0
C      1  0.4601460000000  0.5620010000000  0.4572590000000 1.0
C      1  0.5406180000000  0.5654670000000  0.5430330000000 1.0
C      1  0.4570960000000  0.4600200000000  0.5620810000000 1.0
C      1  0.5419610000000  0.5383730000000  0.5669410000000 1.0
C      1  0.4573000000000  0.5405320000000  0.4351520000000 1.0
C      1  0.5619170000000  0.5429940000000  0.5402850000000 1.0
C      1  0.4349270000000  0.4572810000000  0.5406840000000 1.0
C      1  0.5620320000000  0.4574190000000  0.4602100000000 1.0
C      1  0.4621920000000  0.5670120000000  0.5421040000000 1.0
C      1  0.5424920000000  0.5383870000000  0.4333280000000 1.0
C      1  0.4333080000000  0.4580030000000  0.4623100000000 1.0
C      1  0.5405800000000  0.5653870000000  0.4573210000000 1.0
C      1  0.4601460000000  0.4384280000000  0.4572590000000 1.0
C      1  0.5406170000000  0.4349620000000  0.5430330000000 1.0
C      1  0.4570960000000  0.5404090000000  0.5620810000000 1.0
C      1  0.5419610000000  0.4620560000000  0.5669410000000 1.0
C      1  0.4572990000000  0.4598970000000  0.4351520000000 1.0
C      1  0.5619160000000  0.4574340000000  0.5402850000000 1.0
C      1  0.4349280000000  0.5431490000000  0.5406840000000 1.0
C      1  0.5620320000000  0.5430090000000  0.4602100000000 1.0
C      1  0.4182220000000  0.4619460000000  0.5079160000000 1.0
C      1  0.5068930000000  0.4189190000000  0.4616620000000 1.0
C      1  0.4616170000000  0.5071130000000  0.4192020000000 1.0
C      1  0.5814140000000  0.4622620000000  0.4933600000000 1.0
C      1  0.4182550000000  0.5385830000000  0.4942960000000 1.0
C      1  0.5814040000000  0.5381500000000  0.5071950000000 1.0
C      1  0.4940750000000  0.4182120000000  0.5383450000000 1.0
C      1  0.5077100000000  0.5823190000000  0.5382660000000 1.0
C      1  0.4930840000000  0.5814710000000  0.4618790000000 1.0
C      1  0.5372380000000  0.5069770000000  0.5828500000000 1.0
C      1  0.4617450000000  0.4932890000000  0.5817580000000 1.0
C      1  0.5381170000000  0.4934570000000  0.4175090000000 1.0
C      1  0.4182230000000  0.5384840000000  0.5079160000000 1.0
C      1  0.5068940000000  0.5815100000000  0.4616620000000 1.0
C      1  0.4616170000000  0.4933170000000  0.4192020000000 1.0
C      1  0.5814140000000  0.5381660000000  0.4933600000000 1.0
C      1  0.4182550000000  0.4618460000000  0.4942950000000 1.0
C      1  0.5814040000000  0.4622780000000  0.5071950000000 1.0
C      1  0.4940760000000  0.5822170000000  0.5383460000000 1.0
C      1  0.5077090000000  0.4181100000000  0.5382650000000 1.0
C      1  0.4930830000000  0.4189570000000  0.4618780000000 1.0
C      1  0.5372380000000  0.4934510000000  0.5828490000000 1.0
C      1  0.4617450000000  0.5071400000000  0.5817580000000 1.0
C      1  0.5381170000000  0.5069710000000  0.4175090000000 1.0
C      1  0.5282840000000  0.5464520000000  0.5071530000000 1.0
C      1  0.5072550000000  0.5285280000000  0.5463740000000 1.0
C      1  0.5460470000000  0.5072040000000  0.5283720000000 1.0
C      1  0.4720530000000  0.5462710000000  0.4934230000000 1.0
C      1  0.5282330000000  0.4539680000000  0.4931370000000 1.0
C      1  0.4721330000000  0.4541080000000  0.5074400000000 1.0
C      1  0.4931370000000  0.5284430000000  0.4540230000000 1.0
C      1  0.5071400000000  0.4719730000000  0.4538680000000 1.0
C      1  0.4932720000000  0.4719080000000  0.5465780000000 1.0
C      1  0.4539540000000  0.5072180000000  0.4720590000000 1.0
C      1  0.5460530000000  0.4932180000000  0.4720320000000 1.0
C      1  0.4540960000000  0.4932000000000  0.5285600000000 1.0
C      1  0.5282830000000  0.4539760000000  0.5071520000000 1.0
C      1  0.5072540000000  0.4719000000000  0.5463740000000 1.0
C      1  0.5460470000000  0.4932240000000  0.5283720000000 1.0
C      1  0.4720530000000  0.4541570000000  0.4934230000000 1.0
C      1  0.5282330000000  0.5464610000000  0.4931370000000 1.0
C      1  0.4721340000000  0.5463210000000  0.5074400000000 1.0
C      1  0.4931360000000  0.4719860000000  0.4540220000000 1.0
C      1  0.5071400000000  0.5284550000000  0.4538680000000 1.0
C      1  0.4932720000000  0.5285200000000  0.5465780000000 1.0
C      1  0.4539540000000  0.4932110000000  0.4720590000000 1.0
C      1  0.5460530000000  0.5072100000000  0.4720320000000 1.0
C      1  0.4540960000000  0.5072290000000  0.5285600000000 1.0
C      1  0.5752840000000  0.5144630000000  0.5126430000000 1.0
C      1  0.5123350000000  0.5754630000000  0.5144410000000 1.0
C      1  0.5140120000000  0.5126390000000  0.5747890000000 1.0
C      1  0.4252140000000  0.5148680000000  0.4880170000000 1.0
C      1  0.5752850000000  0.4859500000000  0.4879120000000 1.0
C      1  0.4250920000000  0.4858280000000  0.5125150000000 1.0
C      1  0.4878070000000  0.5756650000000  0.4857450000000 1.0
C      1  0.5123160000000  0.4248250000000  0.4855740000000 1.0
C      1  0.4878140000000  0.4253220000000  0.5147520000000 1.0
C      1  0.4855690000000  0.5124480000000  0.4249130000000 1.0
C      1  0.5145090000000  0.4879320000000  0.4251200000000 1.0
C      1  0.4855160000000  0.4877490000000  0.5760020000000 1.0
C      1  0.5752830000000  0.4859650000000  0.5126430000000 1.0
C      1  0.5123340000000  0.4249660000000  0.5144410000000 1.0
C      1  0.5140120000000  0.4877890000000  0.5747890000000 1.0
C      1  0.4252140000000  0.4855620000000  0.4880170000000 1.0
C      1  0.5752850000000  0.5144780000000  0.4879120000000 1.0
C      1  0.4250920000000  0.5146020000000  0.5125150000000 1.0
C      1  0.4878060000000  0.4247640000000  0.4857450000000 1.0
C      1  0.5123170000000  0.5756040000000  0.4855740000000 1.0
C      1  0.4878140000000  0.5751070000000  0.5147520000000 1.0
C      1  0.4855690000000  0.4879810000000  0.4249130000000 1.0
C      1  0.5145100000000  0.5124970000000  0.4251200000000 1.0
C      1  0.4855160000000  0.5126800000000  0.5760020000000 1.0
C      1  0.5469290000000  0.4931390000000  0.5533010000000 1.0
C      1  0.5528060000000  0.5477050000000  0.4929340000000 1.0
C      1  0.4937180000000  0.5532650000000  0.5476750000000 1.0
C      1  0.4522120000000  0.4928480000000  0.4475420000000 1.0
C      1  0.5471000000000  0.5073030000000  0.4471450000000 1.0
C      1  0.4526840000000  0.5074710000000  0.5530690000000 1.0
C      1  0.4474020000000  0.5476960000000  0.5082720000000 1.0
C      1  0.5528350000000  0.4527570000000  0.5074040000000 1.0
C      1  0.4473330000000  0.4529320000000  0.4938660000000 1.0
C      1  0.5079760000000  0.5529660000000  0.4523990000000 1.0
C      1  0.4933610000000  0.4474170000000  0.4525290000000 1.0
C      1  0.5081180000000  0.4471460000000  0.5477150000000 1.0
C      1  0.5469290000000  0.5072890000000  0.5533010000000 1.0
C      1  0.5528050000000  0.4527240000000  0.4929330000000 1.0
C      1  0.4937180000000  0.4471640000000  0.5476750000000 1.0
C      1  0.4522120000000  0.5075810000000  0.4475420000000 1.0
C      1  0.5471000000000  0.4931250000000  0.4471450000000 1.0
C      1  0.4526830000000  0.4929590000000  0.5530690000000 1.0
C      1  0.4474020000000  0.4527330000000  0.5082720000000 1.0
C      1  0.5528360000000  0.5476710000000  0.5074040000000 1.0
C      1  0.4473340000000  0.5474970000000  0.4938660000000 1.0
C      1  0.5079750000000  0.4474630000000  0.4523990000000 1.0
C      1  0.4933620000000  0.5530120000000  0.4525300000000 1.0
C      1  0.5081190000000  0.5532830000000  0.5477160000000 1.0
C      1  0.5665970000000  0.5297190000000  0.4619090000000 1.0
C      1  0.4625470000000  0.5705010000000  0.5286980000000 1.0
C      1  0.5285470000000  0.4624600000000  0.5704230000000 1.0
C      1  0.4311900000000  0.5296050000000  0.5387720000000 1.0
C      1  0.5664660000000  0.4707220000000  0.5386290000000 1.0
C      1  0.4299990000000  0.4713900000000  0.4627760000000 1.0
C      1  0.5385750000000  0.5691600000000  0.4708080000000 1.0
C      1  0.4618720000000  0.4338970000000  0.4704750000000 1.0
C      1  0.5386550000000  0.4312370000000  0.5295190000000 1.0
C      1  0.4707950000000  0.4618100000000  0.4312910000000 1.0
C      1  0.5290690000000  0.5378630000000  0.4301180000000 1.0
C      1  0.4702760000000  0.5386520000000  0.5666450000000 1.0
C      1  0.5665970000000  0.4707090000000  0.4619080000000 1.0
C      1  0.4625460000000  0.4299280000000  0.5286980000000 1.0
C      1  0.5285470000000  0.5379690000000  0.5704230000000 1.0
C      1  0.4311900000000  0.4708250000000  0.5387720000000 1.0
C      1  0.5664670000000  0.5297060000000  0.5386290000000 1.0
C      1  0.4300000000000  0.5290390000000  0.4627760000000 1.0
C      1  0.5385740000000  0.4312690000000  0.4708080000000 1.0
C      1  0.4618730000000  0.5665320000000  0.4704760000000 1.0
C      1  0.5386560000000  0.5691910000000  0.5295190000000 1.0
C      1  0.4707950000000  0.5386190000000  0.4312910000000 1.0
C      1  0.5290690000000  0.4625660000000  0.4301180000000 1.0
C      1  0.4702760000000  0.4617770000000  0.5666450000000 1.0
C      1  0.4928900000000  0.4154220000000  0.4763120000000 1.0
C      1  0.4761130000000  0.4930420000000  0.4155580000000 1.0
C      1  0.4155470000000  0.4764280000000  0.4931840000000 1.0
C      1  0.5072830000000  0.4153310000000  0.5235930000000 1.0
C      1  0.4929090000000  0.5849130000000  0.5237730000000 1.0
C      1  0.5072470000000  0.5850250000000  0.4762090000000 1.0
C      1  0.5224990000000  0.4929930000000  0.5849450000000 1.0
C      1  0.4761890000000  0.5074250000000  0.5852880000000 1.0
C      1  0.5234310000000  0.5074160000000  0.4152420000000 1.0
C      1  0.5847760000000  0.4767520000000  0.5074930000000 1.0
C      1  0.4154520000000  0.5238050000000  0.5075380000000 1.0
C      1  0.5847800000000  0.5236800000000  0.4930700000000 1.0
C      1  0.4928910000000  0.5850060000000  0.4763120000000 1.0
C      1  0.4761130000000  0.5073870000000  0.4155580000000 1.0
C      1  0.4155470000000  0.5240010000000  0.4931840000000 1.0
C      1  0.5072840000000  0.5850980000000  0.5235930000000 1.0
C      1  0.4929080000000  0.4155160000000  0.5237730000000 1.0
C      1  0.5072460000000  0.4154030000000  0.4762090000000 1.0
C      1  0.5224990000000  0.5074360000000  0.5849450000000 1.0
C      1  0.4761890000000  0.4930040000000  0.5852880000000 1.0
C      1  0.5234310000000  0.4930120000000  0.4152420000000 1.0
C      1  0.5847760000000  0.5236760000000  0.5074930000000 1.0
C      1  0.4154520000000  0.4766240000000  0.5075380000000 1.0
C      1  0.5847790000000  0.4767470000000  0.4930690000000 1.0
C      1  0.5070370000000  0.4390510000000  0.4841840000000 1.0
C      1  0.4841020000000  0.5070670000000  0.4391920000000 1.0
C      1  0.4393380000000  0.4842480000000  0.5073070000000 1.0
C      1  0.4935350000000  0.4393760000000  0.5160130000000 1.0
C      1  0.5071770000000  0.5612070000000  0.5160630000000 1.0
C      1  0.4933750000000  0.5612940000000  0.4845350000000 1.0
C      1  0.5156370000000  0.5070380000000  0.5607700000000 1.0
C      1  0.4845070000000  0.4933610000000  0.5617160000000 1.0
C      1  0.5157090000000  0.4934030000000  0.4392750000000 1.0
C      1  0.5610400000000  0.4845730000000  0.4934170000000 1.0
C      1  0.4393870000000  0.5159420000000  0.4936440000000 1.0
C      1  0.5610490000000  0.5158440000000  0.5070840000000 1.0
C      1  0.5070380000000  0.5613770000000  0.4841850000000 1.0
C      1  0.4841020000000  0.4933620000000  0.4391920000000 1.0
C      1  0.4393380000000  0.5161820000000  0.5073070000000 1.0
C      1  0.4935360000000  0.5610530000000  0.5160130000000 1.0
C      1  0.5071760000000  0.4392220000000  0.5160620000000 1.0
C      1  0.4933740000000  0.4391350000000  0.4845340000000 1.0
C      1  0.5156370000000  0.4933910000000  0.5607700000000 1.0
C      1  0.4845080000000  0.5070680000000  0.5617160000000 1.0
C      1  0.5157090000000  0.5070250000000  0.4392750000000 1.0
C      1  0.5610400000000  0.5158550000000  0.4934170000000 1.0
C      1  0.4393870000000  0.4844870000000  0.4936440000000 1.0
C      1  0.5610490000000  0.4845840000000  0.5070840000000 1.0
C      1  0.4421910000000  0.5532900000000  0.5334200000000 1.0
C      1  0.5333260000000  0.4421350000000  0.5532160000000 1.0
C      1  0.5529480000000  0.5309160000000  0.4400090000000 1.0
C      1  0.5594610000000  0.5544730000000  0.4685210000000 1.0
C      1  0.4400890000000  0.4476200000000  0.4697580000000 1.0
C      1  0.5594200000000  0.4460000000000  0.5318930000000 1.0
C      1  0.4685400000000  0.4409800000000  0.4458910000000 1.0
C      1  0.5333780000000  0.5581350000000  0.4471550000000 1.0
C      1  0.4696140000000  0.5603770000000  0.5526410000000 1.0
C      1  0.4457550000000  0.5319790000000  0.5595790000000 1.0
C      1  0.5525530000000  0.4695280000000  0.5604220000000 1.0
C      1  0.4471820000000  0.4671420000000  0.4424500000000 1.0
C      1  0.4421910000000  0.4471400000000  0.5334200000000 1.0
C      1  0.5333270000000  0.5582930000000  0.5532160000000 1.0
C      1  0.5529480000000  0.4695120000000  0.4400090000000 1.0
C      1  0.5594600000000  0.4459550000000  0.4685210000000 1.0
C      1  0.4400890000000  0.5528100000000  0.4697580000000 1.0
C      1  0.5594210000000  0.5544280000000  0.5318940000000 1.0
C      1  0.4685410000000  0.5594490000000  0.4458920000000 1.0
C      1  0.5333770000000  0.4422940000000  0.4471550000000 1.0
C      1  0.4696140000000  0.4400520000000  0.5526410000000 1.0
C      1  0.4457540000000  0.4684500000000  0.5595790000000 1.0
C      1  0.5525540000000  0.5309000000000  0.5604230000000 1.0
C      1  0.4471820000000  0.5332880000000  0.4424500000000 1.0
C      1  0.5406870000000  0.5404310000000  0.5121290000000 1.0
C      1  0.5124400000000  0.5409750000000  0.5404890000000 1.0
C      1  0.5401060000000  0.5121130000000  0.5408400000000 1.0
C      1  0.4595430000000  0.5402800000000  0.4886930000000 1.0
C      1  0.5406410000000  0.4599510000000  0.4881550000000 1.0
C      1  0.4596940000000  0.4598720000000  0.5127350000000 1.0
C      1  0.4883150000000  0.5408990000000  0.4600090000000 1.0
C      1  0.5123860000000  0.4595310000000  0.4597420000000 1.0
C      1  0.4885390000000  0.4594140000000  0.5405750000000 1.0
C      1  0.4597790000000  0.5122940000000  0.4595530000000 1.0
C      1  0.5401510000000  0.4882830000000  0.4595210000000 1.0
C      1  0.4600420000000  0.4881720000000  0.5409920000000 1.0
C      1  0.5406860000000  0.4599970000000  0.5121290000000 1.0
C      1  0.5124400000000  0.4594540000000  0.5404890000000 1.0
C      1  0.5401060000000  0.4883160000000  0.5408400000000 1.0
C      1  0.4595420000000  0.4601490000000  0.4886920000000 1.0
C      1  0.5406410000000  0.5404770000000  0.4881560000000 1.0
C      1  0.4596950000000  0.5405570000000  0.5127350000000 1.0
C      1  0.4883140000000  0.4595300000000  0.4600090000000 1.0
C      1  0.5123870000000  0.5408980000000  0.4597420000000 1.0
C      1  0.4885400000000  0.5410150000000  0.5405750000000 1.0
C      1  0.4597780000000  0.4881350000000  0.4595530000000 1.0
C      1  0.5401510000000  0.5121450000000  0.4595210000000 1.0
C      1  0.4600430000000  0.5122570000000  0.5409920000000 1.0
C      1  0.5201000000000  0.4483660000000  0.4812440000000 1.0
C      1  0.4812750000000  0.5202060000000  0.4484960000000 1.0
C      1  0.4485390000000  0.4813200000000  0.5204680000000 1.0
C      1  0.4805340000000  0.4484920000000  0.5189800000000 1.0
C      1  0.5202360000000  0.5520650000000  0.5190230000000 1.0
C      1  0.4806090000000  0.5517590000000  0.4817060000000 1.0
C      1  0.5187240000000  0.5201240000000  0.5518840000000 1.0
C      1  0.4816460000000  0.4805760000000  0.5520730000000 1.0
C      1  0.5187000000000  0.4803430000000  0.4483860000000 1.0
C      1  0.5516060000000  0.4816080000000  0.4806330000000 1.0
C      1  0.4485310000000  0.5188090000000  0.4805290000000 1.0
C      1  0.5516140000000  0.5188140000000  0.5197970000000 1.0
C      1  0.5201000000000  0.5520620000000  0.4812440000000 1.0
C      1  0.4812750000000  0.4802230000000  0.4484960000000 1.0
C      1  0.4485390000000  0.5191100000000  0.5204680000000 1.0
C      1  0.4805340000000  0.5519370000000  0.5189800000000 1.0
C      1  0.5202350000000  0.4483630000000  0.5190230000000 1.0
C      1  0.4806080000000  0.4486700000000  0.4817060000000 1.0
C      1  0.5187230000000  0.4803040000000  0.5518840000000 1.0
C      1  0.4816460000000  0.5198530000000  0.5520730000000 1.0
C      1  0.5187000000000  0.5200850000000  0.4483860000000 1.0
C      1  0.5516070000000  0.5188200000000  0.4806330000000 1.0
C      1  0.4485310000000  0.4816210000000  0.4805290000000 1.0
C      1  0.5516140000000  0.4816140000000  0.5197970000000 1.0
C      1  0.4313040000000  0.4821010000000  0.4529910000000 1.0
C      1  0.4529490000000  0.4326440000000  0.4819080000000 1.0
C      1  0.4826150000000  0.4529690000000  0.4312540000000 1.0
C      1  0.5675310000000  0.4822400000000  0.5475090000000 1.0
C      1  0.4311930000000  0.5177380000000  0.5475250000000 1.0
C      1  0.5677180000000  0.5181840000000  0.4530420000000 1.0
C      1  0.5473730000000  0.4312890000000  0.5176620000000 1.0
C      1  0.4528790000000  0.5689450000000  0.5178900000000 1.0
C      1  0.5473380000000  0.5691680000000  0.4826610000000 1.0
C      1  0.5177260000000  0.4528090000000  0.5689110000000 1.0
C      1  0.4816960000000  0.5475880000000  0.5678540000000 1.0
C      1  0.5182230000000  0.5475030000000  0.4313130000000 1.0
C      1  0.4313040000000  0.5183280000000  0.4529910000000 1.0
C      1  0.4529490000000  0.5677850000000  0.4819090000000 1.0
C      1  0.4826150000000  0.5474600000000  0.4312540000000 1.0
C      1  0.5675310000000  0.5181880000000  0.5475090000000 1.0
C      1  0.4311930000000  0.4826910000000  0.5475250000000 1.0
C      1  0.5677170000000  0.4822440000000  0.4530420000000 1.0
C      1  0.5473740000000  0.5691390000000  0.5176620000000 1.0
C      1  0.4528780000000  0.4314850000000  0.5178900000000 1.0
C      1  0.5473370000000  0.4312600000000  0.4826600000000 1.0
C      1  0.5177260000000  0.5476190000000  0.5689110000000 1.0
C      1  0.4816960000000  0.4528410000000  0.5678540000000 1.0
C      1  0.5182220000000  0.4529260000000  0.4313120000000 1.0
C      1  0.4741070000000  0.4357130000000  0.4762860000000 1.0
C      1  0.4765460000000  0.4737580000000  0.4352880000000 1.0
C      1  0.4350950000000  0.4770970000000  0.4743670000000 1.0
C      1  0.5265890000000  0.4350550000000  0.5238730000000 1.0
C      1  0.4741990000000  0.5654540000000  0.5231170000000 1.0
C      1  0.5265570000000  0.5652600000000  0.4764680000000 1.0
C      1  0.5229410000000  0.4741900000000  0.5655510000000 1.0
C      1  0.4760020000000  0.5263380000000  0.5649880000000 1.0
C      1  0.5233230000000  0.5261960000000  0.4349670000000 1.0
C      1  0.5646330000000  0.4765310000000  0.5264040000000 1.0
C      1  0.4352210000000  0.5239290000000  0.5267810000000 1.0
C      1  0.5646620000000  0.5238950000000  0.4741110000000 1.0
C      1  0.4741070000000  0.5647160000000  0.4762860000000 1.0
C      1  0.4765470000000  0.5266710000000  0.4352880000000 1.0
C      1  0.4350960000000  0.5233320000000  0.4743670000000 1.0
C      1  0.5265890000000  0.5653740000000  0.5238730000000 1.0
C      1  0.4741990000000  0.4349750000000  0.5231160000000 1.0
C      1  0.5265560000000  0.4351680000000  0.4764670000000 1.0
C      1  0.5229410000000  0.5262390000000  0.5655510000000 1.0
C      1  0.4760020000000  0.4740910000000  0.5649880000000 1.0
C      1  0.5233220000000  0.4742330000000  0.4349670000000 1.0
C      1  0.5646330000000  0.5238970000000  0.5264040000000 1.0
C      1  0.4352210000000  0.4765010000000  0.5267800000000 1.0
C      1  0.5646620000000  0.4765330000000  0.4741110000000 1.0
C      1  0.4257820000000  0.5134530000000  0.5263320000000 1.0
C      1  0.5261730000000  0.4256340000000  0.5133870000000 1.0
C      1  0.5128080000000  0.5262620000000  0.4256470000000 1.0
C      1  0.5742060000000  0.5134860000000  0.4740440000000 1.0
C      1  0.4257980000000  0.4876260000000  0.4742290000000 1.0
C      1  0.5741640000000  0.4869450000000  0.5265210000000 1.0
C      1  0.4739450000000  0.4259000000000  0.4864120000000 1.0
C      1  0.5261460000000  0.5747530000000  0.4868950000000 1.0
C      1  0.4740800000000  0.5744480000000  0.5122930000000 1.0
C      1  0.4861230000000  0.5265830000000  0.5747980000000 1.0
C      1  0.5119670000000  0.4740140000000  0.5743440000000 1.0
C      1  0.4869460000000  0.4741350000000  0.4257800000000 1.0
C      1  0.4257810000000  0.4869760000000  0.5263320000000 1.0
C      1  0.5261740000000  0.5747950000000  0.5133870000000 1.0
C      1  0.5128070000000  0.4741660000000  0.4256470000000 1.0
C      1  0.5742050000000  0.4869420000000  0.4740440000000 1.0
C      1  0.4257980000000  0.5128040000000  0.4742290000000 1.0
C      1  0.5741640000000  0.5134830000000  0.5265210000000 1.0
C      1  0.4739460000000  0.5745290000000  0.4864120000000 1.0
C      1  0.5261450000000  0.4256750000000  0.4868950000000 1.0
C      1  0.4740790000000  0.4259810000000  0.5122930000000 1.0
C      1  0.4861220000000  0.4738460000000  0.5747970000000 1.0
C      1  0.5119670000000  0.5264150000000  0.5743440000000 1.0
C      1  0.4869460000000  0.5262940000000  0.4257800000000 1.0
C      1  0.5308070000000  0.5308020000000  0.4695240000000 1.0
C      1  0.4698410000000  0.4695470000000  0.5311930000000 1.0
C      1  0.5308630000000  0.4696020000000  0.5308100000000 1.0
C      1  0.4698420000000  0.5308820000000  0.5311930000000 1.0
C      1  0.4695500000000  0.4694890000000  0.4697210000000 1.0
C      1  0.5308640000000  0.5308270000000  0.5308100000000 1.0
C      1  0.5308070000000  0.4696270000000  0.4695240000000 1.0
C      1  0.4695500000000  0.5309400000000  0.4697220000000 1.0
END
