TITL C-1379267-1329-277 -4.34485073058243e-07 1000000 -2073.70215914596 0 0 300 (C1) n - 1
REM
REM in /nfs/bkarasulu/CARBON/AIRSS/Generating-Clusters/GAP-ML-2020/Higher-Symm/Selected-Sizes/TryA-Only_Ih-Symm/Larger-Clusters/Try2-MINAMP_6A
REM
REM
REM
REM
REM
REM ./C.cell (31579ac4e95a012ec27f3239692ae8a5)
REM
REM compiler GCC version 9.2.1 20190827 (Red Hat 9.2.1-1)
REM options -cpp -mtune=generic -march=x86-64 -g -O0 -fpre-include=/usr/include/finclude/math-vector-fortran.h
REM seed -332980766 -529457165 -650269231 -1385747168 870654426 773033040 278482812 -1616752335 553647926 -543582229 -709956095 1958600440 921254534 1444283609 -1433073553 -53005096 -1594754768 -2044952515 -1665055478 -692433523 -1516299580 197267192 312304857 -93122226 -858338353 -198439886 -1590506417 2055497695 210662588 525831627 -699846137 1673767246 454203242
REM
CELL 1.54180  100.00000  100.00000  100.00000   90.00000   90.00000   90.00000
LATT -1
SFAC C  
C      1  0.5134840000000  0.5317470000000  0.4467130000000 1.0
C      1  0.4477410000000  0.5125770000000  0.5324690000000 1.0
C      1  0.5313050000000  0.4465190000000  0.5142350000000 1.0
C      1  0.4870240000000  0.5313120000000  0.5527360000000 1.0
C      1  0.5141110000000  0.4683930000000  0.5530850000000 1.0
C      1  0.4876430000000  0.4644480000000  0.4403430000000 1.0
C      1  0.5525250000000  0.5124170000000  0.4673370000000 1.0
C      1  0.4472460000000  0.4881530000000  0.4652980000000 1.0
C      1  0.5598660000000  0.4894420000000  0.5351450000000 1.0
C      1  0.4760850000000  0.4582670000000  0.4897260000000 1.0
C      1  0.5318170000000  0.5513440000000  0.4866410000000 1.0
C      1  0.4687920000000  0.5520970000000  0.5142990000000 1.0
C      1  0.4481910000000  0.5321350000000  0.5133680000000 1.0
C      1  0.5317670000000  0.5121590000000  0.4477350000000 1.0
C      1  0.5138010000000  0.4471310000000  0.5339100000000 1.0
C      1  0.5519870000000  0.5312340000000  0.4864230000000 1.0
C      1  0.5509050000000  0.4677020000000  0.5131520000000 1.0
C      1  0.4496120000000  0.4677770000000  0.4831000000000 1.0
C      1  0.4675120000000  0.5127220000000  0.5536620000000 1.0
C      1  0.4663450000000  0.4880050000000  0.4439750000000 1.0
C      1  0.5365580000000  0.4892920000000  0.5617760000000 1.0
C      1  0.4851700000000  0.4410860000000  0.4672450000000 1.0
C      1  0.4871250000000  0.5514300000000  0.5325460000000 1.0
C      1  0.5135350000000  0.5514310000000  0.4675100000000 1.0
C      1  0.4538910000000  0.5161380000000  0.4283260000000 1.0
C      1  0.4358030000000  0.4589050000000  0.5133570000000 1.0
C      1  0.5155080000000  0.4470690000000  0.4660510000000 1.0
C      1  0.5361400000000  0.5232990000000  0.5587810000000 1.0
C      1  0.4550970000000  0.4843960000000  0.5689150000000 1.0
C      1  0.5427050000000  0.4872620000000  0.4278790000000 1.0
C      1  0.5702270000000  0.4544280000000  0.4881170000000 1.0
C      1  0.4298410000000  0.5451240000000  0.4877490000000 1.0
C      1  0.5729620000000  0.5442900000000  0.5093320000000 1.0
C      1  0.4891280000000  0.4276190000000  0.5467140000000 1.0
C      1  0.5139580000000  0.5685160000000  0.5457000000000 1.0
C      1  0.4882300000000  0.5712570000000  0.4567500000000 1.0
C      1  0.4284490000000  0.5147500000000  0.4551160000000 1.0
C      1  0.5151960000000  0.4624380000000  0.4463710000000 1.0
C      1  0.4598160000000  0.4417480000000  0.5119230000000 1.0
C      1  0.5582220000000  0.5233080000000  0.5351110000000 1.0
C      1  0.5683740000000  0.4847960000000  0.4540690000000 1.0
C      1  0.4313840000000  0.4842680000000  0.5420910000000 1.0
C      1  0.4895000000000  0.4539180000000  0.5726490000000 1.0
C      1  0.4871550000000  0.5460880000000  0.4297280000000 1.0
C      1  0.5101640000000  0.5446390000000  0.5732660000000 1.0
C      1  0.5448430000000  0.4282590000000  0.4883470000000 1.0
C      1  0.5457790000000  0.5684990000000  0.5131820000000 1.0
C      1  0.4566440000000  0.5703170000000  0.4878610000000 1.0
C      1  0.4448170000000  0.5654360000000  0.4831950000000 1.0
C      1  0.4851610000000  0.4419560000000  0.5677330000000 1.0
C      1  0.5628520000000  0.4806960000000  0.4423330000000 1.0
C      1  0.5580450000000  0.5637830000000  0.5165660000000 1.0
C      1  0.4503870000000  0.4414200000000  0.5213470000000 1.0
C      1  0.5562650000000  0.4335340000000  0.4834580000000 1.0
C      1  0.5286690000000  0.4580120000000  0.4497500000000 1.0
C      1  0.4829760000000  0.5576740000000  0.4356110000000 1.0
C      1  0.5157720000000  0.5559340000000  0.5679050000000 1.0
C      1  0.4362740000000  0.4781030000000  0.5529610000000 1.0
C      1  0.5520120000000  0.5322670000000  0.5424720000000 1.0
C      1  0.4336350000000  0.5200210000000  0.4435320000000 1.0
C      1  0.4832840000000  0.5664650000000  0.4448280000000 1.0
C      1  0.5652550000000  0.4426200000000  0.4836210000000 1.0
C      1  0.4448300000000  0.4785650000000  0.5625530000000 1.0
C      1  0.5173490000000  0.5639750000000  0.5580590000000 1.0
C      1  0.5279060000000  0.4504970000000  0.4604550000000 1.0
C      1  0.4849810000000  0.4328860000000  0.5587300000000 1.0
C      1  0.4402160000000  0.4501100000000  0.5223810000000 1.0
C      1  0.4354490000000  0.5567850000000  0.4831840000000 1.0
C      1  0.5677990000000  0.5556370000000  0.5149530000000 1.0
C      1  0.5542570000000  0.4818510000000  0.4329850000000 1.0
C      1  0.5427330000000  0.5323150000000  0.5519390000000 1.0
C      1  0.4424150000000  0.5205450000000  0.4343430000000 1.0
C      1  0.4997090000000  0.4884420000000  0.5619750000000 1.0
C      1  0.5607970000000  0.4986830000000  0.4882660000000 1.0
C      1  0.4904750000000  0.5591450000000  0.5010640000000 1.0
C      1  0.4974080000000  0.4902260000000  0.4404630000000 1.0
C      1  0.4992090000000  0.5112050000000  0.4379310000000 1.0
C      1  0.4994430000000  0.5094760000000  0.5628970000000 1.0
C      1  0.4399240000000  0.4996590000000  0.5095860000000 1.0
C      1  0.5618360000000  0.4989650000000  0.5094400000000 1.0
C      1  0.4391220000000  0.5003750000000  0.4883060000000 1.0
C      1  0.5115390000000  0.5587940000000  0.5010550000000 1.0
C      1  0.4901690000000  0.4383900000000  0.5012740000000 1.0
C      1  0.5109620000000  0.4372500000000  0.5007170000000 1.0
C      1  0.5609440000000  0.4883980000000  0.4991850000000 1.0
C      1  0.4889400000000  0.4990010000000  0.5620100000000 1.0
C      1  0.5012580000000  0.5594880000000  0.4903810000000 1.0
C      1  0.4408230000000  0.4895960000000  0.4981520000000 1.0
C      1  0.4387650000000  0.5105830000000  0.4996400000000 1.0
C      1  0.5623120000000  0.5093820000000  0.4984650000000 1.0
C      1  0.5088570000000  0.4999570000000  0.4394040000000 1.0
C      1  0.5101830000000  0.4988000000000  0.5623520000000 1.0
C      1  0.4879320000000  0.5013780000000  0.4375920000000 1.0
C      1  0.5008860000000  0.5586040000000  0.5115800000000 1.0
C      1  0.4999330000000  0.4367270000000  0.4903610000000 1.0
C      1  0.5009320000000  0.4380930000000  0.5118040000000 1.0
C      1  0.4758400000000  0.5600220000000  0.5366620000000 1.0
C      1  0.5373410000000  0.4756440000000  0.5624970000000 1.0
C      1  0.5605640000000  0.5346130000000  0.4747690000000 1.0
C      1  0.5253540000000  0.5596530000000  0.4644630000000 1.0
C      1  0.4711340000000  0.4395430000000  0.4661980000000 1.0
C      1  0.5257180000000  0.4389270000000  0.5368140000000 1.0
C      1  0.4643630000000  0.4749150000000  0.4378630000000 1.0
C      1  0.5356250000000  0.5237480000000  0.4392690000000 1.0
C      1  0.4648330000000  0.5246520000000  0.5614980000000 1.0
C      1  0.4398530000000  0.5350530000000  0.5251260000000 1.0
C      1  0.5595760000000  0.4657240000000  0.5249500000000 1.0
C      1  0.4386190000000  0.4661710000000  0.4731160000000 1.0
C      1  0.5358340000000  0.5595140000000  0.4750350000000 1.0
C      1  0.5613110000000  0.4758150000000  0.5357190000000 1.0
C      1  0.4753710000000  0.5349870000000  0.5612700000000 1.0
C      1  0.4652470000000  0.5603240000000  0.5258860000000 1.0
C      1  0.4587460000000  0.4406260000000  0.4749800000000 1.0
C      1  0.5358780000000  0.4389020000000  0.5259910000000 1.0
C      1  0.4384610000000  0.4767610000000  0.4630230000000 1.0
C      1  0.4396740000000  0.5244770000000  0.5353790000000 1.0
C      1  0.5607990000000  0.5240790000000  0.4643820000000 1.0
C      1  0.5254270000000  0.5345120000000  0.4388460000000 1.0
C      1  0.5262550000000  0.4658310000000  0.5610000000000 1.0
C      1  0.4740480000000  0.4638940000000  0.4383010000000 1.0
C      1  0.4558350000000  0.5565720000000  0.5084650000000 1.0
C      1  0.5093120000000  0.4548940000000  0.5576120000000 1.0
C      1  0.5559720000000  0.5062650000000  0.4541650000000 1.0
C      1  0.5451670000000  0.5557220000000  0.4918980000000 1.0
C      1  0.4554610000000  0.4416320000000  0.4884920000000 1.0
C      1  0.5446130000000  0.4423370000000  0.5088050000000 1.0
C      1  0.4945800000000  0.4522310000000  0.4419880000000 1.0
C      1  0.5080010000000  0.5451650000000  0.4431670000000 1.0
C      1  0.4960430000000  0.5434550000000  0.5521420000000 1.0
C      1  0.4474260000000  0.5036820000000  0.5445490000000 1.0
C      1  0.5522990000000  0.4993050000000  0.5442950000000 1.0
C      1  0.4470700000000  0.4972880000000  0.4533020000000 1.0
C      1  0.5047460000000  0.5517050000000  0.4554080000000 1.0
C      1  0.5509770000000  0.4546290000000  0.5052550000000 1.0
C      1  0.4544360000000  0.5062110000000  0.5567220000000 1.0
C      1  0.4926490000000  0.5558060000000  0.5457410000000 1.0
C      1  0.4938780000000  0.4464370000000  0.4562000000000 1.0
C      1  0.5058880000000  0.4471360000000  0.5463900000000 1.0
C      1  0.4513400000000  0.4556670000000  0.4920690000000 1.0
C      1  0.4488180000000  0.5446710000000  0.5049160000000 1.0
C      1  0.5515940000000  0.5433790000000  0.4954010000000 1.0
C      1  0.5435300000000  0.5028500000000  0.4480430000000 1.0
C      1  0.5460260000000  0.4997140000000  0.5580140000000 1.0
C      1  0.4535170000000  0.4945670000000  0.4409030000000 1.0
C      1  0.5247770000000  0.4421270000000  0.5003010000000 1.0
C      1  0.4996950000000  0.5252010000000  0.4425090000000 1.0
C      1  0.4436480000000  0.4995280000000  0.5237300000000 1.0
C      1  0.4774950000000  0.4446450000000  0.4986660000000 1.0
C      1  0.5255610000000  0.5547210000000  0.5009330000000 1.0
C      1  0.4762670000000  0.5557380000000  0.5009230000000 1.0
C      1  0.4999490000000  0.5232110000000  0.5581330000000 1.0
C      1  0.5004760000000  0.4744130000000  0.5580920000000 1.0
C      1  0.4943380000000  0.4775390000000  0.4478080000000 1.0
C      1  0.5559550000000  0.4985520000000  0.4744180000000 1.0
C      1  0.4426920000000  0.5009670000000  0.4740970000000 1.0
C      1  0.5562470000000  0.4986760000000  0.5230380000000 1.0
C      1  0.5008220000000  0.4417390000000  0.5260300000000 1.0
C      1  0.4431920000000  0.5245010000000  0.5000680000000 1.0
C      1  0.5228940000000  0.4992320000000  0.4432900000000 1.0
C      1  0.4974520000000  0.4413090000000  0.4766460000000 1.0
C      1  0.5009860000000  0.5546360000000  0.5257130000000 1.0
C      1  0.5008890000000  0.5561130000000  0.4761460000000 1.0
C      1  0.5575630000000  0.5231110000000  0.4990920000000 1.0
C      1  0.5562640000000  0.4746500000000  0.4998690000000 1.0
C      1  0.4469490000000  0.4761320000000  0.4967200000000 1.0
C      1  0.4749450000000  0.4992860000000  0.5575760000000 1.0
C      1  0.4737730000000  0.5018980000000  0.4408020000000 1.0
C      1  0.5240100000000  0.4985350000000  0.5570860000000 1.0
C      1  0.5459320000000  0.4657890000000  0.5555160000000 1.0
C      1  0.5555330000000  0.5442400000000  0.4648370000000 1.0
C      1  0.4656910000000  0.5548150000000  0.5459720000000 1.0
C      1  0.4538750000000  0.4662620000000  0.4437300000000 1.0
C      1  0.5454090000000  0.5335100000000  0.4445400000000 1.0
C      1  0.4551450000000  0.5340910000000  0.5556970000000 1.0
C      1  0.4453810000000  0.5446140000000  0.5349760000000 1.0
C      1  0.5549790000000  0.4555560000000  0.5347730000000 1.0
C      1  0.4415950000000  0.4562170000000  0.4627930000000 1.0
C      1  0.5349400000000  0.5543150000000  0.4546000000000 1.0
C      1  0.4629140000000  0.4456210000000  0.4552080000000 1.0
C      1  0.5353860000000  0.4451210000000  0.5460920000000 1.0
C      1  0.5556070000000  0.4658980000000  0.5450420000000 1.0
C      1  0.4655060000000  0.5446220000000  0.5559620000000 1.0
C      1  0.5453750000000  0.5543070000000  0.4650450000000 1.0
C      1  0.4430470000000  0.4669240000000  0.4528430000000 1.0
C      1  0.4453060000000  0.5339110000000  0.5452680000000 1.0
C      1  0.5556100000000  0.5336870000000  0.4545370000000 1.0
C      1  0.5350710000000  0.5441190000000  0.4444330000000 1.0
C      1  0.5355460000000  0.4555770000000  0.5555020000000 1.0
C      1  0.4636570000000  0.4554140000000  0.4446120000000 1.0
C      1  0.4554350000000  0.5548800000000  0.5354060000000 1.0
C      1  0.4511900000000  0.4461450000000  0.4637740000000 1.0
C      1  0.5454210000000  0.4452130000000  0.5352970000000 1.0
C      1  0.4364480000000  0.5385810000000  0.4969900000000 1.0
C      1  0.4982840000000  0.4340030000000  0.5400540000000 1.0
C      1  0.5364380000000  0.4955640000000  0.4359180000000 1.0
C      1  0.5644740000000  0.5372720000000  0.5020440000000 1.0
C      1  0.4420760000000  0.4623220000000  0.5021080000000 1.0
C      1  0.5632910000000  0.4607780000000  0.4972990000000 1.0
C      1  0.5051730000000  0.4386030000000  0.4625300000000 1.0
C      1  0.4974030000000  0.5639930000000  0.4625830000000 1.0
C      1  0.5038000000000  0.5629310000000  0.5394850000000 1.0
C      1  0.4606720000000  0.4954890000000  0.5645780000000 1.0
C      1  0.5351940000000  0.5099180000000  0.5588130000000 1.0
C      1  0.4597930000000  0.5055550000000  0.4335120000000 1.0
C      1  0.4970810000000  0.5394540000000  0.4352250000000 1.0
C      1  0.5384450000000  0.4345000000000  0.4980230000000 1.0
C      1  0.4361770000000  0.4953710000000  0.5370550000000 1.0
C      1  0.5029110000000  0.5374270000000  0.5649040000000 1.0
C      1  0.5078760000000  0.4540110000000  0.4386500000000 1.0
C      1  0.4989030000000  0.4605800000000  0.5663350000000 1.0
C      1  0.4638930000000  0.4369440000000  0.4988640000000 1.0
C      1  0.4624540000000  0.5642150000000  0.4979130000000 1.0
C      1  0.5392400000000  0.5629000000000  0.5032040000000 1.0
C      1  0.5633200000000  0.4952130000000  0.4603000000000 1.0
C      1  0.5562350000000  0.5100140000000  0.5338320000000 1.0
C      1  0.4351060000000  0.5049260000000  0.4606460000000 1.0
C      1  0.5320860000000  0.4769970000000  0.4873320000000 1.0
C      1  0.4872730000000  0.5321780000000  0.4776700000000 1.0
C      1  0.4766930000000  0.4851680000000  0.5346270000000 1.0
C      1  0.4681250000000  0.4762370000000  0.5131550000000 1.0
C      1  0.5338900000000  0.5195190000000  0.5137460000000 1.0
C      1  0.4674490000000  0.5216110000000  0.4871730000000 1.0
C      1  0.5148160000000  0.5306720000000  0.5245920000000 1.0
C      1  0.4842070000000  0.4638110000000  0.5261290000000 1.0
C      1  0.5108500000000  0.4673510000000  0.4795390000000 1.0
C      1  0.5203060000000  0.4863700000000  0.4678260000000 1.0
C      1  0.4767900000000  0.5132390000000  0.4655510000000 1.0
C      1  0.5216520000000  0.5081110000000  0.5317080000000 1.0
C      1  0.4853410000000  0.4745100000000  0.5359110000000 1.0
C      1  0.4777490000000  0.5320480000000  0.4876180000000 1.0
C      1  0.5316100000000  0.4865020000000  0.4774650000000 1.0
C      1  0.5108160000000  0.4764460000000  0.4684670000000 1.0
C      1  0.5141030000000  0.5195910000000  0.5342390000000 1.0
C      1  0.4868250000000  0.5225910000000  0.4663300000000 1.0
C      1  0.5244090000000  0.5307020000000  0.5147170000000 1.0
C      1  0.5218620000000  0.4664440000000  0.4879370000000 1.0
C      1  0.4747530000000  0.4641310000000  0.5165190000000 1.0
C      1  0.4673210000000  0.4858210000000  0.5231340000000 1.0
C      1  0.4670350000000  0.5128880000000  0.4765050000000 1.0
C      1  0.5311660000000  0.5080550000000  0.5212480000000 1.0
C      1  0.4817860000000  0.5372160000000  0.5291280000000 1.0
C      1  0.5231200000000  0.4835320000000  0.5337030000000 1.0
C      1  0.5380630000000  0.5270590000000  0.4815660000000 1.0
C      1  0.5183130000000  0.5373210000000  0.4714850000000 1.0
C      1  0.4853950000000  0.4688170000000  0.4683100000000 1.0
C      1  0.5186690000000  0.4607790000000  0.5295060000000 1.0
C      1  0.4712000000000  0.4853320000000  0.4586990000000 1.0
C      1  0.5278430000000  0.5174040000000  0.4616140000000 1.0
C      1  0.4715330000000  0.5173080000000  0.5388940000000 1.0
C      1  0.4621380000000  0.5275590000000  0.5186610000000 1.0
C      1  0.5361530000000  0.4715740000000  0.5164610000000 1.0
C      1  0.4627460000000  0.4723940000000  0.4769150000000 1.0
C      1  0.5282670000000  0.5371250000000  0.4814940000000 1.0
C      1  0.5325510000000  0.4835050000000  0.5228750000000 1.0
C      1  0.4818440000000  0.5270770000000  0.5388840000000 1.0
C      1  0.4720350000000  0.5374460000000  0.5190260000000 1.0
C      1  0.4758570000000  0.4665710000000  0.4786540000000 1.0
C      1  0.5278190000000  0.4606960000000  0.5189840000000 1.0
C      1  0.4613460000000  0.4827850000000  0.4680640000000 1.0
C      1  0.4618920000000  0.5175370000000  0.5287710000000 1.0
C      1  0.5380050000000  0.5173890000000  0.4712440000000 1.0
C      1  0.5180280000000  0.5276430000000  0.4614680000000 1.0
C      1  0.5168600000000  0.4716440000000  0.5378890000000 1.0
C      1  0.4837680000000  0.4792320000000  0.4595100000000 1.0
C      1  0.4721670000000  0.5437400000000  0.4933730000000 1.0
C      1  0.4925640000000  0.4696250000000  0.5466580000000 1.0
C      1  0.5432050000000  0.4915520000000  0.4711950000000 1.0
C      1  0.5295710000000  0.5423890000000  0.5084470000000 1.0
C      1  0.4697230000000  0.4529250000000  0.5093120000000 1.0
C      1  0.5279910000000  0.4545390000000  0.4927060000000 1.0
C      1  0.5050900000000  0.4702520000000  0.4559160000000 1.0
C      1  0.4924920000000  0.5287620000000  0.4549840000000 1.0
C      1  0.5084870000000  0.5253900000000  0.5459320000000 1.0
C      1  0.4559160000000  0.4919230000000  0.5273170000000 1.0
C      1  0.5403160000000  0.4964320000000  0.5238390000000 1.0
C      1  0.4548620000000  0.5087610000000  0.4708980000000 1.0
C      1  0.4924960000000  0.5442200000000  0.4726790000000 1.0
C      1  0.5441290000000  0.4714400000000  0.4919420000000 1.0
C      1  0.4712880000000  0.4922660000000  0.5451540000000 1.0
C      1  0.5086510000000  0.5423780000000  0.5297890000000 1.0
C      1  0.5047610000000  0.4549370000000  0.4742890000000 1.0
C      1  0.4916740000000  0.4528040000000  0.5301480000000 1.0
C      1  0.4607150000000  0.4743930000000  0.5016730000000 1.0
C      1  0.4556100000000  0.5273120000000  0.4923190000000 1.0
C      1  0.5455710000000  0.5252500000000  0.5079540000000 1.0
C      1  0.5256780000000  0.4912180000000  0.4556270000000 1.0
C      1  0.5251140000000  0.4965680000000  0.5412840000000 1.0
C      1  0.4705510000000  0.5085230000000  0.4536890000000 1.0
C      1  0.5390880000000  0.4937410000000  0.4581660000000 1.0
C      1  0.4588560000000  0.5403530000000  0.4954910000000 1.0
C      1  0.5412820000000  0.4583290000000  0.4951690000000 1.0
C      1  0.5058610000000  0.5386900000000  0.5428060000000 1.0
C      1  0.5424550000000  0.5385900000000  0.5053750000000 1.0
C      1  0.4951530000000  0.5417360000000  0.4593140000000 1.0
C      1  0.4965270000000  0.4601420000000  0.4636640000000 1.0
C      1  0.4956750000000  0.4565100000000  0.5429030000000 1.0
C      1  0.4573620000000  0.5063890000000  0.4574580000000 1.0
C      1  0.4582750000000  0.4949380000000  0.5407440000000 1.0
C      1  0.4639040000000  0.4609380000000  0.4978670000000 1.0
C      1  0.5396070000000  0.4966730000000  0.5383870000000 1.0
END
