TITL C-1379268-1316-440 -3.85876457257849e-07 1000000 -2433.01899420953 0 0 340 (C1) n - 1
REM
REM in /nfs/bkarasulu/CARBON/AIRSS/Generating-Clusters/GAP-ML-2020/Higher-Symm/Selected-Sizes/TryA-Only_Ih-Symm/Larger-Clusters/Try2-MINAMP_6A
REM
REM
REM
REM
REM
REM ./C.cell (31579ac4e95a012ec27f3239692ae8a5)
REM
REM compiler GCC version 9.2.1 20190827 (Red Hat 9.2.1-1)
REM options -cpp -mtune=generic -march=x86-64 -g -O0 -fpre-include=/usr/include/finclude/math-vector-fortran.h
REM seed 46661116 -1015832630 469562980 -2138750254 -1344035266 -1196918657 -2021581530 1222723834 -1272844331 -916049628 374269287 -396954562 1437475905 -932685358 1315873653 -1372043467 312176710 -330122196 -779738170 1924722367 2022222605 -761124369 1544918984 -1189965033 1834243819 -743035948 1121610679 512832394 1683901899 1111889197 -101837590 1654733970 962466738
REM
CELL 1.54180  100.00000  100.00000  100.00000   90.00000   90.00000   90.00000
LATT -1
SFAC C  
C      1  0.4341320000000  0.4464860000000  0.4826270000000 1.0
C      1  0.4472210000000  0.4872450000000  0.4339240000000 1.0
C      1  0.4866050000000  0.4374290000000  0.4455780000000 1.0
C      1  0.5639990000000  0.5561930000000  0.4828730000000 1.0
C      1  0.4347820000000  0.5558350000000  0.5156790000000 1.0
C      1  0.5634510000000  0.4448040000000  0.5167390000000 1.0
C      1  0.5533370000000  0.5142730000000  0.4343680000000 1.0
C      1  0.4467770000000  0.5135040000000  0.5641090000000 1.0
C      1  0.5531200000000  0.4864260000000  0.5657270000000 1.0
C      1  0.5130900000000  0.5638080000000  0.4429970000000 1.0
C      1  0.4864420000000  0.5634130000000  0.5548320000000 1.0
C      1  0.5136890000000  0.4360650000000  0.5581320000000 1.0
C      1  0.4428740000000  0.4362320000000  0.4825640000000 1.0
C      1  0.4871840000000  0.4473350000000  0.4362370000000 1.0
C      1  0.4367290000000  0.4869720000000  0.4425210000000 1.0
C      1  0.5541260000000  0.5653870000000  0.4829920000000 1.0
C      1  0.5535150000000  0.4357320000000  0.5165320000000 1.0
C      1  0.4442580000000  0.5652290000000  0.5158220000000 1.0
C      1  0.5126720000000  0.5534710000000  0.4343220000000 1.0
C      1  0.5131760000000  0.4466740000000  0.5665820000000 1.0
C      1  0.4867400000000  0.5531950000000  0.5638740000000 1.0
C      1  0.5636070000000  0.5149380000000  0.4432460000000 1.0
C      1  0.5635050000000  0.4857480000000  0.5569860000000 1.0
C      1  0.4365600000000  0.5138190000000  0.5550530000000 1.0
C      1  0.5139410000000  0.5330610000000  0.5504520000000 1.0
C      1  0.5306700000000  0.5498790000000  0.5085790000000 1.0
C      1  0.5524800000000  0.5110570000000  0.5302800000000 1.0
C      1  0.4862840000000  0.4657470000000  0.5514070000000 1.0
C      1  0.5134090000000  0.4683210000000  0.4502630000000 1.0
C      1  0.4877970000000  0.5322970000000  0.4507000000000 1.0
C      1  0.4678400000000  0.4466820000000  0.5107160000000 1.0
C      1  0.5291280000000  0.4524560000000  0.4927200000000 1.0
C      1  0.4697470000000  0.5504690000000  0.4914120000000 1.0
C      1  0.4492620000000  0.4884100000000  0.5298240000000 1.0
C      1  0.5520770000000  0.4901750000000  0.4701640000000 1.0
C      1  0.4484610000000  0.5111610000000  0.4699230000000 1.0
C      1  0.5333280000000  0.5128200000000  0.5503890000000 1.0
C      1  0.5520210000000  0.5307020000000  0.5093670000000 1.0
C      1  0.5111770000000  0.5503410000000  0.5293170000000 1.0
C      1  0.4661410000000  0.4853130000000  0.5513650000000 1.0
C      1  0.4678730000000  0.5127140000000  0.4502530000000 1.0
C      1  0.5332100000000  0.4881180000000  0.4498230000000 1.0
C      1  0.4497230000000  0.4688650000000  0.5089420000000 1.0
C      1  0.4489480000000  0.5307350000000  0.4906950000000 1.0
C      1  0.5510710000000  0.4709680000000  0.4913400000000 1.0
C      1  0.4876970000000  0.4461930000000  0.5315170000000 1.0
C      1  0.4896660000000  0.5510320000000  0.4708910000000 1.0
C      1  0.5097590000000  0.4518910000000  0.4719380000000 1.0
C      1  0.5269420000000  0.5154970000000  0.5630180000000 1.0
C      1  0.5100140000000  0.5589180000000  0.5184470000000 1.0
C      1  0.5622720000000  0.5208910000000  0.5101040000000 1.0
C      1  0.4729900000000  0.4835280000000  0.5639210000000 1.0
C      1  0.5271470000000  0.4848740000000  0.4371570000000 1.0
C      1  0.4735410000000  0.5163530000000  0.4375410000000 1.0
C      1  0.4878740000000  0.4364620000000  0.5211780000000 1.0
C      1  0.5082720000000  0.4433940000000  0.4829610000000 1.0
C      1  0.4900710000000  0.5605860000000  0.4810160000000 1.0
C      1  0.4416640000000  0.4803700000000  0.5079830000000 1.0
C      1  0.5616170000000  0.4804340000000  0.4904190000000 1.0
C      1  0.4385750000000  0.5211790000000  0.4895700000000 1.0
C      1  0.5162510000000  0.5266600000000  0.5631420000000 1.0
C      1  0.5624820000000  0.5110290000000  0.5202890000000 1.0
C      1  0.5197210000000  0.5586660000000  0.5081280000000 1.0
C      1  0.4841570000000  0.4727890000000  0.5638090000000 1.0
C      1  0.4845830000000  0.5269920000000  0.4377530000000 1.0
C      1  0.5162750000000  0.4739190000000  0.4373280000000 1.0
C      1  0.4415130000000  0.4900460000000  0.5184340000000 1.0
C      1  0.4381900000000  0.5113340000000  0.4795500000000 1.0
C      1  0.5620840000000  0.4901580000000  0.4801600000000 1.0
C      1  0.4779690000000  0.4366980000000  0.5112740000000 1.0
C      1  0.4799060000000  0.5603310000000  0.4909080000000 1.0
C      1  0.5180960000000  0.4435790000000  0.4931950000000 1.0
C      1  0.4300610000000  0.4985990000000  0.5168010000000 1.0
C      1  0.4941370000000  0.5166200000000  0.4323010000000 1.0
C      1  0.5152990000000  0.4324270000000  0.5017310000000 1.0
C      1  0.5742190000000  0.5021730000000  0.5204560000000 1.0
C      1  0.4253600000000  0.5041970000000  0.4782190000000 1.0
C      1  0.5740610000000  0.4987420000000  0.4799020000000 1.0
C      1  0.5064200000000  0.4843230000000  0.4323840000000 1.0
C      1  0.4939400000000  0.4837430000000  0.5673680000000 1.0
C      1  0.5061080000000  0.5160700000000  0.5671610000000 1.0
C      1  0.4783230000000  0.5732980000000  0.4975510000000 1.0
C      1  0.5170220000000  0.5699790000000  0.4996230000000 1.0
C      1  0.4756290000000  0.4248840000000  0.5025620000000 1.0
C      1  0.4965930000000  0.4243410000000  0.5226830000000 1.0
C      1  0.5165410000000  0.4944780000000  0.4322240000000 1.0
C      1  0.4265590000000  0.5218510000000  0.4978020000000 1.0
C      1  0.5014560000000  0.5705020000000  0.5167360000000 1.0
C      1  0.4995160000000  0.4319670000000  0.4848220000000 1.0
C      1  0.4966750000000  0.5737280000000  0.4790640000000 1.0
C      1  0.4839640000000  0.5065780000000  0.4321510000000 1.0
C      1  0.4837610000000  0.4937980000000  0.5672610000000 1.0
C      1  0.5161500000000  0.5058410000000  0.5672720000000 1.0
C      1  0.5731100000000  0.4798280000000  0.4993830000000 1.0
C      1  0.5736010000000  0.5212390000000  0.5009370000000 1.0
C      1  0.4302930000000  0.4833750000000  0.4995080000000 1.0
C      1  0.4850430000000  0.4330360000000  0.4658950000000 1.0
C      1  0.4320740000000  0.4669490000000  0.4830320000000 1.0
C      1  0.4682210000000  0.4888510000000  0.4329530000000 1.0
C      1  0.5138950000000  0.5705680000000  0.4624810000000 1.0
C      1  0.4858610000000  0.5683780000000  0.5345530000000 1.0
C      1  0.5142490000000  0.4292720000000  0.5385740000000 1.0
C      1  0.5689540000000  0.5363020000000  0.4827820000000 1.0
C      1  0.4308760000000  0.5359070000000  0.5157330000000 1.0
C      1  0.5684870000000  0.4646700000000  0.5172980000000 1.0
C      1  0.5323850000000  0.5122400000000  0.4329450000000 1.0
C      1  0.4677350000000  0.5113740000000  0.5657140000000 1.0
C      1  0.5321330000000  0.4883080000000  0.5667860000000 1.0
C      1  0.4298470000000  0.4865110000000  0.4621100000000 1.0
C      1  0.4624470000000  0.4302910000000  0.4831590000000 1.0
C      1  0.4888550000000  0.4682590000000  0.4337080000000 1.0
C      1  0.5695080000000  0.5158250000000  0.4631680000000 1.0
C      1  0.5695280000000  0.4849790000000  0.5371250000000 1.0
C      1  0.4318140000000  0.5142570000000  0.5348100000000 1.0
C      1  0.5337310000000  0.5680970000000  0.4831690000000 1.0
C      1  0.5331830000000  0.4332060000000  0.5170040000000 1.0
C      1  0.4640770000000  0.5695740000000  0.5156560000000 1.0
C      1  0.5115710000000  0.5325430000000  0.4330360000000 1.0
C      1  0.5112860000000  0.4676200000000  0.5669760000000 1.0
C      1  0.4885960000000  0.5321700000000  0.5656650000000 1.0
C      1  0.4553450000000  0.5677760000000  0.4714840000000 1.0
C      1  0.5652720000000  0.4542950000000  0.4685530000000 1.0
C      1  0.4635590000000  0.4448060000000  0.5635810000000 1.0
C      1  0.5475840000000  0.4372290000000  0.4695140000000 1.0
C      1  0.4581430000000  0.4245010000000  0.5316000000000 1.0
C      1  0.5498000000000  0.5637870000000  0.5343830000000 1.0
C      1  0.4371710000000  0.5522700000000  0.4710050000000 1.0
C      1  0.5660790000000  0.5454860000000  0.5339530000000 1.0
C      1  0.4465090000000  0.4451250000000  0.5439840000000 1.0
C      1  0.5385970000000  0.5533650000000  0.5605940000000 1.0
C      1  0.4645850000000  0.5566300000000  0.4432030000000 1.0
C      1  0.5375840000000  0.4465560000000  0.4421290000000 1.0
C      1  0.5752260000000  0.4602960000000  0.4729630000000 1.0
C      1  0.4485700000000  0.5577920000000  0.4645120000000 1.0
C      1  0.4458790000000  0.4611340000000  0.5645980000000 1.0
C      1  0.4273160000000  0.5460160000000  0.4754770000000 1.0
C      1  0.4351930000000  0.4514080000000  0.5391910000000 1.0
C      1  0.5758550000000  0.5396790000000  0.5288830000000 1.0
C      1  0.5541910000000  0.4475610000000  0.4626390000000 1.0
C      1  0.5554420000000  0.5524760000000  0.5402820000000 1.0
C      1  0.4527460000000  0.4344620000000  0.5367800000000 1.0
C      1  0.5552910000000  0.5361420000000  0.5605970000000 1.0
C      1  0.5546900000000  0.4633480000000  0.4419050000000 1.0
C      1  0.4473850000000  0.5401450000000  0.4450630000000 1.0
C      1  0.5852640000000  0.4896940000000  0.4809460000000 1.0
C      1  0.4765040000000  0.4649600000000  0.5748480000000 1.0
C      1  0.4741360000000  0.5810930000000  0.4864700000000 1.0
C      1  0.4154450000000  0.5148940000000  0.4778980000000 1.0
C      1  0.5855970000000  0.5110260000000  0.5193910000000 1.0
C      1  0.4188000000000  0.4784550000000  0.5192030000000 1.0
C      1  0.5251780000000  0.5345120000000  0.5731900000000 1.0
C      1  0.4753360000000  0.5366090000000  0.4289850000000 1.0
C      1  0.5252650000000  0.4652050000000  0.4280120000000 1.0
C      1  0.5086120000000  0.4229060000000  0.4922420000000 1.0
C      1  0.4667540000000  0.4177770000000  0.5101410000000 1.0
C      1  0.5111960000000  0.5793490000000  0.5098730000000 1.0
C      1  0.4853760000000  0.5827810000000  0.4767850000000 1.0
C      1  0.4656870000000  0.4753140000000  0.5747980000000 1.0
C      1  0.5832820000000  0.4777780000000  0.4901730000000 1.0
C      1  0.5189760000000  0.4191180000000  0.4839850000000 1.0
C      1  0.5216210000000  0.5819350000000  0.5184920000000 1.0
C      1  0.4885020000000  0.4139460000000  0.5257920000000 1.0
C      1  0.5354850000000  0.5237280000000  0.5732330000000 1.0
C      1  0.5358360000000  0.4757210000000  0.4279010000000 1.0
C      1  0.4644750000000  0.5266100000000  0.4295850000000 1.0
C      1  0.4168030000000  0.5259610000000  0.4886120000000 1.0
C      1  0.4212140000000  0.4886770000000  0.5102680000000 1.0
C      1  0.5834390000000  0.5231710000000  0.5104780000000 1.0
C      1  0.4648400000000  0.5767840000000  0.4745690000000 1.0
C      1  0.5907820000000  0.4803760000000  0.4716340000000 1.0
C      1  0.4672470000000  0.4543910000000  0.5726550000000 1.0
C      1  0.5400810000000  0.4279560000000  0.4736290000000 1.0
C      1  0.4658810000000  0.4157280000000  0.5237070000000 1.0
C      1  0.5422880000000  0.5727880000000  0.5297960000000 1.0
C      1  0.4127300000000  0.5256210000000  0.4691070000000 1.0
C      1  0.5917070000000  0.5198980000000  0.5286570000000 1.0
C      1  0.4211000000000  0.4689700000000  0.5269260000000 1.0
C      1  0.5350920000000  0.5443050000000  0.5702140000000 1.0
C      1  0.4666400000000  0.5474100000000  0.4330690000000 1.0
C      1  0.5346680000000  0.4551900000000  0.4319110000000 1.0
C      1  0.5844300000000  0.4691400000000  0.4781970000000 1.0
C      1  0.4759330000000  0.5829110000000  0.4662330000000 1.0
C      1  0.4558540000000  0.4653850000000  0.5727680000000 1.0
C      1  0.4182090000000  0.5360060000000  0.4780400000000 1.0
C      1  0.4271630000000  0.4592500000000  0.5335510000000 1.0
C      1  0.5850600000000  0.5313970000000  0.5227260000000 1.0
C      1  0.5295660000000  0.4207910000000  0.4776680000000 1.0
C      1  0.5318390000000  0.5796660000000  0.5251960000000 1.0
C      1  0.4772860000000  0.4086340000000  0.5287830000000 1.0
C      1  0.5460340000000  0.5328900000000  0.5702190000000 1.0
C      1  0.5459020000000  0.4662980000000  0.4317550000000 1.0
C      1  0.4551210000000  0.5368400000000  0.4339910000000 1.0
C      1  0.5425860000000  0.5522190000000  0.5012870000000 1.0
C      1  0.5540840000000  0.5037870000000  0.5425190000000 1.0
C      1  0.5056760000000  0.5438000000000  0.5517420000000 1.0
C      1  0.4561120000000  0.4458570000000  0.5022970000000 1.0
C      1  0.5413360000000  0.4496140000000  0.4993770000000 1.0
C      1  0.4573180000000  0.5527260000000  0.4980800000000 1.0
C      1  0.4464400000000  0.4951880000000  0.5420240000000 1.0
C      1  0.5539410000000  0.4970920000000  0.4577740000000 1.0
C      1  0.4466070000000  0.5043820000000  0.4574470000000 1.0
C      1  0.4945350000000  0.4550440000000  0.5531300000000 1.0
C      1  0.5051880000000  0.4575400000000  0.4491090000000 1.0
C      1  0.4957030000000  0.5433080000000  0.4489350000000 1.0
C      1  0.5531670000000  0.5426950000000  0.5015330000000 1.0
C      1  0.5046970000000  0.5532800000000  0.5415800000000 1.0
C      1  0.5440090000000  0.5045880000000  0.5520920000000 1.0
C      1  0.4472620000000  0.4570700000000  0.5014410000000 1.0
C      1  0.4471950000000  0.5428840000000  0.4979410000000 1.0
C      1  0.5521040000000  0.4588990000000  0.4990040000000 1.0
C      1  0.4950770000000  0.4446160000000  0.5437730000000 1.0
C      1  0.4963690000000  0.5533780000000  0.4583970000000 1.0
C      1  0.5038520000000  0.4484250000000  0.4595410000000 1.0
C      1  0.4556760000000  0.4939520000000  0.5524200000000 1.0
C      1  0.4568970000000  0.5048530000000  0.4482020000000 1.0
C      1  0.5439810000000  0.4962400000000  0.4480950000000 1.0
C      1  0.5418410000000  0.4771990000000  0.5656120000000 1.0
C      1  0.4757800000000  0.5649310000000  0.5448390000000 1.0
C      1  0.5653280000000  0.5460940000000  0.4722750000000 1.0
C      1  0.4581550000000  0.5225880000000  0.5637770000000 1.0
C      1  0.5420150000000  0.5234660000000  0.4342670000000 1.0
C      1  0.4583470000000  0.4777940000000  0.4341270000000 1.0
C      1  0.5242820000000  0.4343710000000  0.5481640000000 1.0
C      1  0.4754400000000  0.4360080000000  0.4550220000000 1.0
C      1  0.5239340000000  0.5659970000000  0.4525970000000 1.0
C      1  0.4338240000000  0.4570120000000  0.4722870000000 1.0
C      1  0.5649150000000  0.4546930000000  0.5275310000000 1.0
C      1  0.4342790000000  0.5454990000000  0.5261340000000 1.0
C      1  0.4775270000000  0.5419250000000  0.5637730000000 1.0
C      1  0.5650880000000  0.4749680000000  0.5471130000000 1.0
C      1  0.5437410000000  0.5662250000000  0.4725300000000 1.0
C      1  0.5224030000000  0.4579480000000  0.5659090000000 1.0
C      1  0.5224120000000  0.5425930000000  0.4340980000000 1.0
C      1  0.4778020000000  0.4584650000000  0.4354870000000 1.0
C      1  0.4352140000000  0.5244250000000  0.5449540000000 1.0
C      1  0.4345000000000  0.4763500000000  0.4523240000000 1.0
C      1  0.5651990000000  0.5257710000000  0.4530260000000 1.0
C      1  0.4533480000000  0.4348440000000  0.4723950000000 1.0
C      1  0.4546160000000  0.5660380000000  0.5262470000000 1.0
C      1  0.5434770000000  0.4348460000000  0.5272730000000 1.0
C      1  0.4701340000000  0.5199250000000  0.4619600000000 1.0
C      1  0.5193110000000  0.4625780000000  0.4727530000000 1.0
C      1  0.4595840000000  0.4685080000000  0.5192060000000 1.0
C      1  0.5307690000000  0.4811860000000  0.4615670000000 1.0
C      1  0.4686800000000  0.4776940000000  0.5399980000000 1.0
C      1  0.5312830000000  0.5202780000000  0.5389170000000 1.0
C      1  0.4810790000000  0.5394500000000  0.4726260000000 1.0
C      1  0.5206980000000  0.5396870000000  0.5284440000000 1.0
C      1  0.4787560000000  0.4573390000000  0.5300990000000 1.0
C      1  0.5410290000000  0.5297040000000  0.5184090000000 1.0
C      1  0.4603030000000  0.5295080000000  0.4822170000000 1.0
C      1  0.5399570000000  0.4722540000000  0.4825320000000 1.0
C      1  0.5204940000000  0.4714320000000  0.4618020000000 1.0
C      1  0.4600290000000  0.5195390000000  0.4719160000000 1.0
C      1  0.4689120000000  0.4576990000000  0.5197760000000 1.0
C      1  0.4803250000000  0.5298340000000  0.4621720000000 1.0
C      1  0.4785990000000  0.4675860000000  0.5400510000000 1.0
C      1  0.5212820000000  0.5303110000000  0.5389630000000 1.0
C      1  0.5405890000000  0.4817700000000  0.4718840000000 1.0
C      1  0.5412950000000  0.5198730000000  0.5287470000000 1.0
C      1  0.4594260000000  0.4784120000000  0.5293640000000 1.0
C      1  0.5305270000000  0.5393920000000  0.5181870000000 1.0
C      1  0.5290780000000  0.4629570000000  0.4831120000000 1.0
C      1  0.4708520000000  0.5392750000000  0.4826880000000 1.0
C      1  0.5634920000000  0.4556030000000  0.5069840000000 1.0
C      1  0.4562460000000  0.5025900000000  0.5637570000000 1.0
C      1  0.5036290000000  0.5649080000000  0.4540570000000 1.0
C      1  0.4353200000000  0.5454580000000  0.5054490000000 1.0
C      1  0.5641020000000  0.5455660000000  0.4928400000000 1.0
C      1  0.4361170000000  0.4567700000000  0.4926530000000 1.0
C      1  0.5434820000000  0.4971400000000  0.5642850000000 1.0
C      1  0.4570230000000  0.4976600000000  0.4358130000000 1.0
C      1  0.5437330000000  0.5035630000000  0.4358120000000 1.0
C      1  0.4956450000000  0.4372620000000  0.4571390000000 1.0
C      1  0.5038040000000  0.4340730000000  0.5475160000000 1.0
C      1  0.4960740000000  0.5641310000000  0.5438320000000 1.0
C      1  0.4545910000000  0.5646770000000  0.5056040000000 1.0
C      1  0.5023590000000  0.4561590000000  0.5650650000000 1.0
C      1  0.5647610000000  0.5054710000000  0.4542870000000 1.0
C      1  0.5427500000000  0.4375850000000  0.5068750000000 1.0
C      1  0.5436520000000  0.5636420000000  0.4928810000000 1.0
C      1  0.4529700000000  0.4352980000000  0.4930330000000 1.0
C      1  0.4974580000000  0.5435320000000  0.5633780000000 1.0
C      1  0.4977610000000  0.4571630000000  0.4369450000000 1.0
C      1  0.5024470000000  0.5434510000000  0.4362890000000 1.0
C      1  0.4354500000000  0.4966020000000  0.4533710000000 1.0
C      1  0.4357850000000  0.5040680000000  0.5441510000000 1.0
C      1  0.5648080000000  0.4952970000000  0.5460350000000 1.0
C      1  0.5552430000000  0.5463390000000  0.4619480000000 1.0
C      1  0.5434670000000  0.4659660000000  0.5567150000000 1.0
C      1  0.4654020000000  0.5550310000000  0.5455330000000 1.0
C      1  0.4438890000000  0.4558230000000  0.4619810000000 1.0
C      1  0.5550870000000  0.4543940000000  0.5380480000000 1.0
C      1  0.4443550000000  0.5455510000000  0.5364870000000 1.0
C      1  0.4565610000000  0.5336720000000  0.5546920000000 1.0
C      1  0.5436140000000  0.5347460000000  0.4432030000000 1.0
C      1  0.4563300000000  0.4668070000000  0.4434060000000 1.0
C      1  0.5343870000000  0.4446270000000  0.5478590000000 1.0
C      1  0.4650070000000  0.4458230000000  0.4535840000000 1.0
C      1  0.5343800000000  0.5559560000000  0.4523440000000 1.0
C      1  0.5447170000000  0.5565010000000  0.4619290000000 1.0
C      1  0.4664530000000  0.5435800000000  0.5546880000000 1.0
C      1  0.5548030000000  0.4648830000000  0.5474540000000 1.0
C      1  0.4539790000000  0.4452460000000  0.4623500000000 1.0
C      1  0.4546110000000  0.5558550000000  0.5365020000000 1.0
C      1  0.5446060000000  0.4442410000000  0.5381180000000 1.0
C      1  0.5335280000000  0.4560930000000  0.5569150000000 1.0
C      1  0.5336400000000  0.5445810000000  0.4430680000000 1.0
C      1  0.4663100000000  0.4569920000000  0.4441000000000 1.0
C      1  0.4451290000000  0.5347580000000  0.5455350000000 1.0
C      1  0.4447230000000  0.4660860000000  0.4523750000000 1.0
C      1  0.5549090000000  0.5358550000000  0.4525480000000 1.0
C      1  0.4751640000000  0.4269320000000  0.4875580000000 1.0
C      1  0.4262970000000  0.4897690000000  0.4751970000000 1.0
C      1  0.4922420000000  0.4820920000000  0.4322360000000 1.0
C      1  0.5203910000000  0.5712060000000  0.4858690000000 1.0
C      1  0.4768790000000  0.5732440000000  0.5120350000000 1.0
C      1  0.5197050000000  0.4303630000000  0.5150030000000 1.0
C      1  0.5728920000000  0.5131090000000  0.4764540000000 1.0
C      1  0.4291200000000  0.5121490000000  0.5212420000000 1.0
C      1  0.5728410000000  0.4878110000000  0.5238560000000 1.0
C      1  0.5082950000000  0.5187620000000  0.4318660000000 1.0
C      1  0.4919140000000  0.5182980000000  0.5667970000000 1.0
C      1  0.5080410000000  0.4815210000000  0.5675720000000 1.0
C      1  0.4289500000000  0.4803830000000  0.4856160000000 1.0
C      1  0.4863500000000  0.4302630000000  0.4796360000000 1.0
C      1  0.4819380000000  0.4923490000000  0.4319670000000 1.0
C      1  0.5725370000000  0.5233430000000  0.4861360000000 1.0
C      1  0.5721160000000  0.4776540000000  0.5141540000000 1.0
C      1  0.4276040000000  0.5229910000000  0.5123430000000 1.0
C      1  0.5108260000000  0.5736820000000  0.4756880000000 1.0
C      1  0.5110280000000  0.4264500000000  0.5253550000000 1.0
C      1  0.4878550000000  0.5714240000000  0.5209990000000 1.0
C      1  0.5186280000000  0.5086410000000  0.4318640000000 1.0
C      1  0.5182950000000  0.4916990000000  0.5675330000000 1.0
C      1  0.4815930000000  0.5079880000000  0.5668010000000 1.0
C      1  0.4509040000000  0.4491370000000  0.5574270000000 1.0
C      1  0.4525490000000  0.5527710000000  0.4506920000000 1.0
C      1  0.5498780000000  0.4512640000000  0.4488700000000 1.0
C      1  0.5508910000000  0.5485420000000  0.5539050000000 1.0
END
