TITL C-1379265-1223-252 4.17856608854639e-07 1000000 -2513.08908759472 0 0 360 (Td) n - 1
REM
REM in /nfs/bkarasulu/CARBON/AIRSS/Generating-Clusters/GAP-ML-2020/Higher-Symm/Selected-Sizes/TryA-Only_Ih-Symm/Larger-Clusters/Try2-MINAMP_6A
REM
REM
REM
REM
REM
REM ./C.cell (31579ac4e95a012ec27f3239692ae8a5)
REM
REM compiler GCC version 9.2.1 20190827 (Red Hat 9.2.1-1)
REM options -cpp -mtune=generic -march=x86-64 -g -O0 -fpre-include=/usr/include/finclude/math-vector-fortran.h
REM seed -886136621 -525383389 175376169 1754714839 -1673970314 259623675 -1935702035 -678499387 1095024954 1182269453 692966831 758621938 -748182505 1635007020 1226578820 126790285 1758907736 -759686224 -384792491 1141870015 306775739 -96937012 1431898572 -1633060576 870915313 -1158273764 515831520 1381277718 -1017612336 -1914250198 512942439 168329576 1555936881
REM
CELL 1.54180  100.00000  100.00000  100.00000   90.00000   90.00000   90.00000
LATT -1
SFAC C  
C      1  0.4844320000000  0.5495980000000  0.5255800000000 1.0
C      1  0.5255800000000  0.4844320000000  0.5495980000000 1.0
C      1  0.5495980000000  0.5255800000000  0.4844320000000 1.0
C      1  0.4844320000000  0.4504020000000  0.4744200000000 1.0
C      1  0.5155680000000  0.4504020000000  0.5255800000000 1.0
C      1  0.5155680000000  0.5495980000000  0.4744200000000 1.0
C      1  0.5255800000000  0.5155680000000  0.4504020000000 1.0
C      1  0.4744200000000  0.5155680000000  0.5495980000000 1.0
C      1  0.4744200000000  0.4844320000000  0.4504020000000 1.0
C      1  0.5495980000000  0.4744200000000  0.5155680000000 1.0
C      1  0.4504020000000  0.4744200000000  0.4844320000000 1.0
C      1  0.4504020000000  0.5255800000000  0.5155680000000 1.0
C      1  0.4844320000000  0.5255800000000  0.5495980000000 1.0
C      1  0.5255800000000  0.5495980000000  0.4844320000000 1.0
C      1  0.5495980000000  0.4844320000000  0.5255800000000 1.0
C      1  0.4844320000000  0.4744200000000  0.4504020000000 1.0
C      1  0.5155680000000  0.5255800000000  0.4504020000000 1.0
C      1  0.5155680000000  0.4744200000000  0.5495980000000 1.0
C      1  0.5255800000000  0.4504020000000  0.5155680000000 1.0
C      1  0.4744200000000  0.5495980000000  0.5155680000000 1.0
C      1  0.4744200000000  0.4504020000000  0.4844320000000 1.0
C      1  0.5495980000000  0.5155680000000  0.4744200000000 1.0
C      1  0.4504020000000  0.4844320000000  0.4744200000000 1.0
C      1  0.4504020000000  0.5155680000000  0.5255800000000 1.0
C      1  0.5644160000000  0.4866660000000  0.4653290000000 1.0
C      1  0.4653290000000  0.5644160000000  0.4866660000000 1.0
C      1  0.4866660000000  0.4653290000000  0.5644160000000 1.0
C      1  0.5644160000000  0.5133340000000  0.5346710000000 1.0
C      1  0.4355840000000  0.5133340000000  0.4653290000000 1.0
C      1  0.4355840000000  0.4866660000000  0.5346710000000 1.0
C      1  0.4653290000000  0.4355840000000  0.5133340000000 1.0
C      1  0.5346710000000  0.4355840000000  0.4866660000000 1.0
C      1  0.5346710000000  0.5644160000000  0.5133340000000 1.0
C      1  0.4866660000000  0.5346710000000  0.4355840000000 1.0
C      1  0.5133340000000  0.5346710000000  0.5644160000000 1.0
C      1  0.5133340000000  0.4653290000000  0.4355840000000 1.0
C      1  0.5644160000000  0.4653290000000  0.4866660000000 1.0
C      1  0.4653290000000  0.4866660000000  0.5644160000000 1.0
C      1  0.4866660000000  0.5644160000000  0.4653290000000 1.0
C      1  0.5644160000000  0.5346710000000  0.5133340000000 1.0
C      1  0.4355840000000  0.4653290000000  0.5133340000000 1.0
C      1  0.4355840000000  0.5346710000000  0.4866660000000 1.0
C      1  0.4653290000000  0.5133340000000  0.4355840000000 1.0
C      1  0.5346710000000  0.4866660000000  0.4355840000000 1.0
C      1  0.5346710000000  0.5133340000000  0.5644160000000 1.0
C      1  0.4866660000000  0.4355840000000  0.5346710000000 1.0
C      1  0.5133340000000  0.5644160000000  0.5346710000000 1.0
C      1  0.5133340000000  0.4355840000000  0.4653290000000 1.0
C      1  0.5352270000000  0.4749710000000  0.4435760000000 1.0
C      1  0.4435760000000  0.5352270000000  0.4749710000000 1.0
C      1  0.4749710000000  0.4435760000000  0.5352270000000 1.0
C      1  0.5352270000000  0.5250290000000  0.5564240000000 1.0
C      1  0.4647730000000  0.5250290000000  0.4435760000000 1.0
C      1  0.4647730000000  0.4749710000000  0.5564240000000 1.0
C      1  0.4435760000000  0.4647730000000  0.5250290000000 1.0
C      1  0.5564240000000  0.4647730000000  0.4749710000000 1.0
C      1  0.5564240000000  0.5352270000000  0.5250290000000 1.0
C      1  0.4749710000000  0.5564240000000  0.4647730000000 1.0
C      1  0.5250290000000  0.5564240000000  0.5352270000000 1.0
C      1  0.5250290000000  0.4435760000000  0.4647730000000 1.0
C      1  0.5352270000000  0.4435760000000  0.4749710000000 1.0
C      1  0.4435760000000  0.4749710000000  0.5352270000000 1.0
C      1  0.4749710000000  0.5352270000000  0.4435760000000 1.0
C      1  0.5352270000000  0.5564240000000  0.5250290000000 1.0
C      1  0.4647730000000  0.4435760000000  0.5250290000000 1.0
C      1  0.4647730000000  0.5564240000000  0.4749710000000 1.0
C      1  0.4435760000000  0.5250290000000  0.4647730000000 1.0
C      1  0.5564240000000  0.4749710000000  0.4647730000000 1.0
C      1  0.5564240000000  0.5250290000000  0.5352270000000 1.0
C      1  0.4749710000000  0.4647730000000  0.5564240000000 1.0
C      1  0.5250290000000  0.5352270000000  0.5564240000000 1.0
C      1  0.5250290000000  0.4647730000000  0.4435760000000 1.0
C      1  0.5067080000000  0.4747710000000  0.4555330000000 1.0
C      1  0.4555330000000  0.5067080000000  0.4747710000000 1.0
C      1  0.4747710000000  0.4555330000000  0.5067080000000 1.0
C      1  0.5067080000000  0.5252290000000  0.5444670000000 1.0
C      1  0.4932920000000  0.5252290000000  0.4555330000000 1.0
C      1  0.4932920000000  0.4747710000000  0.5444670000000 1.0
C      1  0.4555330000000  0.4932920000000  0.5252290000000 1.0
C      1  0.5444670000000  0.4932920000000  0.4747710000000 1.0
C      1  0.5444670000000  0.5067080000000  0.5252290000000 1.0
C      1  0.4747710000000  0.5444670000000  0.4932920000000 1.0
C      1  0.5252290000000  0.5444670000000  0.5067080000000 1.0
C      1  0.5252290000000  0.4555330000000  0.4932920000000 1.0
C      1  0.5067080000000  0.4555330000000  0.4747710000000 1.0
C      1  0.4555330000000  0.4747710000000  0.5067080000000 1.0
C      1  0.4747710000000  0.5067080000000  0.4555330000000 1.0
C      1  0.5067080000000  0.5444670000000  0.5252290000000 1.0
C      1  0.4932920000000  0.4555330000000  0.5252290000000 1.0
C      1  0.4932920000000  0.5444670000000  0.4747710000000 1.0
C      1  0.4555330000000  0.5252290000000  0.4932920000000 1.0
C      1  0.5444670000000  0.4747710000000  0.4932920000000 1.0
C      1  0.5444670000000  0.5252290000000  0.5067080000000 1.0
C      1  0.4747710000000  0.4932920000000  0.5444670000000 1.0
C      1  0.5252290000000  0.5067080000000  0.5444670000000 1.0
C      1  0.5252290000000  0.4932920000000  0.4555330000000 1.0
C      1  0.5722920000000  0.5185880000000  0.4912250000000 1.0
C      1  0.4912250000000  0.5722920000000  0.5185880000000 1.0
C      1  0.5185880000000  0.4912250000000  0.5722920000000 1.0
C      1  0.5722920000000  0.4814120000000  0.5087750000000 1.0
C      1  0.4277080000000  0.4814120000000  0.4912250000000 1.0
C      1  0.4277080000000  0.5185880000000  0.5087750000000 1.0
C      1  0.4912250000000  0.4277080000000  0.4814120000000 1.0
C      1  0.5087750000000  0.4277080000000  0.5185880000000 1.0
C      1  0.5087750000000  0.5722920000000  0.4814120000000 1.0
C      1  0.5185880000000  0.5087750000000  0.4277080000000 1.0
C      1  0.4814120000000  0.5087750000000  0.5722920000000 1.0
C      1  0.4814120000000  0.4912250000000  0.4277080000000 1.0
C      1  0.5722920000000  0.4912250000000  0.5185880000000 1.0
C      1  0.4912250000000  0.5185880000000  0.5722920000000 1.0
C      1  0.5185880000000  0.5722920000000  0.4912250000000 1.0
C      1  0.5722920000000  0.5087750000000  0.4814120000000 1.0
C      1  0.4277080000000  0.4912250000000  0.4814120000000 1.0
C      1  0.4277080000000  0.5087750000000  0.5185880000000 1.0
C      1  0.4912250000000  0.4814120000000  0.4277080000000 1.0
C      1  0.5087750000000  0.5185880000000  0.4277080000000 1.0
C      1  0.5087750000000  0.4814120000000  0.5722920000000 1.0
C      1  0.5185880000000  0.4277080000000  0.5087750000000 1.0
C      1  0.4814120000000  0.5722920000000  0.5087750000000 1.0
C      1  0.4814120000000  0.4277080000000  0.4912250000000 1.0
C      1  0.5263800000000  0.5638190000000  0.4635330000000 1.0
C      1  0.4635330000000  0.5263800000000  0.5638190000000 1.0
C      1  0.5638190000000  0.4635330000000  0.5263800000000 1.0
C      1  0.5263800000000  0.4361810000000  0.5364670000000 1.0
C      1  0.4736200000000  0.4361810000000  0.4635330000000 1.0
C      1  0.4736200000000  0.5638190000000  0.5364670000000 1.0
C      1  0.4635330000000  0.4736200000000  0.4361810000000 1.0
C      1  0.5364670000000  0.4736200000000  0.5638190000000 1.0
C      1  0.5364670000000  0.5263800000000  0.4361810000000 1.0
C      1  0.5638190000000  0.5364670000000  0.4736200000000 1.0
C      1  0.4361810000000  0.5364670000000  0.5263800000000 1.0
C      1  0.4361810000000  0.4635330000000  0.4736200000000 1.0
C      1  0.5263800000000  0.4635330000000  0.5638190000000 1.0
C      1  0.4635330000000  0.5638190000000  0.5263800000000 1.0
C      1  0.5638190000000  0.5263800000000  0.4635330000000 1.0
C      1  0.5263800000000  0.5364670000000  0.4361810000000 1.0
C      1  0.4736200000000  0.4635330000000  0.4361810000000 1.0
C      1  0.4736200000000  0.5364670000000  0.5638190000000 1.0
C      1  0.4635330000000  0.4361810000000  0.4736200000000 1.0
C      1  0.5364670000000  0.5638190000000  0.4736200000000 1.0
C      1  0.5364670000000  0.4361810000000  0.5263800000000 1.0
C      1  0.5638190000000  0.4736200000000  0.5364670000000 1.0
C      1  0.4361810000000  0.5263800000000  0.5364670000000 1.0
C      1  0.4361810000000  0.4736200000000  0.4635330000000 1.0
C      1  0.4786780000000  0.4416170000000  0.5106100000000 1.0
C      1  0.5106100000000  0.4786780000000  0.4416170000000 1.0
C      1  0.4416170000000  0.5106100000000  0.4786780000000 1.0
C      1  0.4786780000000  0.5583830000000  0.4893900000000 1.0
C      1  0.5213220000000  0.5583830000000  0.5106100000000 1.0
C      1  0.5213220000000  0.4416170000000  0.4893900000000 1.0
C      1  0.5106100000000  0.5213220000000  0.5583830000000 1.0
C      1  0.4893900000000  0.5213220000000  0.4416170000000 1.0
C      1  0.4893900000000  0.4786780000000  0.5583830000000 1.0
C      1  0.4416170000000  0.4893900000000  0.5213220000000 1.0
C      1  0.5583830000000  0.4893900000000  0.4786780000000 1.0
C      1  0.5583830000000  0.5106100000000  0.5213220000000 1.0
C      1  0.4786780000000  0.5106100000000  0.4416170000000 1.0
C      1  0.5106100000000  0.4416170000000  0.4786780000000 1.0
C      1  0.4416170000000  0.4786780000000  0.5106100000000 1.0
C      1  0.4786780000000  0.4893900000000  0.5583830000000 1.0
C      1  0.5213220000000  0.5106100000000  0.5583830000000 1.0
C      1  0.5213220000000  0.4893900000000  0.4416170000000 1.0
C      1  0.5106100000000  0.5583830000000  0.5213220000000 1.0
C      1  0.4893900000000  0.4416170000000  0.5213220000000 1.0
C      1  0.4893900000000  0.5583830000000  0.4786780000000 1.0
C      1  0.4416170000000  0.5213220000000  0.4893900000000 1.0
C      1  0.5583830000000  0.4786780000000  0.4893900000000 1.0
C      1  0.5583830000000  0.5213220000000  0.5106100000000 1.0
C      1  0.5025100000000  0.4462120000000  0.5643230000000 1.0
C      1  0.5643230000000  0.5025100000000  0.4462120000000 1.0
C      1  0.4462120000000  0.5643230000000  0.5025100000000 1.0
C      1  0.5025100000000  0.5537880000000  0.4356770000000 1.0
C      1  0.4974900000000  0.5537880000000  0.5643230000000 1.0
C      1  0.4974900000000  0.4462120000000  0.4356770000000 1.0
C      1  0.5643230000000  0.4974900000000  0.5537880000000 1.0
C      1  0.4356770000000  0.4974900000000  0.4462120000000 1.0
C      1  0.4356770000000  0.5025100000000  0.5537880000000 1.0
C      1  0.4462120000000  0.4356770000000  0.4974900000000 1.0
C      1  0.5537880000000  0.4356770000000  0.5025100000000 1.0
C      1  0.5537880000000  0.5643230000000  0.4974900000000 1.0
C      1  0.5025100000000  0.5643230000000  0.4462120000000 1.0
C      1  0.5643230000000  0.4462120000000  0.5025100000000 1.0
C      1  0.4462120000000  0.5025100000000  0.5643230000000 1.0
C      1  0.5025100000000  0.4356770000000  0.5537880000000 1.0
C      1  0.4974900000000  0.5643230000000  0.5537880000000 1.0
C      1  0.4974900000000  0.4356770000000  0.4462120000000 1.0
C      1  0.5643230000000  0.5537880000000  0.4974900000000 1.0
C      1  0.4356770000000  0.4462120000000  0.4974900000000 1.0
C      1  0.4356770000000  0.5537880000000  0.5025100000000 1.0
C      1  0.4462120000000  0.4974900000000  0.4356770000000 1.0
C      1  0.5537880000000  0.5025100000000  0.4356770000000 1.0
C      1  0.5537880000000  0.4974900000000  0.5643230000000 1.0
C      1  0.5612630000000  0.4496980000000  0.5270680000000 1.0
C      1  0.5270680000000  0.5612630000000  0.4496980000000 1.0
C      1  0.4496980000000  0.5270680000000  0.5612630000000 1.0
C      1  0.5612630000000  0.5503020000000  0.4729320000000 1.0
C      1  0.4387370000000  0.5503020000000  0.5270680000000 1.0
C      1  0.4387370000000  0.4496980000000  0.4729320000000 1.0
C      1  0.5270680000000  0.4387370000000  0.5503020000000 1.0
C      1  0.4729320000000  0.4387370000000  0.4496980000000 1.0
C      1  0.4729320000000  0.5612630000000  0.5503020000000 1.0
C      1  0.4496980000000  0.4729320000000  0.4387370000000 1.0
C      1  0.5503020000000  0.4729320000000  0.5612630000000 1.0
C      1  0.5503020000000  0.5270680000000  0.4387370000000 1.0
C      1  0.5612630000000  0.5270680000000  0.4496980000000 1.0
C      1  0.5270680000000  0.4496980000000  0.5612630000000 1.0
C      1  0.4496980000000  0.5612630000000  0.5270680000000 1.0
C      1  0.5612630000000  0.4729320000000  0.5503020000000 1.0
C      1  0.4387370000000  0.5270680000000  0.5503020000000 1.0
C      1  0.4387370000000  0.4729320000000  0.4496980000000 1.0
C      1  0.5270680000000  0.5503020000000  0.4387370000000 1.0
C      1  0.4729320000000  0.4496980000000  0.4387370000000 1.0
C      1  0.4729320000000  0.5503020000000  0.5612630000000 1.0
C      1  0.4496980000000  0.4387370000000  0.4729320000000 1.0
C      1  0.5503020000000  0.5612630000000  0.4729320000000 1.0
C      1  0.5503020000000  0.4387370000000  0.5270680000000 1.0
C      1  0.4943170000000  0.4599140000000  0.4700420000000 1.0
C      1  0.4700420000000  0.4943170000000  0.4599140000000 1.0
C      1  0.4599140000000  0.4700420000000  0.4943170000000 1.0
C      1  0.4943170000000  0.5400860000000  0.5299580000000 1.0
C      1  0.5056830000000  0.5400860000000  0.4700420000000 1.0
C      1  0.5056830000000  0.4599140000000  0.5299580000000 1.0
C      1  0.4700420000000  0.5056830000000  0.5400860000000 1.0
C      1  0.5299580000000  0.5056830000000  0.4599140000000 1.0
C      1  0.5299580000000  0.4943170000000  0.5400860000000 1.0
C      1  0.4599140000000  0.5299580000000  0.5056830000000 1.0
C      1  0.5400860000000  0.5299580000000  0.4943170000000 1.0
C      1  0.5400860000000  0.4700420000000  0.5056830000000 1.0
C      1  0.4943170000000  0.4700420000000  0.4599140000000 1.0
C      1  0.4700420000000  0.4599140000000  0.4943170000000 1.0
C      1  0.4599140000000  0.4943170000000  0.4700420000000 1.0
C      1  0.4943170000000  0.5299580000000  0.5400860000000 1.0
C      1  0.5056830000000  0.4700420000000  0.5400860000000 1.0
C      1  0.5056830000000  0.5299580000000  0.4599140000000 1.0
C      1  0.4700420000000  0.5400860000000  0.5056830000000 1.0
C      1  0.5299580000000  0.4599140000000  0.5056830000000 1.0
C      1  0.5299580000000  0.5400860000000  0.4943170000000 1.0
C      1  0.4599140000000  0.5056830000000  0.5299580000000 1.0
C      1  0.5400860000000  0.4943170000000  0.5299580000000 1.0
C      1  0.5400860000000  0.5056830000000  0.4700420000000 1.0
C      1  0.4322690000000  0.4837400000000  0.4424920000000 1.0
C      1  0.4424920000000  0.4322690000000  0.4837400000000 1.0
C      1  0.4837400000000  0.4424920000000  0.4322690000000 1.0
C      1  0.4322690000000  0.5162600000000  0.5575080000000 1.0
C      1  0.5677310000000  0.5162600000000  0.4424920000000 1.0
C      1  0.5677310000000  0.4837400000000  0.5575080000000 1.0
C      1  0.4424920000000  0.5677310000000  0.5162600000000 1.0
C      1  0.5575080000000  0.5677310000000  0.4837400000000 1.0
C      1  0.5575080000000  0.4322690000000  0.5162600000000 1.0
C      1  0.4837400000000  0.5575080000000  0.5677310000000 1.0
C      1  0.5162600000000  0.5575080000000  0.4322690000000 1.0
C      1  0.5162600000000  0.4424920000000  0.5677310000000 1.0
C      1  0.4322690000000  0.4424920000000  0.4837400000000 1.0
C      1  0.4424920000000  0.4837400000000  0.4322690000000 1.0
C      1  0.4837400000000  0.4322690000000  0.4424920000000 1.0
C      1  0.4322690000000  0.5575080000000  0.5162600000000 1.0
C      1  0.5677310000000  0.4424920000000  0.5162600000000 1.0
C      1  0.5677310000000  0.5575080000000  0.4837400000000 1.0
C      1  0.4424920000000  0.5162600000000  0.5677310000000 1.0
C      1  0.5575080000000  0.4837400000000  0.5677310000000 1.0
C      1  0.5575080000000  0.5162600000000  0.4322690000000 1.0
C      1  0.4837400000000  0.5677310000000  0.5575080000000 1.0
C      1  0.5162600000000  0.4322690000000  0.5575080000000 1.0
C      1  0.5162600000000  0.5677310000000  0.4424920000000 1.0
C      1  0.4800840000000  0.4585690000000  0.5310410000000 1.0
C      1  0.5310410000000  0.4800840000000  0.4585690000000 1.0
C      1  0.4585690000000  0.5310410000000  0.4800840000000 1.0
C      1  0.4800840000000  0.5414310000000  0.4689590000000 1.0
C      1  0.5199160000000  0.5414310000000  0.5310410000000 1.0
C      1  0.5199160000000  0.4585690000000  0.4689590000000 1.0
C      1  0.5310410000000  0.5199160000000  0.5414310000000 1.0
C      1  0.4689590000000  0.5199160000000  0.4585690000000 1.0
C      1  0.4689590000000  0.4800840000000  0.5414310000000 1.0
C      1  0.4585690000000  0.4689590000000  0.5199160000000 1.0
C      1  0.5414310000000  0.4689590000000  0.4800840000000 1.0
C      1  0.5414310000000  0.5310410000000  0.5199160000000 1.0
C      1  0.4800840000000  0.5310410000000  0.4585690000000 1.0
C      1  0.5310410000000  0.4585690000000  0.4800840000000 1.0
C      1  0.4585690000000  0.4800840000000  0.5310410000000 1.0
C      1  0.4800840000000  0.4689590000000  0.5414310000000 1.0
C      1  0.5199160000000  0.5310410000000  0.5414310000000 1.0
C      1  0.5199160000000  0.4689590000000  0.4585690000000 1.0
C      1  0.5310410000000  0.5414310000000  0.5199160000000 1.0
C      1  0.4689590000000  0.4585690000000  0.5199160000000 1.0
C      1  0.4689590000000  0.5414310000000  0.4800840000000 1.0
C      1  0.4585690000000  0.5199160000000  0.4689590000000 1.0
C      1  0.5414310000000  0.4800840000000  0.4689590000000 1.0
C      1  0.5414310000000  0.5199160000000  0.5310410000000 1.0
C      1  0.5307240000000  0.4354120000000  0.5119780000000 1.0
C      1  0.5119780000000  0.5307240000000  0.4354120000000 1.0
C      1  0.4354120000000  0.5119780000000  0.5307240000000 1.0
C      1  0.5307240000000  0.5645880000000  0.4880220000000 1.0
C      1  0.4692760000000  0.5645880000000  0.5119780000000 1.0
C      1  0.4692760000000  0.4354120000000  0.4880220000000 1.0
C      1  0.5119780000000  0.4692760000000  0.5645880000000 1.0
C      1  0.4880220000000  0.4692760000000  0.4354120000000 1.0
C      1  0.4880220000000  0.5307240000000  0.5645880000000 1.0
C      1  0.4354120000000  0.4880220000000  0.4692760000000 1.0
C      1  0.5645880000000  0.4880220000000  0.5307240000000 1.0
C      1  0.5645880000000  0.5119780000000  0.4692760000000 1.0
C      1  0.5307240000000  0.5119780000000  0.4354120000000 1.0
C      1  0.5119780000000  0.4354120000000  0.5307240000000 1.0
C      1  0.4354120000000  0.5307240000000  0.5119780000000 1.0
C      1  0.5307240000000  0.4880220000000  0.5645880000000 1.0
C      1  0.4692760000000  0.5119780000000  0.5645880000000 1.0
C      1  0.4692760000000  0.4880220000000  0.4354120000000 1.0
C      1  0.5119780000000  0.5645880000000  0.4692760000000 1.0
C      1  0.4880220000000  0.4354120000000  0.4692760000000 1.0
C      1  0.4880220000000  0.5645880000000  0.5307240000000 1.0
C      1  0.4354120000000  0.4692760000000  0.4880220000000 1.0
C      1  0.5645880000000  0.5307240000000  0.4880220000000 1.0
C      1  0.5645880000000  0.4692760000000  0.5119780000000 1.0
C      1  0.4954010000000  0.5704130000000  0.4853700000000 1.0
C      1  0.4853700000000  0.4954010000000  0.5704130000000 1.0
C      1  0.5704130000000  0.4853700000000  0.4954010000000 1.0
C      1  0.4954010000000  0.4295870000000  0.5146300000000 1.0
C      1  0.5045990000000  0.4295870000000  0.4853700000000 1.0
C      1  0.5045990000000  0.5704130000000  0.5146300000000 1.0
C      1  0.4853700000000  0.5045990000000  0.4295870000000 1.0
C      1  0.5146300000000  0.5045990000000  0.5704130000000 1.0
C      1  0.5146300000000  0.4954010000000  0.4295870000000 1.0
C      1  0.5704130000000  0.5146300000000  0.5045990000000 1.0
C      1  0.4295870000000  0.5146300000000  0.4954010000000 1.0
C      1  0.4295870000000  0.4853700000000  0.5045990000000 1.0
C      1  0.4954010000000  0.4853700000000  0.5704130000000 1.0
C      1  0.4853700000000  0.5704130000000  0.4954010000000 1.0
C      1  0.5704130000000  0.4954010000000  0.4853700000000 1.0
C      1  0.4954010000000  0.5146300000000  0.4295870000000 1.0
C      1  0.5045990000000  0.4853700000000  0.4295870000000 1.0
C      1  0.5045990000000  0.5146300000000  0.5704130000000 1.0
C      1  0.4853700000000  0.4295870000000  0.5045990000000 1.0
C      1  0.5146300000000  0.5704130000000  0.5045990000000 1.0
C      1  0.5146300000000  0.4295870000000  0.4954010000000 1.0
C      1  0.5704130000000  0.5045990000000  0.5146300000000 1.0
C      1  0.4295870000000  0.4954010000000  0.5146300000000 1.0
C      1  0.4295870000000  0.5045990000000  0.4853700000000 1.0
C      1  0.5659730000000  0.5404410000000  0.5006210000000 1.0
C      1  0.5006210000000  0.5659730000000  0.5404410000000 1.0
C      1  0.5404410000000  0.5006210000000  0.5659730000000 1.0
C      1  0.5659730000000  0.4595590000000  0.4993790000000 1.0
C      1  0.4340270000000  0.4595590000000  0.5006210000000 1.0
C      1  0.4340270000000  0.5404410000000  0.4993790000000 1.0
C      1  0.5006210000000  0.4340270000000  0.4595590000000 1.0
C      1  0.4993790000000  0.4340270000000  0.5404410000000 1.0
C      1  0.4993790000000  0.5659730000000  0.4595590000000 1.0
C      1  0.5404410000000  0.4993790000000  0.4340270000000 1.0
C      1  0.4595590000000  0.4993790000000  0.5659730000000 1.0
C      1  0.4595590000000  0.5006210000000  0.4340270000000 1.0
C      1  0.5659730000000  0.5006210000000  0.5404410000000 1.0
C      1  0.5006210000000  0.5404410000000  0.5659730000000 1.0
C      1  0.5404410000000  0.5659730000000  0.5006210000000 1.0
C      1  0.5659730000000  0.4993790000000  0.4595590000000 1.0
C      1  0.4340270000000  0.5006210000000  0.4595590000000 1.0
C      1  0.4340270000000  0.4993790000000  0.5404410000000 1.0
C      1  0.5006210000000  0.4595590000000  0.4340270000000 1.0
C      1  0.4993790000000  0.5404410000000  0.4340270000000 1.0
C      1  0.4993790000000  0.4595590000000  0.5659730000000 1.0
C      1  0.5404410000000  0.4340270000000  0.4993790000000 1.0
C      1  0.4595590000000  0.5659730000000  0.4993790000000 1.0
C      1  0.4595590000000  0.4340270000000  0.5006210000000 1.0
END
