TITL C-1379266-1300-359 -8.92658780995789e-07 1000000 -2466.69728668701 0 0 360 (Th) n - 1
REM
REM in /nfs/bkarasulu/CARBON/AIRSS/Generating-Clusters/GAP-ML-2020/Higher-Symm/Selected-Sizes/TryA-Only_Ih-Symm/Larger-Clusters/Try2-MINAMP_6A
REM
REM
REM
REM
REM
REM ./C.cell (31579ac4e95a012ec27f3239692ae8a5)
REM
REM compiler GCC version 9.2.1 20190827 (Red Hat 9.2.1-1)
REM options -cpp -mtune=generic -march=x86-64 -g -O0 -fpre-include=/usr/include/finclude/math-vector-fortran.h
REM seed 973997665 473603005 -70811117 465226345 2008001419 -1768170044 782000445 1730565099 -204856229 514174763 -564206954 -1046097765 -159121919 1428147678 851422649 708906815 -794212195 -1279264827 -715380653 -1890372451 1994331738 -405804848 270106442 -303201737 -1500416006 1315236233 -1589727092 1372814183 -1459408826 1537852949 98458829 -130764297 1078472388
REM
CELL 1.54180  100.00000  100.00000  100.00000   90.00000   90.00000   90.00000
LATT -1
SFAC C  
C      1  0.5527220000000  0.5556390000000  0.4934260000000 1.0
C      1  0.4934260000000  0.5527220000000  0.5556390000000 1.0
C      1  0.5556390000000  0.4934260000000  0.5527220000000 1.0
C      1  0.4472780000000  0.5556390000000  0.5065740000000 1.0
C      1  0.5527220000000  0.4443610000000  0.5065740000000 1.0
C      1  0.4472780000000  0.4443610000000  0.4934260000000 1.0
C      1  0.5065740000000  0.5527220000000  0.4443610000000 1.0
C      1  0.4934260000000  0.4472780000000  0.4443610000000 1.0
C      1  0.5065740000000  0.4472780000000  0.5556390000000 1.0
C      1  0.4443610000000  0.4934260000000  0.4472780000000 1.0
C      1  0.5556390000000  0.5065740000000  0.4472780000000 1.0
C      1  0.4443610000000  0.5065740000000  0.5527220000000 1.0
C      1  0.5527220000000  0.4443610000000  0.4934260000000 1.0
C      1  0.4934260000000  0.4472780000000  0.5556390000000 1.0
C      1  0.5556390000000  0.5065740000000  0.5527220000000 1.0
C      1  0.4472780000000  0.4443610000000  0.5065740000000 1.0
C      1  0.5527220000000  0.5556390000000  0.5065740000000 1.0
C      1  0.4472780000000  0.5556390000000  0.4934260000000 1.0
C      1  0.5065740000000  0.4472780000000  0.4443610000000 1.0
C      1  0.4934260000000  0.5527220000000  0.4443610000000 1.0
C      1  0.5065740000000  0.5527220000000  0.5556390000000 1.0
C      1  0.4443610000000  0.5065740000000  0.4472780000000 1.0
C      1  0.5556390000000  0.4934260000000  0.4472780000000 1.0
C      1  0.4443610000000  0.4934260000000  0.5527220000000 1.0
C      1  0.5516620000000  0.4826640000000  0.5623670000000 1.0
C      1  0.5623670000000  0.5516620000000  0.4826640000000 1.0
C      1  0.4826640000000  0.5623670000000  0.5516620000000 1.0
C      1  0.4483380000000  0.4826640000000  0.4376330000000 1.0
C      1  0.5516620000000  0.5173360000000  0.4376330000000 1.0
C      1  0.4483380000000  0.5173360000000  0.5623670000000 1.0
C      1  0.4376330000000  0.5516620000000  0.5173360000000 1.0
C      1  0.5623670000000  0.4483380000000  0.5173360000000 1.0
C      1  0.4376330000000  0.4483380000000  0.4826640000000 1.0
C      1  0.5173360000000  0.5623670000000  0.4483380000000 1.0
C      1  0.4826640000000  0.4376330000000  0.4483380000000 1.0
C      1  0.5173360000000  0.4376330000000  0.5516620000000 1.0
C      1  0.5516620000000  0.5173360000000  0.5623670000000 1.0
C      1  0.5623670000000  0.4483380000000  0.4826640000000 1.0
C      1  0.4826640000000  0.4376330000000  0.5516620000000 1.0
C      1  0.4483380000000  0.5173360000000  0.4376330000000 1.0
C      1  0.5516620000000  0.4826640000000  0.4376330000000 1.0
C      1  0.4483380000000  0.4826640000000  0.5623670000000 1.0
C      1  0.4376330000000  0.4483380000000  0.5173360000000 1.0
C      1  0.5623670000000  0.5516620000000  0.5173360000000 1.0
C      1  0.4376330000000  0.5516620000000  0.4826640000000 1.0
C      1  0.5173360000000  0.4376330000000  0.4483380000000 1.0
C      1  0.4826640000000  0.5623670000000  0.4483380000000 1.0
C      1  0.5173360000000  0.5623670000000  0.5516620000000 1.0
C      1  0.5071970000000  0.5289330000000  0.5704360000000 1.0
C      1  0.5704360000000  0.5071970000000  0.5289330000000 1.0
C      1  0.5289330000000  0.5704360000000  0.5071970000000 1.0
C      1  0.4928030000000  0.5289330000000  0.4295640000000 1.0
C      1  0.5071970000000  0.4710670000000  0.4295640000000 1.0
C      1  0.4928030000000  0.4710670000000  0.5704360000000 1.0
C      1  0.4295640000000  0.5071970000000  0.4710670000000 1.0
C      1  0.5704360000000  0.4928030000000  0.4710670000000 1.0
C      1  0.4295640000000  0.4928030000000  0.5289330000000 1.0
C      1  0.4710670000000  0.5704360000000  0.4928030000000 1.0
C      1  0.5289330000000  0.4295640000000  0.4928030000000 1.0
C      1  0.4710670000000  0.4295640000000  0.5071970000000 1.0
C      1  0.5071970000000  0.4710670000000  0.5704360000000 1.0
C      1  0.5704360000000  0.4928030000000  0.5289330000000 1.0
C      1  0.5289330000000  0.4295640000000  0.5071970000000 1.0
C      1  0.4928030000000  0.4710670000000  0.4295640000000 1.0
C      1  0.5071970000000  0.5289330000000  0.4295640000000 1.0
C      1  0.4928030000000  0.5289330000000  0.5704360000000 1.0
C      1  0.4295640000000  0.4928030000000  0.4710670000000 1.0
C      1  0.5704360000000  0.5071970000000  0.4710670000000 1.0
C      1  0.4295640000000  0.5071970000000  0.5289330000000 1.0
C      1  0.4710670000000  0.4295640000000  0.4928030000000 1.0
C      1  0.5289330000000  0.5704360000000  0.4928030000000 1.0
C      1  0.4710670000000  0.5704360000000  0.5071970000000 1.0
C      1  0.5076020000000  0.4540740000000  0.4721280000000 1.0
C      1  0.4721280000000  0.5076020000000  0.4540740000000 1.0
C      1  0.4540740000000  0.4721280000000  0.5076020000000 1.0
C      1  0.4923980000000  0.4540740000000  0.5278720000000 1.0
C      1  0.5076020000000  0.5459260000000  0.5278720000000 1.0
C      1  0.4923980000000  0.5459260000000  0.4721280000000 1.0
C      1  0.5278720000000  0.5076020000000  0.5459260000000 1.0
C      1  0.4721280000000  0.4923980000000  0.5459260000000 1.0
C      1  0.5278720000000  0.4923980000000  0.4540740000000 1.0
C      1  0.5459260000000  0.4721280000000  0.4923980000000 1.0
C      1  0.4540740000000  0.5278720000000  0.4923980000000 1.0
C      1  0.5459260000000  0.5278720000000  0.5076020000000 1.0
C      1  0.5076020000000  0.5459260000000  0.4721280000000 1.0
C      1  0.4721280000000  0.4923980000000  0.4540740000000 1.0
C      1  0.4540740000000  0.5278720000000  0.5076020000000 1.0
C      1  0.4923980000000  0.5459260000000  0.5278720000000 1.0
C      1  0.5076020000000  0.4540740000000  0.5278720000000 1.0
C      1  0.4923980000000  0.4540740000000  0.4721280000000 1.0
C      1  0.5278720000000  0.4923980000000  0.5459260000000 1.0
C      1  0.4721280000000  0.5076020000000  0.5459260000000 1.0
C      1  0.5278720000000  0.5076020000000  0.4540740000000 1.0
C      1  0.5459260000000  0.5278720000000  0.4923980000000 1.0
C      1  0.4540740000000  0.4721280000000  0.4923980000000 1.0
C      1  0.5459260000000  0.4721280000000  0.5076020000000 1.0
C      1  0.4476480000000  0.5526020000000  0.5276650000000 1.0
C      1  0.5276650000000  0.4476480000000  0.5526020000000 1.0
C      1  0.5526020000000  0.5276650000000  0.4476480000000 1.0
C      1  0.5523520000000  0.5526020000000  0.4723350000000 1.0
C      1  0.4476480000000  0.4473980000000  0.4723350000000 1.0
C      1  0.5523520000000  0.4473980000000  0.5276650000000 1.0
C      1  0.4723350000000  0.4476480000000  0.4473980000000 1.0
C      1  0.5276650000000  0.5523520000000  0.4473980000000 1.0
C      1  0.4723350000000  0.5523520000000  0.5526020000000 1.0
C      1  0.4473980000000  0.5276650000000  0.5523520000000 1.0
C      1  0.5526020000000  0.4723350000000  0.5523520000000 1.0
C      1  0.4473980000000  0.4723350000000  0.4476480000000 1.0
C      1  0.4476480000000  0.4473980000000  0.5276650000000 1.0
C      1  0.5276650000000  0.5523520000000  0.5526020000000 1.0
C      1  0.5526020000000  0.4723350000000  0.4476480000000 1.0
C      1  0.5523520000000  0.4473980000000  0.4723350000000 1.0
C      1  0.4476480000000  0.5526020000000  0.4723350000000 1.0
C      1  0.5523520000000  0.5526020000000  0.5276650000000 1.0
C      1  0.4723350000000  0.5523520000000  0.4473980000000 1.0
C      1  0.5276650000000  0.4476480000000  0.4473980000000 1.0
C      1  0.4723350000000  0.4476480000000  0.5526020000000 1.0
C      1  0.4473980000000  0.4723350000000  0.5523520000000 1.0
C      1  0.5526020000000  0.5276650000000  0.5523520000000 1.0
C      1  0.4473980000000  0.5276650000000  0.4476480000000 1.0
C      1  0.4716720000000  0.4405910000000  0.4836320000000 1.0
C      1  0.4836320000000  0.4716720000000  0.4405910000000 1.0
C      1  0.4405910000000  0.4836320000000  0.4716720000000 1.0
C      1  0.5283280000000  0.4405910000000  0.5163680000000 1.0
C      1  0.4716720000000  0.5594090000000  0.5163680000000 1.0
C      1  0.5283280000000  0.5594090000000  0.4836320000000 1.0
C      1  0.5163680000000  0.4716720000000  0.5594090000000 1.0
C      1  0.4836320000000  0.5283280000000  0.5594090000000 1.0
C      1  0.5163680000000  0.5283280000000  0.4405910000000 1.0
C      1  0.5594090000000  0.4836320000000  0.5283280000000 1.0
C      1  0.4405910000000  0.5163680000000  0.5283280000000 1.0
C      1  0.5594090000000  0.5163680000000  0.4716720000000 1.0
C      1  0.4716720000000  0.5594090000000  0.4836320000000 1.0
C      1  0.4836320000000  0.5283280000000  0.4405910000000 1.0
C      1  0.4405910000000  0.5163680000000  0.4716720000000 1.0
C      1  0.5283280000000  0.5594090000000  0.5163680000000 1.0
C      1  0.4716720000000  0.4405910000000  0.5163680000000 1.0
C      1  0.5283280000000  0.4405910000000  0.4836320000000 1.0
C      1  0.5163680000000  0.5283280000000  0.5594090000000 1.0
C      1  0.4836320000000  0.4716720000000  0.5594090000000 1.0
C      1  0.5163680000000  0.4716720000000  0.4405910000000 1.0
C      1  0.5594090000000  0.5163680000000  0.5283280000000 1.0
C      1  0.4405910000000  0.4836320000000  0.5283280000000 1.0
C      1  0.5594090000000  0.4836320000000  0.4716720000000 1.0
C      1  0.4928670000000  0.5477600000000  0.4928310000000 1.0
C      1  0.4928310000000  0.4928670000000  0.5477600000000 1.0
C      1  0.5477600000000  0.4928310000000  0.4928670000000 1.0
C      1  0.5071330000000  0.5477600000000  0.5071690000000 1.0
C      1  0.4928670000000  0.4522400000000  0.5071690000000 1.0
C      1  0.5071330000000  0.4522400000000  0.4928310000000 1.0
C      1  0.5071690000000  0.4928670000000  0.4522400000000 1.0
C      1  0.4928310000000  0.5071330000000  0.4522400000000 1.0
C      1  0.5071690000000  0.5071330000000  0.5477600000000 1.0
C      1  0.4522400000000  0.4928310000000  0.5071330000000 1.0
C      1  0.5477600000000  0.5071690000000  0.5071330000000 1.0
C      1  0.4522400000000  0.5071690000000  0.4928670000000 1.0
C      1  0.4928670000000  0.4522400000000  0.4928310000000 1.0
C      1  0.4928310000000  0.5071330000000  0.5477600000000 1.0
C      1  0.5477600000000  0.5071690000000  0.4928670000000 1.0
C      1  0.5071330000000  0.4522400000000  0.5071690000000 1.0
C      1  0.4928670000000  0.5477600000000  0.5071690000000 1.0
C      1  0.5071330000000  0.5477600000000  0.4928310000000 1.0
C      1  0.5071690000000  0.5071330000000  0.4522400000000 1.0
C      1  0.4928310000000  0.4928670000000  0.4522400000000 1.0
C      1  0.5071690000000  0.4928670000000  0.5477600000000 1.0
C      1  0.4522400000000  0.5071690000000  0.5071330000000 1.0
C      1  0.5477600000000  0.4928310000000  0.5071330000000 1.0
C      1  0.4522400000000  0.4928310000000  0.4928670000000 1.0
C      1  0.5775090000000  0.5071460000000  0.5161360000000 1.0
C      1  0.5161360000000  0.5775090000000  0.5071460000000 1.0
C      1  0.5071460000000  0.5161360000000  0.5775090000000 1.0
C      1  0.4224910000000  0.5071460000000  0.4838640000000 1.0
C      1  0.5775090000000  0.4928540000000  0.4838640000000 1.0
C      1  0.4224910000000  0.4928540000000  0.5161360000000 1.0
C      1  0.4838640000000  0.5775090000000  0.4928540000000 1.0
C      1  0.5161360000000  0.4224910000000  0.4928540000000 1.0
C      1  0.4838640000000  0.4224910000000  0.5071460000000 1.0
C      1  0.4928540000000  0.5161360000000  0.4224910000000 1.0
C      1  0.5071460000000  0.4838640000000  0.4224910000000 1.0
C      1  0.4928540000000  0.4838640000000  0.5775090000000 1.0
C      1  0.5775090000000  0.4928540000000  0.5161360000000 1.0
C      1  0.5161360000000  0.4224910000000  0.5071460000000 1.0
C      1  0.5071460000000  0.4838640000000  0.5775090000000 1.0
C      1  0.4224910000000  0.4928540000000  0.4838640000000 1.0
C      1  0.5775090000000  0.5071460000000  0.4838640000000 1.0
C      1  0.4224910000000  0.5071460000000  0.5161360000000 1.0
C      1  0.4838640000000  0.4224910000000  0.4928540000000 1.0
C      1  0.5161360000000  0.5775090000000  0.4928540000000 1.0
C      1  0.4838640000000  0.5775090000000  0.5071460000000 1.0
C      1  0.4928540000000  0.4838640000000  0.4224910000000 1.0
C      1  0.5071460000000  0.5161360000000  0.4224910000000 1.0
C      1  0.4928540000000  0.5161360000000  0.5775090000000 1.0
C      1  0.4847670000000  0.4602330000000  0.4628710000000 1.0
C      1  0.4628710000000  0.4847670000000  0.4602330000000 1.0
C      1  0.4602330000000  0.4628710000000  0.4847670000000 1.0
C      1  0.5152330000000  0.4602330000000  0.5371290000000 1.0
C      1  0.4847670000000  0.5397670000000  0.5371290000000 1.0
C      1  0.5152330000000  0.5397670000000  0.4628710000000 1.0
C      1  0.5371290000000  0.4847670000000  0.5397670000000 1.0
C      1  0.4628710000000  0.5152330000000  0.5397670000000 1.0
C      1  0.5371290000000  0.5152330000000  0.4602330000000 1.0
C      1  0.5397670000000  0.4628710000000  0.5152330000000 1.0
C      1  0.4602330000000  0.5371290000000  0.5152330000000 1.0
C      1  0.5397670000000  0.5371290000000  0.4847670000000 1.0
C      1  0.4847670000000  0.5397670000000  0.4628710000000 1.0
C      1  0.4628710000000  0.5152330000000  0.4602330000000 1.0
C      1  0.4602330000000  0.5371290000000  0.4847670000000 1.0
C      1  0.5152330000000  0.5397670000000  0.5371290000000 1.0
C      1  0.4847670000000  0.4602330000000  0.5371290000000 1.0
C      1  0.5152330000000  0.4602330000000  0.4628710000000 1.0
C      1  0.5371290000000  0.5152330000000  0.5397670000000 1.0
C      1  0.4628710000000  0.4847670000000  0.5397670000000 1.0
C      1  0.5371290000000  0.4847670000000  0.4602330000000 1.0
C      1  0.5397670000000  0.5371290000000  0.5152330000000 1.0
C      1  0.4602330000000  0.4628710000000  0.5152330000000 1.0
C      1  0.5397670000000  0.4628710000000  0.4847670000000 1.0
C      1  0.5169380000000  0.5404930000000  0.5514570000000 1.0
C      1  0.5514570000000  0.5169380000000  0.5404930000000 1.0
C      1  0.5404930000000  0.5514570000000  0.5169380000000 1.0
C      1  0.4830620000000  0.5404930000000  0.4485430000000 1.0
C      1  0.5169380000000  0.4595070000000  0.4485430000000 1.0
C      1  0.4830620000000  0.4595070000000  0.5514570000000 1.0
C      1  0.4485430000000  0.5169380000000  0.4595070000000 1.0
C      1  0.5514570000000  0.4830620000000  0.4595070000000 1.0
C      1  0.4485430000000  0.4830620000000  0.5404930000000 1.0
C      1  0.4595070000000  0.5514570000000  0.4830620000000 1.0
C      1  0.5404930000000  0.4485430000000  0.4830620000000 1.0
C      1  0.4595070000000  0.4485430000000  0.5169380000000 1.0
C      1  0.5169380000000  0.4595070000000  0.5514570000000 1.0
C      1  0.5514570000000  0.4830620000000  0.5404930000000 1.0
C      1  0.5404930000000  0.4485430000000  0.5169380000000 1.0
C      1  0.4830620000000  0.4595070000000  0.4485430000000 1.0
C      1  0.5169380000000  0.5404930000000  0.4485430000000 1.0
C      1  0.4830620000000  0.5404930000000  0.5514570000000 1.0
C      1  0.4485430000000  0.4830620000000  0.4595070000000 1.0
C      1  0.5514570000000  0.5169380000000  0.4595070000000 1.0
C      1  0.4485430000000  0.5169380000000  0.5404930000000 1.0
C      1  0.4595070000000  0.4485430000000  0.4830620000000 1.0
C      1  0.5404930000000  0.5514570000000  0.4830620000000 1.0
C      1  0.4595070000000  0.5514570000000  0.5169380000000 1.0
C      1  0.5178840000000  0.4863110000000  0.5555070000000 1.0
C      1  0.5555070000000  0.5178840000000  0.4863110000000 1.0
C      1  0.4863110000000  0.5555070000000  0.5178840000000 1.0
C      1  0.4821160000000  0.4863110000000  0.4444930000000 1.0
C      1  0.5178840000000  0.5136890000000  0.4444930000000 1.0
C      1  0.4821160000000  0.5136890000000  0.5555070000000 1.0
C      1  0.4444930000000  0.5178840000000  0.5136890000000 1.0
C      1  0.5555070000000  0.4821160000000  0.5136890000000 1.0
C      1  0.4444930000000  0.4821160000000  0.4863110000000 1.0
C      1  0.5136890000000  0.5555070000000  0.4821160000000 1.0
C      1  0.4863110000000  0.4444930000000  0.4821160000000 1.0
C      1  0.5136890000000  0.4444930000000  0.5178840000000 1.0
C      1  0.5178840000000  0.5136890000000  0.5555070000000 1.0
C      1  0.5555070000000  0.4821160000000  0.4863110000000 1.0
C      1  0.4863110000000  0.4444930000000  0.5178840000000 1.0
C      1  0.4821160000000  0.5136890000000  0.4444930000000 1.0
C      1  0.5178840000000  0.4863110000000  0.4444930000000 1.0
C      1  0.4821160000000  0.4863110000000  0.5555070000000 1.0
C      1  0.4444930000000  0.4821160000000  0.5136890000000 1.0
C      1  0.5555070000000  0.5178840000000  0.5136890000000 1.0
C      1  0.4444930000000  0.5178840000000  0.4863110000000 1.0
C      1  0.5136890000000  0.4444930000000  0.4821160000000 1.0
C      1  0.4863110000000  0.5555070000000  0.4821160000000 1.0
C      1  0.5136890000000  0.5555070000000  0.5178840000000 1.0
C      1  0.4575300000000  0.4843290000000  0.4277340000000 1.0
C      1  0.4277340000000  0.4575300000000  0.4843290000000 1.0
C      1  0.4843290000000  0.4277340000000  0.4575300000000 1.0
C      1  0.5424700000000  0.4843290000000  0.5722660000000 1.0
C      1  0.4575300000000  0.5156710000000  0.5722660000000 1.0
C      1  0.5424700000000  0.5156710000000  0.4277340000000 1.0
C      1  0.5722660000000  0.4575300000000  0.5156710000000 1.0
C      1  0.4277340000000  0.5424700000000  0.5156710000000 1.0
C      1  0.5722660000000  0.5424700000000  0.4843290000000 1.0
C      1  0.5156710000000  0.4277340000000  0.5424700000000 1.0
C      1  0.4843290000000  0.5722660000000  0.5424700000000 1.0
C      1  0.5156710000000  0.5722660000000  0.4575300000000 1.0
C      1  0.4575300000000  0.5156710000000  0.4277340000000 1.0
C      1  0.4277340000000  0.5424700000000  0.4843290000000 1.0
C      1  0.4843290000000  0.5722660000000  0.4575300000000 1.0
C      1  0.5424700000000  0.5156710000000  0.5722660000000 1.0
C      1  0.4575300000000  0.4843290000000  0.5722660000000 1.0
C      1  0.5424700000000  0.4843290000000  0.4277340000000 1.0
C      1  0.5722660000000  0.5424700000000  0.5156710000000 1.0
C      1  0.4277340000000  0.4575300000000  0.5156710000000 1.0
C      1  0.5722660000000  0.4575300000000  0.4843290000000 1.0
C      1  0.5156710000000  0.5722660000000  0.5424700000000 1.0
C      1  0.4843290000000  0.4277340000000  0.5424700000000 1.0
C      1  0.5156710000000  0.4277340000000  0.4575300000000 1.0
C      1  0.4926490000000  0.4242290000000  0.5323200000000 1.0
C      1  0.5323200000000  0.4926490000000  0.4242290000000 1.0
C      1  0.4242290000000  0.5323200000000  0.4926490000000 1.0
C      1  0.5073510000000  0.4242290000000  0.4676800000000 1.0
C      1  0.4926490000000  0.5757710000000  0.4676800000000 1.0
C      1  0.5073510000000  0.5757710000000  0.5323200000000 1.0
C      1  0.4676800000000  0.4926490000000  0.5757710000000 1.0
C      1  0.5323200000000  0.5073510000000  0.5757710000000 1.0
C      1  0.4676800000000  0.5073510000000  0.4242290000000 1.0
C      1  0.5757710000000  0.5323200000000  0.5073510000000 1.0
C      1  0.4242290000000  0.4676800000000  0.5073510000000 1.0
C      1  0.5757710000000  0.4676800000000  0.4926490000000 1.0
C      1  0.4926490000000  0.5757710000000  0.5323200000000 1.0
C      1  0.5323200000000  0.5073510000000  0.4242290000000 1.0
C      1  0.4242290000000  0.4676800000000  0.4926490000000 1.0
C      1  0.5073510000000  0.5757710000000  0.4676800000000 1.0
C      1  0.4926490000000  0.4242290000000  0.4676800000000 1.0
C      1  0.5073510000000  0.4242290000000  0.5323200000000 1.0
C      1  0.4676800000000  0.5073510000000  0.5757710000000 1.0
C      1  0.5323200000000  0.4926490000000  0.5757710000000 1.0
C      1  0.4676800000000  0.4926490000000  0.4242290000000 1.0
C      1  0.5757710000000  0.4676800000000  0.5073510000000 1.0
C      1  0.4242290000000  0.5323200000000  0.5073510000000 1.0
C      1  0.5757710000000  0.5323200000000  0.4926490000000 1.0
C      1  0.5176050000000  0.5076780000000  0.4289620000000 1.0
C      1  0.4289620000000  0.5176050000000  0.5076780000000 1.0
C      1  0.5076780000000  0.4289620000000  0.5176050000000 1.0
C      1  0.4823950000000  0.5076780000000  0.5710380000000 1.0
C      1  0.5176050000000  0.4923220000000  0.5710380000000 1.0
C      1  0.4823950000000  0.4923220000000  0.4289620000000 1.0
C      1  0.5710380000000  0.5176050000000  0.4923220000000 1.0
C      1  0.4289620000000  0.4823950000000  0.4923220000000 1.0
C      1  0.5710380000000  0.4823950000000  0.5076780000000 1.0
C      1  0.4923220000000  0.4289620000000  0.4823950000000 1.0
C      1  0.5076780000000  0.5710380000000  0.4823950000000 1.0
C      1  0.4923220000000  0.5710380000000  0.5176050000000 1.0
C      1  0.5176050000000  0.4923220000000  0.4289620000000 1.0
C      1  0.4289620000000  0.4823950000000  0.5076780000000 1.0
C      1  0.5076780000000  0.5710380000000  0.5176050000000 1.0
C      1  0.4823950000000  0.4923220000000  0.5710380000000 1.0
C      1  0.5176050000000  0.5076780000000  0.5710380000000 1.0
C      1  0.4823950000000  0.5076780000000  0.4289620000000 1.0
C      1  0.5710380000000  0.4823950000000  0.4923220000000 1.0
C      1  0.4289620000000  0.5176050000000  0.4923220000000 1.0
C      1  0.5710380000000  0.5176050000000  0.5076780000000 1.0
C      1  0.4923220000000  0.5710380000000  0.4823950000000 1.0
C      1  0.5076780000000  0.4289620000000  0.4823950000000 1.0
C      1  0.4923220000000  0.4289620000000  0.5176050000000 1.0
C      1  0.5508870000000  0.4590310000000  0.5512070000000 1.0
C      1  0.5512070000000  0.5508870000000  0.4590310000000 1.0
C      1  0.4590310000000  0.5512070000000  0.5508870000000 1.0
C      1  0.4491130000000  0.4590310000000  0.4487930000000 1.0
C      1  0.5508870000000  0.5409690000000  0.4487930000000 1.0
C      1  0.4491130000000  0.5409690000000  0.5512070000000 1.0
C      1  0.4487930000000  0.5508870000000  0.5409690000000 1.0
C      1  0.5512070000000  0.4491130000000  0.5409690000000 1.0
C      1  0.4487930000000  0.4491130000000  0.4590310000000 1.0
C      1  0.5409690000000  0.5512070000000  0.4491130000000 1.0
C      1  0.4590310000000  0.4487930000000  0.4491130000000 1.0
C      1  0.5409690000000  0.4487930000000  0.5508870000000 1.0
C      1  0.5508870000000  0.5409690000000  0.5512070000000 1.0
C      1  0.5512070000000  0.4491130000000  0.4590310000000 1.0
C      1  0.4590310000000  0.4487930000000  0.5508870000000 1.0
C      1  0.4491130000000  0.5409690000000  0.4487930000000 1.0
C      1  0.5508870000000  0.4590310000000  0.4487930000000 1.0
C      1  0.4491130000000  0.4590310000000  0.5512070000000 1.0
C      1  0.4487930000000  0.4491130000000  0.5409690000000 1.0
C      1  0.5512070000000  0.5508870000000  0.5409690000000 1.0
C      1  0.4487930000000  0.5508870000000  0.4590310000000 1.0
C      1  0.5409690000000  0.4487930000000  0.4491130000000 1.0
C      1  0.4590310000000  0.5512070000000  0.4491130000000 1.0
C      1  0.5409690000000  0.5512070000000  0.5508870000000 1.0
END
