TITL C-1379268-1316-79 -2.07742797198478e-07 1000000 -3019.9856667023 0 0 420 (C1) n - 1
REM
REM in /nfs/bkarasulu/CARBON/AIRSS/Generating-Clusters/GAP-ML-2020/Higher-Symm/Selected-Sizes/TryA-Only_Ih-Symm/Larger-Clusters/Try2-MINAMP_6A
REM
REM
REM
REM
REM
REM ./C.cell (31579ac4e95a012ec27f3239692ae8a5)
REM
REM compiler GCC version 9.2.1 20190827 (Red Hat 9.2.1-1)
REM options -cpp -mtune=generic -march=x86-64 -g -O0 -fpre-include=/usr/include/finclude/math-vector-fortran.h
REM seed -1609202578 -1097881220 484415727 -1881615085 314671484 498015051 -1109336808 982328380 -704656709 438303079 913816437 -2079260911 1789196771 1756923204 126385894 -974266710 -161906147 1126926526 733026799 951488744 1146206368 -1924623567 -1306727505 -1987877020 -1409389027 45443379 824372814 1142753821 2110310771 -1145174927 -476088131 1902950231 -1525290071
REM
CELL 1.54180  100.00000  100.00000  100.00000   90.00000   90.00000   90.00000
LATT -1
SFAC C  
C      1  0.5320780000000  0.5378630000000  0.4401800000000 1.0
C      1  0.5424650000000  0.4375420000000  0.5318900000000 1.0
C      1  0.4409170000000  0.5319030000000  0.5353340000000 1.0
C      1  0.4689250000000  0.4597670000000  0.4383330000000 1.0
C      1  0.5320530000000  0.4619070000000  0.5615120000000 1.0
C      1  0.4676470000000  0.5387670000000  0.5613440000000 1.0
C      1  0.4631570000000  0.5637410000000  0.5313090000000 1.0
C      1  0.5441220000000  0.5599270000000  0.4685940000000 1.0
C      1  0.4572570000000  0.4395020000000  0.4667720000000 1.0
C      1  0.5608790000000  0.4690500000000  0.5377140000000 1.0
C      1  0.4378670000000  0.4682090000000  0.4575570000000 1.0
C      1  0.5637220000000  0.5306700000000  0.4619610000000 1.0
C      1  0.5286400000000  0.5460190000000  0.5622650000000 1.0
C      1  0.5387700000000  0.4383910000000  0.4696610000000 1.0
C      1  0.4385560000000  0.5294730000000  0.4624170000000 1.0
C      1  0.4698510000000  0.4546160000000  0.5602930000000 1.0
C      1  0.5296030000000  0.4553550000000  0.4372900000000 1.0
C      1  0.4680690000000  0.5425360000000  0.4430640000000 1.0
C      1  0.4541410000000  0.5618330000000  0.4703420000000 1.0
C      1  0.5382000000000  0.5629020000000  0.5301790000000 1.0
C      1  0.4607280000000  0.4365400000000  0.5296050000000 1.0
C      1  0.5576280000000  0.4680810000000  0.4561790000000 1.0
C      1  0.4413160000000  0.4677290000000  0.5414810000000 1.0
C      1  0.5560640000000  0.5319630000000  0.5429480000000 1.0
C      1  0.4802280000000  0.5451520000000  0.5643520000000 1.0
C      1  0.5495490000000  0.5619660000000  0.4823080000000 1.0
C      1  0.5629010000000  0.4823150000000  0.5430690000000 1.0
C      1  0.5192130000000  0.4545900000000  0.5637340000000 1.0
C      1  0.4820350000000  0.4530170000000  0.4388650000000 1.0
C      1  0.5188380000000  0.5449560000000  0.4402280000000 1.0
C      1  0.4513380000000  0.4385190000000  0.4800900000000 1.0
C      1  0.5471730000000  0.4377040000000  0.5177830000000 1.0
C      1  0.4561350000000  0.5663160000000  0.5186270000000 1.0
C      1  0.4395190000000  0.5187390000000  0.5414580000000 1.0
C      1  0.5657190000000  0.5177380000000  0.4560600000000 1.0
C      1  0.4381400000000  0.4818500000000  0.4527720000000 1.0
C      1  0.4811720000000  0.5490910000000  0.4420160000000 1.0
C      1  0.5457220000000  0.5620380000000  0.5175130000000 1.0
C      1  0.5583690000000  0.4815090000000  0.4498810000000 1.0
C      1  0.5156090000000  0.4514010000000  0.4374450000000 1.0
C      1  0.4839630000000  0.4498280000000  0.5617870000000 1.0
C      1  0.5147090000000  0.5507340000000  0.5633500000000 1.0
C      1  0.4543650000000  0.4371760000000  0.5163720000000 1.0
C      1  0.5451490000000  0.4390310000000  0.4828540000000 1.0
C      1  0.4500450000000  0.5629900000000  0.4844060000000 1.0
C      1  0.4391050000000  0.5167010000000  0.4553850000000 1.0
C      1  0.5565630000000  0.5184330000000  0.5488890000000 1.0
C      1  0.4423010000000  0.4813720000000  0.5481110000000 1.0
C      1  0.4658260000000  0.4776270000000  0.4620330000000 1.0
C      1  0.4829480000000  0.4636590000000  0.4692110000000 1.0
C      1  0.4629290000000  0.4662050000000  0.4830780000000 1.0
C      1  0.5335620000000  0.5193490000000  0.4645870000000 1.0
C      1  0.4709240000000  0.5180520000000  0.5328460000000 1.0
C      1  0.5300270000000  0.4810930000000  0.5350360000000 1.0
C      1  0.5183390000000  0.5362480000000  0.4688890000000 1.0
C      1  0.4848540000000  0.5378070000000  0.5315570000000 1.0
C      1  0.5160850000000  0.4623120000000  0.5338390000000 1.0
C      1  0.5359880000000  0.5315820000000  0.4852640000000 1.0
C      1  0.4667190000000  0.5340010000000  0.5157680000000 1.0
C      1  0.5366010000000  0.4635020000000  0.5206080000000 1.0
C      1  0.4705900000000  0.4849320000000  0.5333020000000 1.0
C      1  0.4833340000000  0.4634680000000  0.5320380000000 1.0
C      1  0.4625690000000  0.4653510000000  0.5220980000000 1.0
C      1  0.5292710000000  0.5159710000000  0.5342900000000 1.0
C      1  0.4701380000000  0.5171380000000  0.4650980000000 1.0
C      1  0.5310000000000  0.4841810000000  0.4643510000000 1.0
C      1  0.5172470000000  0.5373020000000  0.5332850000000 1.0
C      1  0.4859990000000  0.5356800000000  0.4689610000000 1.0
C      1  0.5212930000000  0.4617780000000  0.4648230000000 1.0
C      1  0.5342850000000  0.5333820000000  0.5176060000000 1.0
C      1  0.4649270000000  0.5328900000000  0.4818180000000 1.0
C      1  0.5345320000000  0.4685100000000  0.4830940000000 1.0
C      1  0.5191180000000  0.4740660000000  0.5405980000000 1.0
C      1  0.4768830000000  0.5422490000000  0.5208610000000 1.0
C      1  0.5409060000000  0.5223070000000  0.4758170000000 1.0
C      1  0.4813470000000  0.5259010000000  0.5375070000000 1.0
C      1  0.5215050000000  0.5254610000000  0.4609200000000 1.0
C      1  0.4795050000000  0.4743050000000  0.4611260000000 1.0
C      1  0.5246990000000  0.4575610000000  0.5235810000000 1.0
C      1  0.4748670000000  0.4600540000000  0.4803240000000 1.0
C      1  0.5253180000000  0.5389930000000  0.4806960000000 1.0
C      1  0.4596500000000  0.4764560000000  0.4742040000000 1.0
C      1  0.5372060000000  0.4768830000000  0.5240850000000 1.0
C      1  0.4628640000000  0.5220740000000  0.5222940000000 1.0
C      1  0.5228330000000  0.4740990000000  0.4582610000000 1.0
C      1  0.4758390000000  0.5404310000000  0.4776950000000 1.0
C      1  0.5363670000000  0.5209790000000  0.5235860000000 1.0
C      1  0.4821130000000  0.5241070000000  0.4624280000000 1.0
C      1  0.5206580000000  0.5255720000000  0.5404390000000 1.0
C      1  0.4803430000000  0.4755730000000  0.5381350000000 1.0
C      1  0.5243370000000  0.4604620000000  0.4785760000000 1.0
C      1  0.4743810000000  0.4583830000000  0.5223530000000 1.0
C      1  0.5243500000000  0.5418470000000  0.5218580000000 1.0
C      1  0.4621210000000  0.4792690000000  0.5238180000000 1.0
C      1  0.5375660000000  0.4800180000000  0.4757010000000 1.0
C      1  0.4609270000000  0.5212930000000  0.4745750000000 1.0
C      1  0.4620120000000  0.5165270000000  0.4404850000000 1.0
C      1  0.5162160000000  0.4478290000000  0.4608040000000 1.0
C      1  0.4488610000000  0.4610580000000  0.5179590000000 1.0
C      1  0.5389410000000  0.4792200000000  0.4309590000000 1.0
C      1  0.4607370000000  0.4786590000000  0.5667600000000 1.0
C      1  0.5380280000000  0.5217080000000  0.5681220000000 1.0
C      1  0.4773820000000  0.5685990000000  0.4596710000000 1.0
C      1  0.5167570000000  0.5586130000000  0.5420910000000 1.0
C      1  0.4830000000000  0.4419700000000  0.5407860000000 1.0
C      1  0.5596310000000  0.5390920000000  0.5171820000000 1.0
C      1  0.4442580000000  0.5411340000000  0.4841720000000 1.0
C      1  0.5601100000000  0.4613890000000  0.4825270000000 1.0
C      1  0.4599820000000  0.5165140000000  0.5542810000000 1.0
C      1  0.5193140000000  0.4267210000000  0.5397160000000 1.0
C      1  0.4365970000000  0.4602960000000  0.4836400000000 1.0
C      1  0.5423110000000  0.4832780000000  0.5539280000000 1.0
C      1  0.4620920000000  0.4826800000000  0.4483420000000 1.0
C      1  0.5439480000000  0.5171740000000  0.4458420000000 1.0
C      1  0.4838340000000  0.5574220000000  0.5435180000000 1.0
C      1  0.5182480000000  0.5612010000000  0.4611420000000 1.0
C      1  0.4835280000000  0.4382570000000  0.4610890000000 1.0
C      1  0.5563580000000  0.5405510000000  0.4848600000000 1.0
C      1  0.4465650000000  0.5449030000000  0.5151980000000 1.0
C      1  0.5506570000000  0.4602690000000  0.5155790000000 1.0
C      1  0.5491890000000  0.5439260000000  0.5463980000000 1.0
C      1  0.5389280000000  0.5504980000000  0.5535250000000 1.0
C      1  0.5434860000000  0.5555590000000  0.5412320000000 1.0
C      1  0.4479240000000  0.4554510000000  0.5448010000000 1.0
C      1  0.5505400000000  0.4562910000000  0.4525750000000 1.0
C      1  0.4451450000000  0.5403940000000  0.4562990000000 1.0
C      1  0.4590960000000  0.4501500000000  0.5517860000000 1.0
C      1  0.5396960000000  0.4502290000000  0.4458580000000 1.0
C      1  0.4563120000000  0.5458520000000  0.4501040000000 1.0
C      1  0.4545820000000  0.4441480000000  0.5399380000000 1.0
C      1  0.5438500000000  0.4453180000000  0.4582390000000 1.0
C      1  0.4498330000000  0.5528580000000  0.4604560000000 1.0
C      1  0.5554470000000  0.5398040000000  0.4546690000000 1.0
C      1  0.5436430000000  0.5430020000000  0.4476230000000 1.0
C      1  0.5481450000000  0.5510200000000  0.4582660000000 1.0
C      1  0.4457530000000  0.4584890000000  0.4514430000000 1.0
C      1  0.5528980000000  0.4589920000000  0.5445190000000 1.0
C      1  0.4491460000000  0.5423260000000  0.5419620000000 1.0
C      1  0.4575800000000  0.4551000000000  0.4449750000000 1.0
C      1  0.5420140000000  0.4556700000000  0.5527100000000 1.0
C      1  0.4590870000000  0.5450510000000  0.5512670000000 1.0
C      1  0.4530980000000  0.4475250000000  0.4559250000000 1.0
C      1  0.5464420000000  0.4469110000000  0.5421830000000 1.0
C      1  0.4568740000000  0.5539410000000  0.5406110000000 1.0
C      1  0.5191030000000  0.5531620000000  0.5147600000000 1.0
C      1  0.5484620000000  0.5176940000000  0.5158250000000 1.0
C      1  0.5155450000000  0.5199040000000  0.5525340000000 1.0
C      1  0.4793900000000  0.4470530000000  0.5148330000000 1.0
C      1  0.5155210000000  0.4494160000000  0.4840300000000 1.0
C      1  0.4835870000000  0.5528150000000  0.4818720000000 1.0
C      1  0.4508270000000  0.4834620000000  0.5147070000000 1.0
C      1  0.5500570000000  0.4835750000000  0.4830150000000 1.0
C      1  0.4495950000000  0.5142300000000  0.4797080000000 1.0
C      1  0.4833120000000  0.4837190000000  0.5506980000000 1.0
C      1  0.5163680000000  0.4799950000000  0.4470450000000 1.0
C      1  0.4850690000000  0.5161860000000  0.4498540000000 1.0
C      1  0.5176120000000  0.5516550000000  0.4837510000000 1.0
C      1  0.5523270000000  0.5149210000000  0.4804650000000 1.0
C      1  0.5153190000000  0.5194870000000  0.4493730000000 1.0
C      1  0.4829000000000  0.4477690000000  0.4837810000000 1.0
C      1  0.5153700000000  0.4463920000000  0.5194580000000 1.0
C      1  0.4815790000000  0.5541890000000  0.5144380000000 1.0
C      1  0.4482590000000  0.4820380000000  0.4826380000000 1.0
C      1  0.5475020000000  0.4835380000000  0.5153700000000 1.0
C      1  0.4515470000000  0.5152200000000  0.5166660000000 1.0
C      1  0.4848030000000  0.4840910000000  0.4506160000000 1.0
C      1  0.5137280000000  0.4804430000000  0.5521860000000 1.0
C      1  0.4844210000000  0.5180110000000  0.5499660000000 1.0
C      1  0.5616190000000  0.4687610000000  0.4695890000000 1.0
C      1  0.4697090000000  0.4679120000000  0.5644680000000 1.0
C      1  0.4671530000000  0.5665710000000  0.4692370000000 1.0
C      1  0.4350680000000  0.5337070000000  0.4760750000000 1.0
C      1  0.5603080000000  0.5312310000000  0.5297970000000 1.0
C      1  0.4384680000000  0.4684110000000  0.5271630000000 1.0
C      1  0.5292200000000  0.5328160000000  0.5667730000000 1.0
C      1  0.4692910000000  0.5293160000000  0.4393340000000 1.0
C      1  0.5300590000000  0.4683560000000  0.4323970000000 1.0
C      1  0.5254700000000  0.4355330000000  0.4658840000000 1.0
C      1  0.4742490000000  0.4328430000000  0.5340570000000 1.0
C      1  0.5246410000000  0.5674280000000  0.5339860000000 1.0
C      1  0.5628040000000  0.4647700000000  0.5245650000000 1.0
C      1  0.4692630000000  0.4741720000000  0.4369510000000 1.0
C      1  0.4769560000000  0.5671370000000  0.5350530000000 1.0
C      1  0.4375040000000  0.5359430000000  0.5219970000000 1.0
C      1  0.5661210000000  0.5349510000000  0.4754410000000 1.0
C      1  0.4346310000000  0.4679950000000  0.4711000000000 1.0
C      1  0.5359260000000  0.5243320000000  0.4361990000000 1.0
C      1  0.4638290000000  0.5253530000000  0.5644510000000 1.0
C      1  0.5352260000000  0.4759270000000  0.5640900000000 1.0
C      1  0.5299960000000  0.4309190000000  0.5314110000000 1.0
C      1  0.4706730000000  0.4363330000000  0.4679670000000 1.0
C      1  0.5307750000000  0.5629460000000  0.4687930000000 1.0
C      1  0.4857390000000  0.4238730000000  0.4797630000000 1.0
C      1  0.4242510000000  0.4796890000000  0.4876910000000 1.0
C      1  0.4833890000000  0.4844040000000  0.4242500000000 1.0
C      1  0.5152310000000  0.5758780000000  0.4795480000000 1.0
C      1  0.4855700000000  0.5781420000000  0.5155490000000 1.0
C      1  0.5135040000000  0.4215880000000  0.5174520000000 1.0
C      1  0.5763900000000  0.5160760000000  0.4831370000000 1.0
C      1  0.4270990000000  0.5163390000000  0.5153010000000 1.0
C      1  0.5728370000000  0.4834970000000  0.5162040000000 1.0
C      1  0.5161300000000  0.5168590000000  0.4255470000000 1.0
C      1  0.4817350000000  0.5151830000000  0.5744740000000 1.0
C      1  0.5162410000000  0.4843470000000  0.5759510000000 1.0
C      1  0.4825060000000  0.4227770000000  0.5147840000000 1.0
C      1  0.4251260000000  0.4826170000000  0.5176890000000 1.0
C      1  0.4817490000000  0.4846270000000  0.5754160000000 1.0
C      1  0.5163600000000  0.5773770000000  0.5145750000000 1.0
C      1  0.4842900000000  0.5775670000000  0.4806440000000 1.0
C      1  0.5161310000000  0.4241020000000  0.4832820000000 1.0
C      1  0.5729760000000  0.5188120000000  0.5144900000000 1.0
C      1  0.4253380000000  0.5150090000000  0.4850200000000 1.0
C      1  0.5740070000000  0.4807420000000  0.4855630000000 1.0
C      1  0.5166280000000  0.5156800000000  0.5766250000000 1.0
C      1  0.4806790000000  0.5145000000000  0.4262010000000 1.0
C      1  0.5173430000000  0.4856720000000  0.4232120000000 1.0
C      1  0.5092160000000  0.4212460000000  0.5311460000000 1.0
C      1  0.4284690000000  0.5301200000000  0.5122840000000 1.0
C      1  0.5302000000000  0.5145620000000  0.4272200000000 1.0
C      1  0.4879500000000  0.5757990000000  0.5294680000000 1.0
C      1  0.5111860000000  0.5732610000000  0.4662540000000 1.0
C      1  0.4912240000000  0.4265740000000  0.4670440000000 1.0
C      1  0.5725680000000  0.4694760000000  0.5152380000000 1.0
C      1  0.4265240000000  0.4665140000000  0.4927200000000 1.0
C      1  0.5751930000000  0.5300320000000  0.4851960000000 1.0
C      1  0.4694390000000  0.4846630000000  0.4254790000000 1.0
C      1  0.5301240000000  0.4862830000000  0.5732730000000 1.0
C      1  0.4678150000000  0.5139400000000  0.5727920000000 1.0
C      1  0.5158480000000  0.4253150000000  0.4693450000000 1.0
C      1  0.4267960000000  0.5289560000000  0.4869200000000 1.0
C      1  0.5302400000000  0.5115740000000  0.5747920000000 1.0
C      1  0.4870930000000  0.5764030000000  0.4667100000000 1.0
C      1  0.5139710000000  0.5758620000000  0.5285800000000 1.0
C      1  0.4842470000000  0.4240310000000  0.5288940000000 1.0
C      1  0.5717020000000  0.4676040000000  0.4904700000000 1.0
C      1  0.4260000000000  0.4686190000000  0.5175070000000 1.0
C      1  0.5713760000000  0.5321760000000  0.5097310000000 1.0
C      1  0.4681320000000  0.4886860000000  0.5738750000000 1.0
C      1  0.5310050000000  0.4895060000000  0.4246980000000 1.0
C      1  0.4677110000000  0.5090870000000  0.4285990000000 1.0
C      1  0.4384290000000  0.5110510000000  0.5225210000000 1.0
C      1  0.5111390000000  0.5250660000000  0.4363990000000 1.0
C      1  0.5241190000000  0.4321670000000  0.5173570000000 1.0
C      1  0.5611480000000  0.4889620000000  0.5224230000000 1.0
C      1  0.4334700000000  0.4818170000000  0.4760250000000 1.0
C      1  0.5655450000000  0.5103580000000  0.4750060000000 1.0
C      1  0.4851260000000  0.4762470000000  0.4367050000000 1.0
C      1  0.5109030000000  0.4755830000000  0.5657420000000 1.0
C      1  0.4872030000000  0.5234720000000  0.5641200000000 1.0
C      1  0.4767050000000  0.5678100000000  0.5107410000000 1.0
C      1  0.5259380000000  0.5657290000000  0.4824060000000 1.0
C      1  0.4746610000000  0.4338580000000  0.4818030000000 1.0
C      1  0.4357280000000  0.5102660000000  0.4761760000000 1.0
C      1  0.5152570000000  0.5272560000000  0.5669380000000 1.0
C      1  0.5226440000000  0.4359330000000  0.4884160000000 1.0
C      1  0.5637940000000  0.4824270000000  0.4740840000000 1.0
C      1  0.4384790000000  0.4836950000000  0.5245640000000 1.0
C      1  0.5620500000000  0.5175180000000  0.5250580000000 1.0
C      1  0.4834840000000  0.4736820000000  0.5651800000000 1.0
C      1  0.5158210000000  0.4740940000000  0.4327600000000 1.0
C      1  0.4830450000000  0.5252340000000  0.4367950000000 1.0
C      1  0.4736270000000  0.5672170000000  0.4826650000000 1.0
C      1  0.5247110000000  0.5662370000000  0.5104020000000 1.0
C      1  0.4743280000000  0.4337110000000  0.5097580000000 1.0
C      1  0.4963870000000  0.5687030000000  0.4473650000000 1.0
C      1  0.5677010000000  0.4404900000000  0.4930930000000 1.0
C      1  0.4483630000000  0.4973900000000  0.5672590000000 1.0
C      1  0.5050610000000  0.4304220000000  0.4482860000000 1.0
C      1  0.4982550000000  0.4299170000000  0.5495920000000 1.0
C      1  0.5020340000000  0.5714380000000  0.5504520000000 1.0
C      1  0.4300440000000  0.5513900000000  0.4987000000000 1.0
C      1  0.5696720000000  0.5595890000000  0.5086050000000 1.0
C      1  0.4325670000000  0.4481680000000  0.5075940000000 1.0
C      1  0.5501160000000  0.5024730000000  0.5684490000000 1.0
C      1  0.4410120000000  0.5051410000000  0.4347930000000 1.0
C      1  0.5509500000000  0.4984380000000  0.4308890000000 1.0
C      1  0.4903280000000  0.5688390000000  0.5572850000000 1.0
C      1  0.5680060000000  0.4483660000000  0.5045130000000 1.0
C      1  0.4488470000000  0.4942470000000  0.4324700000000 1.0
C      1  0.5129150000000  0.4317690000000  0.5520840000000 1.0
C      1  0.4939670000000  0.4314180000000  0.4399480000000 1.0
C      1  0.5068300000000  0.5651890000000  0.4395840000000 1.0
C      1  0.4313020000000  0.5606370000000  0.5094570000000 1.0
C      1  0.5707580000000  0.5521690000000  0.4968350000000 1.0
C      1  0.4356940000000  0.4405570000000  0.4970860000000 1.0
C      1  0.5604810000000  0.5078010000000  0.4335230000000 1.0
C      1  0.4398180000000  0.5072590000000  0.5634250000000 1.0
C      1  0.5596980000000  0.4931060000000  0.5656830000000 1.0
C      1  0.5604040000000  0.5540280000000  0.4870710000000 1.0
C      1  0.5568340000000  0.4845180000000  0.5556760000000 1.0
C      1  0.4824770000000  0.5578140000000  0.5579810000000 1.0
C      1  0.4394950000000  0.4452260000000  0.4849250000000 1.0
C      1  0.5567920000000  0.4472710000000  0.5135730000000 1.0
C      1  0.4436140000000  0.5592710000000  0.5158440000000 1.0
C      1  0.4454300000000  0.5155280000000  0.5539580000000 1.0
C      1  0.5585430000000  0.5164180000000  0.4437810000000 1.0
C      1  0.4483670000000  0.4848110000000  0.4432470000000 1.0
C      1  0.5180000000000  0.4414910000000  0.5599760000000 1.0
C      1  0.4848640000000  0.4401400000000  0.4454720000000 1.0
C      1  0.5167570000000  0.5582190000000  0.4460070000000 1.0
C      1  0.5590030000000  0.5548730000000  0.5161010000000 1.0
C      1  0.5512140000000  0.4848420000000  0.4370210000000 1.0
C      1  0.4834360000000  0.5622210000000  0.4478040000000 1.0
C      1  0.4441290000000  0.4472260000000  0.5158980000000 1.0
C      1  0.5582880000000  0.4458030000000  0.4845710000000 1.0
C      1  0.4395880000000  0.5539200000000  0.4882930000000 1.0
C      1  0.4464230000000  0.5149240000000  0.4426630000000 1.0
C      1  0.5499720000000  0.5156940000000  0.5618700000000 1.0
C      1  0.4486870000000  0.4842390000000  0.5609810000000 1.0
C      1  0.5131930000000  0.4420360000000  0.4476340000000 1.0
C      1  0.4877340000000  0.4384610000000  0.5538320000000 1.0
C      1  0.5121140000000  0.5622680000000  0.5548180000000 1.0
C      1  0.5063700000000  0.4501120000000  0.4948760000000 1.0
C      1  0.4525190000000  0.4935710000000  0.5051640000000 1.0
C      1  0.4956010000000  0.5067880000000  0.4513090000000 1.0
C      1  0.4932330000000  0.5515720000000  0.4924690000000 1.0
C      1  0.5073310000000  0.5505620000000  0.5076210000000 1.0
C      1  0.4914870000000  0.4498600000000  0.5085870000000 1.0
C      1  0.5453420000000  0.5083970000000  0.5056950000000 1.0
C      1  0.4534680000000  0.5070570000000  0.4907770000000 1.0
C      1  0.5485770000000  0.4936740000000  0.4927820000000 1.0
C      1  0.5099330000000  0.4920040000000  0.4505920000000 1.0
C      1  0.4936230000000  0.4936220000000  0.5500900000000 1.0
C      1  0.5086080000000  0.5077640000000  0.5502500000000 1.0
C      1  0.5059170000000  0.4496770000000  0.5092340000000 1.0
C      1  0.4520650000000  0.4926590000000  0.4912930000000 1.0
C      1  0.4941890000000  0.5077250000000  0.5494560000000 1.0
C      1  0.4930050000000  0.5517520000000  0.5071030000000 1.0
C      1  0.5072190000000  0.5504110000000  0.4932490000000 1.0
C      1  0.4923210000000  0.4497150000000  0.4942670000000 1.0
C      1  0.5495660000000  0.5078960000000  0.4921220000000 1.0
C      1  0.4540030000000  0.5077760000000  0.5052480000000 1.0
C      1  0.5440070000000  0.4939450000000  0.5061990000000 1.0
C      1  0.5080410000000  0.4930700000000  0.5503330000000 1.0
C      1  0.4956950000000  0.4928490000000  0.4516950000000 1.0
C      1  0.5099400000000  0.5067590000000  0.4512790000000 1.0
C      1  0.5082180000000  0.5829120000000  0.5044950000000 1.0
C      1  0.5784100000000  0.5077430000000  0.5071620000000 1.0
C      1  0.5061480000000  0.5076000000000  0.5813980000000 1.0
C      1  0.4914030000000  0.4176480000000  0.5052730000000 1.0
C      1  0.5070740000000  0.4179370000000  0.4918440000000 1.0
C      1  0.4930560000000  0.5824740000000  0.4904110000000 1.0
C      1  0.4196550000000  0.4919910000000  0.5091990000000 1.0
C      1  0.5792780000000  0.4917840000000  0.4931290000000 1.0
C      1  0.4197950000000  0.5054570000000  0.4936120000000 1.0
C      1  0.4918690000000  0.4925790000000  0.5808910000000 1.0
C      1  0.5069870000000  0.4939390000000  0.4188200000000 1.0
C      1  0.4916240000000  0.5079650000000  0.4201450000000 1.0
C      1  0.5077000000000  0.5820370000000  0.4898140000000 1.0
C      1  0.5800480000000  0.5065430000000  0.4925970000000 1.0
C      1  0.5063460000000  0.5086130000000  0.4199110000000 1.0
C      1  0.4924790000000  0.4180350000000  0.4906440000000 1.0
C      1  0.5060310000000  0.4175100000000  0.5063810000000 1.0
C      1  0.4936020000000  0.5833030000000  0.5050900000000 1.0
C      1  0.4193020000000  0.4908090000000  0.4946430000000 1.0
C      1  0.5781500000000  0.4930330000000  0.5076680000000 1.0
C      1  0.4203390000000  0.5064540000000  0.5082050000000 1.0
C      1  0.4924740000000  0.4934080000000  0.4189920000000 1.0
C      1  0.5065000000000  0.4929110000000  0.5813400000000 1.0
C      1  0.4914110000000  0.5071550000000  0.5808610000000 1.0
C      1  0.4393530000000  0.4913290000000  0.5376060000000 1.0
C      1  0.4910850000000  0.5388880000000  0.4375930000000 1.0
C      1  0.5360810000000  0.4356800000000  0.4941170000000 1.0
C      1  0.5611290000000  0.5090850000000  0.5378570000000 1.0
C      1  0.4344550000000  0.5050020000000  0.4630640000000 1.0
C      1  0.5638140000000  0.4904440000000  0.4607280000000 1.0
C      1  0.5065360000000  0.4621040000000  0.4335470000000 1.0
C      1  0.4923730000000  0.4611110000000  0.5654770000000 1.0
C      1  0.5061910000000  0.5393800000000  0.5671560000000 1.0
C      1  0.4616380000000  0.5674150000000  0.4921030000000 1.0
C      1  0.5381850000000  0.5660500000000  0.5054480000000 1.0
C      1  0.4613430000000  0.4333410000000  0.5038880000000 1.0
C      1  0.4336320000000  0.4906940000000  0.4630460000000 1.0
C      1  0.4919360000000  0.5370320000000  0.5666240000000 1.0
C      1  0.5364470000000  0.4341920000000  0.5085550000000 1.0
C      1  0.5666080000000  0.5044630000000  0.4622420000000 1.0
C      1  0.4379770000000  0.5054420000000  0.5355470000000 1.0
C      1  0.5623400000000  0.4947970000000  0.5355290000000 1.0
C      1  0.5066720000000  0.4621560000000  0.5664140000000 1.0
C      1  0.4923180000000  0.4628400000000  0.4356040000000 1.0
C      1  0.5057310000000  0.5382490000000  0.4367620000000 1.0
C      1  0.4633550000000  0.5688490000000  0.5062480000000 1.0
C      1  0.5387110000000  0.5660970000000  0.4910010000000 1.0
C      1  0.4613180000000  0.4338680000000  0.4894890000000 1.0
C      1  0.5060700000000  0.4522650000000  0.5319750000000 1.0
C      1  0.4571840000000  0.5393140000000  0.5060850000000 1.0
C      1  0.5377350000000  0.5083210000000  0.4562850000000 1.0
C      1  0.4938440000000  0.5473490000000  0.5374280000000 1.0
C      1  0.5097390000000  0.5489360000000  0.4694480000000 1.0
C      1  0.4912590000000  0.4502710000000  0.4698400000000 1.0
C      1  0.5498100000000  0.4711900000000  0.5054910000000 1.0
C      1  0.4501370000000  0.4681580000000  0.4918450000000 1.0
C      1  0.5464420000000  0.5342900000000  0.4946780000000 1.0
C      1  0.4722010000000  0.4934150000000  0.4505250000000 1.0
C      1  0.5352320000000  0.4918000000000  0.5431210000000 1.0
C      1  0.4704100000000  0.5091400000000  0.5456150000000 1.0
C      1  0.5060020000000  0.4486940000000  0.4715230000000 1.0
C      1  0.4558220000000  0.5362710000000  0.4923600000000 1.0
C      1  0.5307030000000  0.5039270000000  0.5404570000000 1.0
C      1  0.4951030000000  0.5468340000000  0.4712060000000 1.0
C      1  0.5076230000000  0.5473010000000  0.5369420000000 1.0
C      1  0.4925840000000  0.4528100000000  0.5348810000000 1.0
C      1  0.5481390000000  0.4693950000000  0.4909140000000 1.0
C      1  0.4491720000000  0.4704280000000  0.5064090000000 1.0
C      1  0.5471660000000  0.5330330000000  0.5092750000000 1.0
C      1  0.4723930000000  0.4944610000000  0.5442830000000 1.0
C      1  0.5322360000000  0.4962830000000  0.4580820000000 1.0
C      1  0.4707160000000  0.5082510000000  0.4521400000000 1.0
C      1  0.5734320000000  0.4616770000000  0.5033440000000 1.0
C      1  0.4263900000000  0.5368900000000  0.4994560000000 1.0
C      1  0.4610620000000  0.5010590000000  0.5735580000000 1.0
C      1  0.4616030000000  0.4962700000000  0.4260860000000 1.0
C      1  0.4962970000000  0.4230010000000  0.5369870000000 1.0
C      1  0.4992200000000  0.5758560000000  0.4596210000000 1.0
C      1  0.5375280000000  0.5020170000000  0.4256570000000 1.0
C      1  0.5369660000000  0.4990480000000  0.5740190000000 1.0
C      1  0.5752570000000  0.5380050000000  0.4975700000000 1.0
C      1  0.5013110000000  0.5760130000000  0.5362390000000 1.0
C      1  0.4256840000000  0.4606830000000  0.5059550000000 1.0
C      1  0.5041010000000  0.4245750000000  0.4613450000000 1.0
END
