TITL C-1379267-1329-336 3.51103275968224e-07 1000000 -1567.82349822317 0 0 220 (C1) n - 1
REM
REM in /nfs/bkarasulu/CARBON/AIRSS/Generating-Clusters/GAP-ML-2020/Higher-Symm/Selected-Sizes/TryA-Only_Ih-Symm/Larger-Clusters/Try2-MINAMP_6A
REM
REM
REM
REM
REM
REM ./C.cell (31579ac4e95a012ec27f3239692ae8a5)
REM
REM compiler GCC version 9.2.1 20190827 (Red Hat 9.2.1-1)
REM options -cpp -mtune=generic -march=x86-64 -g -O0 -fpre-include=/usr/include/finclude/math-vector-fortran.h
REM seed -1252473028 -120511362 -566269892 366208775 674532680 63312615 319461378 1855286512 -1689826108 292382269 -1588152995 -440552676 -165174156 -584426885 1444086176 -424669676 1088002932 77428862 638584587 1275615304 -609060079 -1245092829 -1447715656 980888707 2108356078 625726964 -103689258 242533612 615162688 709383880 -1126074581 -205853767 -805336330
REM
CELL 1.54180  100.00000  100.00000  100.00000   90.00000   90.00000   90.00000
LATT -1
SFAC C  
C      1  0.5582680000000  0.4496270000000  0.5066360000000 1.0
C      1  0.4510030000000  0.5054690000000  0.5596890000000 1.0
C      1  0.5058600000000  0.5580760000000  0.4501870000000 1.0
C      1  0.4401840000000  0.4494880000000  0.4894390000000 1.0
C      1  0.4409120000000  0.5476680000000  0.5074370000000 1.0
C      1  0.5574590000000  0.5483270000000  0.4906370000000 1.0
C      1  0.5484960000000  0.5061980000000  0.4408560000000 1.0
C      1  0.5490020000000  0.4904450000000  0.5581220000000 1.0
C      1  0.4512980000000  0.4929480000000  0.4410030000000 1.0
C      1  0.4908240000000  0.5571730000000  0.5491460000000 1.0
C      1  0.4940120000000  0.4411330000000  0.4505230000000 1.0
C      1  0.5057330000000  0.4422810000000  0.5487320000000 1.0
C      1  0.5058000000000  0.4509670000000  0.5593370000000 1.0
C      1  0.5581130000000  0.5053840000000  0.4506120000000 1.0
C      1  0.4504570000000  0.5575090000000  0.5065630000000 1.0
C      1  0.4933500000000  0.4509260000000  0.4409440000000 1.0
C      1  0.5065810000000  0.5482620000000  0.4406310000000 1.0
C      1  0.4901580000000  0.5489000000000  0.5601910000000 1.0
C      1  0.4425470000000  0.5053010000000  0.5489060000000 1.0
C      1  0.5597190000000  0.4896530000000  0.5494380000000 1.0
C      1  0.4415070000000  0.4935790000000  0.4505870000000 1.0
C      1  0.5490050000000  0.5592440000000  0.4898870000000 1.0
C      1  0.4499540000000  0.4396760000000  0.4894060000000 1.0
C      1  0.5482370000000  0.4402830000000  0.5074080000000 1.0
C      1  0.5303260000000  0.5106040000000  0.4328960000000 1.0
C      1  0.5096240000000  0.4349270000000  0.5302000000000 1.0
C      1  0.4336970000000  0.5290810000000  0.5115450000000 1.0
C      1  0.4686600000000  0.5102830000000  0.5687670000000 1.0
C      1  0.4695140000000  0.4885640000000  0.4330900000000 1.0
C      1  0.5299630000000  0.4887510000000  0.5654480000000 1.0
C      1  0.4894150000000  0.4325420000000  0.4685100000000 1.0
C      1  0.4888890000000  0.5638050000000  0.5298680000000 1.0
C      1  0.5100400000000  0.5664520000000  0.4683720000000 1.0
C      1  0.5642130000000  0.5290680000000  0.4888880000000 1.0
C      1  0.5667970000000  0.4677780000000  0.5106410000000 1.0
C      1  0.4327340000000  0.4685180000000  0.4876020000000 1.0
C      1  0.4354190000000  0.5091490000000  0.5302860000000 1.0
C      1  0.5295630000000  0.4332890000000  0.5114580000000 1.0
C      1  0.5109400000000  0.5299880000000  0.4329080000000 1.0
C      1  0.5660380000000  0.5094630000000  0.4690310000000 1.0
C      1  0.4329450000000  0.4889540000000  0.4685810000000 1.0
C      1  0.5672490000000  0.4873210000000  0.5305040000000 1.0
C      1  0.4689800000000  0.4322180000000  0.4875260000000 1.0
C      1  0.5301040000000  0.5669110000000  0.4877250000000 1.0
C      1  0.4688420000000  0.5656020000000  0.5104630000000 1.0
C      1  0.4880570000000  0.5302490000000  0.5684360000000 1.0
C      1  0.5105100000000  0.4688820000000  0.5679710000000 1.0
C      1  0.4889360000000  0.4691450000000  0.4330510000000 1.0
C      1  0.4296640000000  0.5066230000000  0.4827080000000 1.0
C      1  0.5071590000000  0.4824280000000  0.4287870000000 1.0
C      1  0.4818330000000  0.4318720000000  0.5063370000000 1.0
C      1  0.5653690000000  0.5057950000000  0.5170590000000 1.0
C      1  0.5692200000000  0.4913360000000  0.4825980000000 1.0
C      1  0.4327170000000  0.4909540000000  0.5165670000000 1.0
C      1  0.4924520000000  0.4824650000000  0.5717450000000 1.0
C      1  0.4926790000000  0.5167010000000  0.4287620000000 1.0
C      1  0.5066340000000  0.5168850000000  0.5667820000000 1.0
C      1  0.5166530000000  0.4293570000000  0.4928550000000 1.0
C      1  0.5168220000000  0.5649760000000  0.5063310000000 1.0
C      1  0.4822240000000  0.5688090000000  0.4922070000000 1.0
C      1  0.4827800000000  0.5067980000000  0.4288270000000 1.0
C      1  0.4323820000000  0.4813630000000  0.5064130000000 1.0
C      1  0.5070940000000  0.4292680000000  0.4826260000000 1.0
C      1  0.5165360000000  0.5070610000000  0.5658530000000 1.0
C      1  0.4824850000000  0.4922650000000  0.5719320000000 1.0
C      1  0.5170560000000  0.4923350000000  0.4287410000000 1.0
C      1  0.5693950000000  0.4814080000000  0.4924470000000 1.0
C      1  0.4297660000000  0.5161780000000  0.4929400000000 1.0
C      1  0.5644150000000  0.5156570000000  0.5072070000000 1.0
C      1  0.4914260000000  0.4322200000000  0.5164880000000 1.0
C      1  0.5070710000000  0.5640080000000  0.5162920000000 1.0
C      1  0.4919780000000  0.5690110000000  0.4821860000000 1.0
C      1  0.4336860000000  0.5007930000000  0.4603890000000 1.0
C      1  0.5004630000000  0.4605030000000  0.4329590000000 1.0
C      1  0.4600810000000  0.4346710000000  0.4985130000000 1.0
C      1  0.5644280000000  0.4984920000000  0.5390470000000 1.0
C      1  0.5656520000000  0.4979090000000  0.4604330000000 1.0
C      1  0.4361940000000  0.4974870000000  0.5386670000000 1.0
C      1  0.4988680000000  0.4603940000000  0.5677830000000 1.0
C      1  0.4994440000000  0.5386490000000  0.4327020000000 1.0
C      1  0.4991310000000  0.5387800000000  0.5652330000000 1.0
C      1  0.5385000000000  0.4325770000000  0.5002000000000 1.0
C      1  0.5387340000000  0.5640510000000  0.4988210000000 1.0
C      1  0.4601310000000  0.5651660000000  0.4989980000000 1.0
C      1  0.4608640000000  0.5000850000000  0.4330270000000 1.0
C      1  0.4352240000000  0.4596140000000  0.4985780000000 1.0
C      1  0.5012500000000  0.4333210000000  0.4603150000000 1.0
C      1  0.5383670000000  0.4997670000000  0.5614960000000 1.0
C      1  0.4603410000000  0.4985240000000  0.5682100000000 1.0
C      1  0.5389910000000  0.4991010000000  0.4327570000000 1.0
C      1  0.5659820000000  0.4592380000000  0.4990640000000 1.0
C      1  0.4330410000000  0.5380220000000  0.5002770000000 1.0
C      1  0.5605530000000  0.5375790000000  0.4999320000000 1.0
C      1  0.4979570000000  0.4357420000000  0.5385810000000 1.0
C      1  0.5000150000000  0.5601890000000  0.5382950000000 1.0
C      1  0.4983740000000  0.5656700000000  0.4599460000000 1.0
C      1  0.4823340000000  0.4308340000000  0.4917470000000 1.0
C      1  0.4307270000000  0.4920640000000  0.4822230000000 1.0
C      1  0.4926830000000  0.4824780000000  0.4302910000000 1.0
C      1  0.5161920000000  0.4312260000000  0.5073120000000 1.0
C      1  0.5165870000000  0.5673620000000  0.4917780000000 1.0
C      1  0.4824180000000  0.5673670000000  0.5067620000000 1.0
C      1  0.5677290000000  0.4912400000000  0.5169570000000 1.0
C      1  0.5677820000000  0.5058960000000  0.4826440000000 1.0
C      1  0.4327550000000  0.5055780000000  0.5169100000000 1.0
C      1  0.5069580000000  0.4825150000000  0.5698210000000 1.0
C      1  0.5071560000000  0.5166480000000  0.4302230000000 1.0
C      1  0.4921030000000  0.5167620000000  0.5693410000000 1.0
C      1  0.4925330000000  0.4302980000000  0.4821440000000 1.0
C      1  0.4828390000000  0.4923200000000  0.4303100000000 1.0
C      1  0.4313180000000  0.4818660000000  0.4918250000000 1.0
C      1  0.5060500000000  0.4322760000000  0.5168230000000 1.0
C      1  0.4924560000000  0.5657530000000  0.5164610000000 1.0
C      1  0.5065720000000  0.5681920000000  0.4820090000000 1.0
C      1  0.5166580000000  0.4924660000000  0.5678010000000 1.0
C      1  0.4823170000000  0.5068220000000  0.5706050000000 1.0
C      1  0.5169900000000  0.5068090000000  0.4302060000000 1.0
C      1  0.5685620000000  0.4813780000000  0.5070370000000 1.0
C      1  0.4316470000000  0.5157100000000  0.5073930000000 1.0
C      1  0.5661680000000  0.5156920000000  0.4925890000000 1.0
C      1  0.4420670000000  0.5174220000000  0.5399630000000 1.0
C      1  0.5186850000000  0.5392580000000  0.4406270000000 1.0
C      1  0.5390040000000  0.4407330000000  0.5193140000000 1.0
C      1  0.5589860000000  0.5173320000000  0.4593640000000 1.0
C      1  0.5631000000000  0.4780390000000  0.5405990000000 1.0
C      1  0.4403010000000  0.4813590000000  0.4589320000000 1.0
C      1  0.4786440000000  0.5400770000000  0.5639410000000 1.0
C      1  0.4811810000000  0.4598860000000  0.4407550000000 1.0
C      1  0.5179570000000  0.4593830000000  0.5602400000000 1.0
C      1  0.4592030000000  0.4365080000000  0.4780470000000 1.0
C      1  0.4593240000000  0.5584460000000  0.5184090000000 1.0
C      1  0.5400960000000  0.5627130000000  0.4783490000000 1.0
C      1  0.5394960000000  0.5183190000000  0.4407430000000 1.0
C      1  0.4412630000000  0.5384380000000  0.5193630000000 1.0
C      1  0.5178680000000  0.4417130000000  0.5397910000000 1.0
C      1  0.4592530000000  0.5177090000000  0.5608760000000 1.0
C      1  0.5400390000000  0.4791830000000  0.5622020000000 1.0
C      1  0.4602680000000  0.4807860000000  0.4407860000000 1.0
C      1  0.5612850000000  0.5392780000000  0.4793570000000 1.0
C      1  0.4369880000000  0.4587500000000  0.4781000000000 1.0
C      1  0.5594950000000  0.4583340000000  0.5185690000000 1.0
C      1  0.4817990000000  0.4398950000000  0.4588750000000 1.0
C      1  0.5178950000000  0.5592610000000  0.4587750000000 1.0
C      1  0.4794570000000  0.5609160000000  0.5401740000000 1.0
C      1  0.4868380000000  0.4348530000000  0.5302680000000 1.0
C      1  0.4305890000000  0.5303460000000  0.4889900000000 1.0
C      1  0.5310880000000  0.4880060000000  0.4300620000000 1.0
C      1  0.5119620000000  0.4306950000000  0.4687170000000 1.0
C      1  0.5111690000000  0.5597800000000  0.5299380000000 1.0
C      1  0.4874180000000  0.5677240000000  0.4681800000000 1.0
C      1  0.5601850000000  0.5293310000000  0.5111790000000 1.0
C      1  0.5680770000000  0.4673570000000  0.4880280000000 1.0
C      1  0.4353070000000  0.4672980000000  0.5101140000000 1.0
C      1  0.4684990000000  0.4876830000000  0.5708740000000 1.0
C      1  0.4687620000000  0.5111550000000  0.4302390000000 1.0
C      1  0.5300960000000  0.5109940000000  0.5611950000000 1.0
C      1  0.5308220000000  0.4301620000000  0.4889040000000 1.0
C      1  0.4883440000000  0.5307350000000  0.4300510000000 1.0
C      1  0.4353350000000  0.4863650000000  0.5303520000000 1.0
C      1  0.4677670000000  0.4347700000000  0.5100450000000 1.0
C      1  0.5308040000000  0.5619790000000  0.5100080000000 1.0
C      1  0.4681220000000  0.5675180000000  0.4879240000000 1.0
C      1  0.5102920000000  0.5307720000000  0.5633080000000 1.0
C      1  0.4880060000000  0.4684260000000  0.5707140000000 1.0
C      1  0.5115240000000  0.4684120000000  0.4301710000000 1.0
C      1  0.5679670000000  0.4869130000000  0.4685390000000 1.0
C      1  0.4310560000000  0.5114950000000  0.4687990000000 1.0
C      1  0.5623750000000  0.5096040000000  0.5310150000000 1.0
C      1  0.4491190000000  0.5401070000000  0.5312130000000 1.0
C      1  0.5409860000000  0.5301870000000  0.4486140000000 1.0
C      1  0.5301230000000  0.4489420000000  0.5415910000000 1.0
C      1  0.5572610000000  0.5403460000000  0.4657910000000 1.0
C      1  0.5527480000000  0.4568190000000  0.5306810000000 1.0
C      1  0.4418640000000  0.4581440000000  0.4647950000000 1.0
C      1  0.4575470000000  0.5295970000000  0.5538250000000 1.0
C      1  0.4586470000000  0.4687950000000  0.4484100000000 1.0
C      1  0.5409050000000  0.4656130000000  0.5580790000000 1.0
C      1  0.4696460000000  0.4464520000000  0.4569280000000 1.0
C      1  0.4659200000000  0.5568150000000  0.5413430000000 1.0
C      1  0.5300400000000  0.5526190000000  0.4570480000000 1.0
C      1  0.5305290000000  0.5408250000000  0.4484900000000 1.0
C      1  0.4492710000000  0.5296610000000  0.5418320000000 1.0
C      1  0.5407410000000  0.4485750000000  0.5311460000000 1.0
C      1  0.4654390000000  0.5407300000000  0.5587100000000 1.0
C      1  0.5298830000000  0.4575240000000  0.5533210000000 1.0
C      1  0.4692030000000  0.4582450000000  0.4483940000000 1.0
C      1  0.5524860000000  0.5295180000000  0.4574920000000 1.0
C      1  0.4468700000000  0.4692180000000  0.4569650000000 1.0
C      1  0.5578580000000  0.4648750000000  0.5415700000000 1.0
C      1  0.4585830000000  0.4414230000000  0.4647580000000 1.0
C      1  0.5409740000000  0.5575330000000  0.4651580000000 1.0
C      1  0.4576650000000  0.5518420000000  0.5305650000000 1.0
C      1  0.5341650000000  0.4299540000000  0.4754430000000 1.0
C      1  0.4377240000000  0.4728320000000  0.5326180000000 1.0
C      1  0.4747780000000  0.5336370000000  0.4299250000000 1.0
C      1  0.4647190000000  0.4378490000000  0.5233230000000 1.0
C      1  0.4650450000000  0.5674730000000  0.4744260000000 1.0
C      1  0.5334180000000  0.5573500000000  0.5229910000000 1.0
C      1  0.5679090000000  0.4733860000000  0.4655940000000 1.0
C      1  0.5577400000000  0.5226100000000  0.5335300000000 1.0
C      1  0.4307630000000  0.5251120000000  0.4662980000000 1.0
C      1  0.5232020000000  0.5332360000000  0.5583820000000 1.0
C      1  0.5250870000000  0.4655100000000  0.4299630000000 1.0
C      1  0.4745380000000  0.4653110000000  0.5712330000000 1.0
C      1  0.4733010000000  0.4372210000000  0.5325380000000 1.0
C      1  0.5339980000000  0.4744410000000  0.4299040000000 1.0
C      1  0.4303480000000  0.5336930000000  0.4755300000000 1.0
C      1  0.5255790000000  0.4304160000000  0.4662170000000 1.0
C      1  0.4738570000000  0.5674980000000  0.4654080000000 1.0
C      1  0.5246330000000  0.5561720000000  0.5318580000000 1.0
C      1  0.4655590000000  0.4741690000000  0.5712310000000 1.0
C      1  0.5320070000000  0.5243730000000  0.5572920000000 1.0
C      1  0.4658540000000  0.5247170000000  0.4300360000000 1.0
C      1  0.5566230000000  0.5313670000000  0.5246320000000 1.0
C      1  0.4383730000000  0.4642570000000  0.5233970000000 1.0
C      1  0.5678730000000  0.4644540000000  0.4744930000000 1.0
C      1  0.5534260000000  0.4619110000000  0.5541570000000 1.0
C      1  0.5535350000000  0.5529830000000  0.4621890000000 1.0
C      1  0.4623470000000  0.5531750000000  0.5539980000000 1.0
C      1  0.4460420000000  0.4456110000000  0.4612840000000 1.0
END
