TITL C-1379268-1316-417 -3.39188442952338e-07 1000000 -3967.33083419344 0 0 540 (C1) n - 1
REM
REM in /nfs/bkarasulu/CARBON/AIRSS/Generating-Clusters/GAP-ML-2020/Higher-Symm/Selected-Sizes/TryA-Only_Ih-Symm/Larger-Clusters/Try2-MINAMP_6A
REM
REM
REM
REM
REM
REM ./C.cell (31579ac4e95a012ec27f3239692ae8a5)
REM
REM compiler GCC version 9.2.1 20190827 (Red Hat 9.2.1-1)
REM options -cpp -mtune=generic -march=x86-64 -g -O0 -fpre-include=/usr/include/finclude/math-vector-fortran.h
REM seed 1512629417 845691842 687442963 397898984 -1867762982 1444617081 -1586316338 795255744 -1579608921 636256801 -595817736 460983871 1615875095 -998908777 -200308993 -1630684545 -1866507058 -465708096 284932030 -1481470456 -1650640361 -1028627379 -906319117 158539978 2119135617 318546214 -856888147 607826539 954885185 -341295371 -312972543 -1271292636 1420878752
REM
CELL 1.54180  100.00000  100.00000  100.00000   90.00000   90.00000   90.00000
LATT -1
SFAC C  
C      1  0.4272740000000  0.5477030000000  0.4954200000000 1.0
C      1  0.4855100000000  0.4300090000000  0.5487720000000 1.0
C      1  0.5479820000000  0.4972360000000  0.4274860000000 1.0
C      1  0.5733530000000  0.4524580000000  0.4988860000000 1.0
C      1  0.5732790000000  0.5525010000000  0.5122250000000 1.0
C      1  0.4270700000000  0.4528280000000  0.4991740000000 1.0
C      1  0.5124700000000  0.5740760000000  0.5520610000000 1.0
C      1  0.5041990000000  0.4265510000000  0.4512280000000 1.0
C      1  0.4914540000000  0.5707070000000  0.4484940000000 1.0
C      1  0.4512980000000  0.5004560000000  0.4255520000000 1.0
C      1  0.4472820000000  0.4928850000000  0.5723750000000 1.0
C      1  0.5522450000000  0.5089530000000  0.5723350000000 1.0
C      1  0.4276900000000  0.5528190000000  0.5076920000000 1.0
C      1  0.4915980000000  0.4272480000000  0.4469600000000 1.0
C      1  0.5482550000000  0.4962620000000  0.5730540000000 1.0
C      1  0.5732180000000  0.4480660000000  0.5115100000000 1.0
C      1  0.5741110000000  0.5483500000000  0.4996360000000 1.0
C      1  0.4285880000000  0.4503120000000  0.4855490000000 1.0
C      1  0.5039010000000  0.5716890000000  0.4532260000000 1.0
C      1  0.4991230000000  0.4282450000000  0.5463920000000 1.0
C      1  0.4996170000000  0.5745280000000  0.5483480000000 1.0
C      1  0.4523200000000  0.5052020000000  0.5726680000000 1.0
C      1  0.4468890000000  0.4879670000000  0.4265880000000 1.0
C      1  0.5518230000000  0.5099530000000  0.4279930000000 1.0
C      1  0.4844340000000  0.4730900000000  0.5888190000000 1.0
C      1  0.5889750000000  0.4869420000000  0.4709570000000 1.0
C      1  0.4720890000000  0.5872310000000  0.4860850000000 1.0
C      1  0.5156340000000  0.5283900000000  0.5872990000000 1.0
C      1  0.5136170000000  0.4706980000000  0.4113910000000 1.0
C      1  0.4866690000000  0.5282530000000  0.4119490000000 1.0
C      1  0.4106250000000  0.5123460000000  0.4697660000000 1.0
C      1  0.4113510000000  0.4870950000000  0.5281420000000 1.0
C      1  0.5896610000000  0.5134650000000  0.5290160000000 1.0
C      1  0.5298870000000  0.4118680000000  0.4872900000000 1.0
C      1  0.5291920000000  0.5900010000000  0.5145840000000 1.0
C      1  0.4713940000000  0.4121690000000  0.5117890000000 1.0
C      1  0.4864990000000  0.4711070000000  0.4108720000000 1.0
C      1  0.5885280000000  0.4863330000000  0.5289820000000 1.0
C      1  0.4715250000000  0.5889570000000  0.5131920000000 1.0
C      1  0.5137630000000  0.5283510000000  0.4129660000000 1.0
C      1  0.5116780000000  0.4713670000000  0.5886660000000 1.0
C      1  0.4887260000000  0.5303820000000  0.5880940000000 1.0
C      1  0.4129050000000  0.5144780000000  0.5273560000000 1.0
C      1  0.4099210000000  0.4855390000000  0.4706620000000 1.0
C      1  0.5890700000000  0.5140360000000  0.4716190000000 1.0
C      1  0.5288680000000  0.4112440000000  0.5141340000000 1.0
C      1  0.5298540000000  0.5891360000000  0.4877800000000 1.0
C      1  0.4727170000000  0.4119670000000  0.4847060000000 1.0
C      1  0.5472090000000  0.5131680000000  0.5374870000000 1.0
C      1  0.5375670000000  0.5461440000000  0.5132890000000 1.0
C      1  0.5116540000000  0.5371050000000  0.5437640000000 1.0
C      1  0.4580050000000  0.4857980000000  0.5373080000000 1.0
C      1  0.4534330000000  0.5119010000000  0.4632310000000 1.0
C      1  0.5417570000000  0.4872370000000  0.4625990000000 1.0
C      1  0.4641150000000  0.4560370000000  0.5149560000000 1.0
C      1  0.4639700000000  0.5422670000000  0.4882910000000 1.0
C      1  0.5355960000000  0.4581360000000  0.4846390000000 1.0
C      1  0.4888820000000  0.4660250000000  0.5405660000000 1.0
C      1  0.4869440000000  0.5338010000000  0.4588140000000 1.0
C      1  0.5104820000000  0.4632800000000  0.4559580000000 1.0
C      1  0.5387110000000  0.5128340000000  0.4652900000000 1.0
C      1  0.5373110000000  0.5457650000000  0.4875390000000 1.0
C      1  0.5130590000000  0.5326010000000  0.4590960000000 1.0
C      1  0.4528060000000  0.4859370000000  0.4634350000000 1.0
C      1  0.4612880000000  0.5110830000000  0.5340900000000 1.0
C      1  0.5461560000000  0.4876150000000  0.5358570000000 1.0
C      1  0.4625990000000  0.4553820000000  0.4895210000000 1.0
C      1  0.4629660000000  0.5431940000000  0.5138610000000 1.0
C      1  0.5351290000000  0.4588700000000  0.5106600000000 1.0
C      1  0.4853390000000  0.4611900000000  0.4544260000000 1.0
C      1  0.4862610000000  0.5367660000000  0.5441910000000 1.0
C      1  0.5145770000000  0.4651900000000  0.5406040000000 1.0
C      1  0.4753570000000  0.4176580000000  0.4718130000000 1.0
C      1  0.4733460000000  0.4732480000000  0.4161570000000 1.0
C      1  0.4153970000000  0.4726240000000  0.4731630000000 1.0
C      1  0.5278210000000  0.5831300000000  0.4751380000000 1.0
C      1  0.5257940000000  0.4170830000000  0.5268600000000 1.0
C      1  0.4738510000000  0.5833520000000  0.5261570000000 1.0
C      1  0.5263400000000  0.5258050000000  0.4191700000000 1.0
C      1  0.5246910000000  0.4728920000000  0.5831040000000 1.0
C      1  0.4756750000000  0.5286870000000  0.5826980000000 1.0
C      1  0.5831550000000  0.5268360000000  0.4744370000000 1.0
C      1  0.5825960000000  0.4735970000000  0.5265990000000 1.0
C      1  0.4191480000000  0.5270630000000  0.5244250000000 1.0
C      1  0.4733410000000  0.4178290000000  0.5247130000000 1.0
C      1  0.4718410000000  0.4761540000000  0.5824430000000 1.0
C      1  0.4168000000000  0.4739530000000  0.5259350000000 1.0
C      1  0.5267840000000  0.5845670000000  0.5275770000000 1.0
C      1  0.5279020000000  0.4175390000000  0.4743980000000 1.0
C      1  0.4747440000000  0.5811140000000  0.4735010000000 1.0
C      1  0.5284230000000  0.5252870000000  0.5815950000000 1.0
C      1  0.5263350000000  0.4731460000000  0.4174850000000 1.0
C      1  0.4736100000000  0.5257120000000  0.4173270000000 1.0
C      1  0.5842670000000  0.5265590000000  0.5268410000000 1.0
C      1  0.5827650000000  0.4742910000000  0.4733910000000 1.0
C      1  0.4165540000000  0.5250790000000  0.4716840000000 1.0
C      1  0.4739210000000  0.5496980000000  0.4944520000000 1.0
C      1  0.4949710000000  0.4752240000000  0.5488300000000 1.0
C      1  0.5484030000000  0.4929000000000  0.4735020000000 1.0
C      1  0.5255370000000  0.4507050000000  0.4909750000000 1.0
C      1  0.5273290000000  0.5537910000000  0.5075540000000 1.0
C      1  0.4740240000000  0.4485260000000  0.5083310000000 1.0
C      1  0.5066180000000  0.5266860000000  0.5512480000000 1.0
C      1  0.5043000000000  0.4728890000000  0.4481380000000 1.0
C      1  0.4924320000000  0.5237500000000  0.4513980000000 1.0
C      1  0.4457210000000  0.5060530000000  0.4734050000000 1.0
C      1  0.4519990000000  0.4910950000000  0.5259850000000 1.0
C      1  0.5540890000000  0.5078360000000  0.5265440000000 1.0
C      1  0.4737230000000  0.5501110000000  0.5084310000000 1.0
C      1  0.4904240000000  0.4722430000000  0.4479460000000 1.0
C      1  0.5536970000000  0.4938350000000  0.5258110000000 1.0
C      1  0.5258080000000  0.4507170000000  0.5048380000000 1.0
C      1  0.5272060000000  0.5532850000000  0.4936060000000 1.0
C      1  0.4731440000000  0.4480410000000  0.4945060000000 1.0
C      1  0.5063760000000  0.5236260000000  0.4508050000000 1.0
C      1  0.5089020000000  0.4752490000000  0.5482670000000 1.0
C      1  0.4927620000000  0.5265550000000  0.5516300000000 1.0
C      1  0.4531270000000  0.5049610000000  0.5248230000000 1.0
C      1  0.4452640000000  0.4920690000000  0.4734930000000 1.0
C      1  0.5470480000000  0.5068440000000  0.4745680000000 1.0
C      1  0.5321920000000  0.4708850000000  0.4488500000000 1.0
C      1  0.4502470000000  0.5345520000000  0.4722040000000 1.0
C      1  0.4730580000000  0.4497140000000  0.5362890000000 1.0
C      1  0.4642350000000  0.5283910000000  0.4509730000000 1.0
C      1  0.4673800000000  0.4696080000000  0.5510730000000 1.0
C      1  0.5328420000000  0.5277760000000  0.5446910000000 1.0
C      1  0.5491850000000  0.4658570000000  0.4672200000000 1.0
C      1  0.5502280000000  0.5364800000000  0.5295350000000 1.0
C      1  0.4507230000000  0.4642800000000  0.5323410000000 1.0
C      1  0.5284720000000  0.5502490000000  0.5357840000000 1.0
C      1  0.5278560000000  0.4509320000000  0.4632470000000 1.0
C      1  0.4715920000000  0.5481170000000  0.4658220000000 1.0
C      1  0.5368180000000  0.4707120000000  0.5466960000000 1.0
C      1  0.4503480000000  0.5325740000000  0.5302340000000 1.0
C      1  0.4707420000000  0.4533370000000  0.4682190000000 1.0
C      1  0.4648900000000  0.5273890000000  0.5498820000000 1.0
C      1  0.4621560000000  0.4691700000000  0.4512580000000 1.0
C      1  0.5345630000000  0.5271720000000  0.4481630000000 1.0
C      1  0.5501710000000  0.4650680000000  0.5262530000000 1.0
C      1  0.5485730000000  0.5349220000000  0.4706810000000 1.0
C      1  0.4485620000000  0.4636430000000  0.4732560000000 1.0
C      1  0.5283150000000  0.5484180000000  0.4649970000000 1.0
C      1  0.5302400000000  0.4500990000000  0.5333570000000 1.0
C      1  0.4684920000000  0.5496600000000  0.5355320000000 1.0
C      1  0.5925070000000  0.4833820000000  0.4928540000000 1.0
C      1  0.4938590000000  0.5909580000000  0.4833480000000 1.0
C      1  0.4824790000000  0.4948820000000  0.5920520000000 1.0
C      1  0.4076430000000  0.5165250000000  0.4916630000000 1.0
C      1  0.4071070000000  0.4831930000000  0.5066890000000 1.0
C      1  0.5927580000000  0.5169530000000  0.5072720000000 1.0
C      1  0.5084360000000  0.4075120000000  0.4828080000000 1.0
C      1  0.5072340000000  0.5932360000000  0.5174830000000 1.0
C      1  0.4928900000000  0.4079390000000  0.5161620000000 1.0
C      1  0.5176760000000  0.5066940000000  0.5914860000000 1.0
C      1  0.5171020000000  0.4926060000000  0.4078010000000 1.0
C      1  0.4832940000000  0.5068200000000  0.4073240000000 1.0
C      1  0.5920680000000  0.4831750000000  0.5070310000000 1.0
C      1  0.4931420000000  0.5930830000000  0.5169950000000 1.0
C      1  0.4831540000000  0.4928190000000  0.4075430000000 1.0
C      1  0.4087440000000  0.5170820000000  0.5057170000000 1.0
C      1  0.4067270000000  0.4826640000000  0.4926130000000 1.0
C      1  0.5929100000000  0.5169450000000  0.4932830000000 1.0
C      1  0.5069910000000  0.4072440000000  0.5167650000000 1.0
C      1  0.5078790000000  0.5919030000000  0.4838450000000 1.0
C      1  0.4943900000000  0.4080900000000  0.4820730000000 1.0
C      1  0.5173290000000  0.5067860000000  0.4083590000000 1.0
C      1  0.5164620000000  0.4927650000000  0.5922630000000 1.0
C      1  0.4837820000000  0.5089060000000  0.5921780000000 1.0
C      1  0.4868210000000  0.5473110000000  0.5724210000000 1.0
C      1  0.5737040000000  0.4843060000000  0.5466360000000 1.0
C      1  0.5471850000000  0.5736270000000  0.4864160000000 1.0
C      1  0.5128990000000  0.4548030000000  0.5724000000000 1.0
C      1  0.5152530000000  0.5450460000000  0.4290420000000 1.0
C      1  0.4842830000000  0.4539340000000  0.4256480000000 1.0
C      1  0.4289770000000  0.5164730000000  0.5438850000000 1.0
C      1  0.4244360000000  0.4826030000000  0.4532930000000 1.0
C      1  0.5720100000000  0.5164470000000  0.4567480000000 1.0
C      1  0.4552350000000  0.4259620000000  0.4816900000000 1.0
C      1  0.4558890000000  0.5722820000000  0.5151310000000 1.0
C      1  0.5442120000000  0.4280290000000  0.5170800000000 1.0
C      1  0.4843120000000  0.5428090000000  0.4295660000000 1.0
C      1  0.5716970000000  0.4856840000000  0.4553720000000 1.0
C      1  0.5466270000000  0.5755580000000  0.5174320000000 1.0
C      1  0.5158400000000  0.4540150000000  0.4272540000000 1.0
C      1  0.5185450000000  0.5450440000000  0.5721270000000 1.0
C      1  0.4817670000000  0.4564270000000  0.5735310000000 1.0
C      1  0.4261950000000  0.5137040000000  0.4525140000000 1.0
C      1  0.4281660000000  0.4851700000000  0.5436310000000 1.0
C      1  0.5749780000000  0.5156650000000  0.5462680000000 1.0
C      1  0.4535820000000  0.4271340000000  0.5134930000000 1.0
C      1  0.4546470000000  0.5720610000000  0.4839680000000 1.0
C      1  0.5460740000000  0.4285660000000  0.4857340000000 1.0
C      1  0.5044530000000  0.4461060000000  0.5639420000000 1.0
C      1  0.5636960000000  0.5092350000000  0.4475350000000 1.0
C      1  0.4465180000000  0.5645140000000  0.5070040000000 1.0
C      1  0.4952070000000  0.5557770000000  0.5637750000000 1.0
C      1  0.4922800000000  0.4451540000000  0.4341190000000 1.0
C      1  0.5074380000000  0.5531650000000  0.4384720000000 1.0
C      1  0.4336460000000  0.4893750000000  0.4446720000000 1.0
C      1  0.4375300000000  0.5088680000000  0.5532570000000 1.0
C      1  0.5648560000000  0.4920660000000  0.5554570000000 1.0
C      1  0.5533390000000  0.4366160000000  0.5099210000000 1.0
C      1  0.5560370000000  0.5654320000000  0.4951600000000 1.0
C      1  0.4457510000000  0.4338420000000  0.4891920000000 1.0
C      1  0.5079650000000  0.4449230000000  0.4357060000000 1.0
C      1  0.5664210000000  0.5076190000000  0.5548930000000 1.0
C      1  0.4457600000000  0.5631720000000  0.4915370000000 1.0
C      1  0.4918240000000  0.5518320000000  0.4381740000000 1.0
C      1  0.4889700000000  0.4471160000000  0.5651920000000 1.0
C      1  0.5109400000000  0.5544890000000  0.5642630000000 1.0
C      1  0.4360710000000  0.4933960000000  0.5527970000000 1.0
C      1  0.4344340000000  0.5049190000000  0.4437450000000 1.0
C      1  0.5633350000000  0.4940560000000  0.4465520000000 1.0
C      1  0.5544630000000  0.4373310000000  0.4941940000000 1.0
C      1  0.5552250000000  0.5663390000000  0.5106820000000 1.0
C      1  0.4448070000000  0.4356790000000  0.5050020000000 1.0
C      1  0.4553240000000  0.5271370000000  0.5612360000000 1.0
C      1  0.5601710000000  0.4542430000000  0.5285150000000 1.0
C      1  0.5264050000000  0.5602380000000  0.4557890000000 1.0
C      1  0.5430520000000  0.4757150000000  0.5611660000000 1.0
C      1  0.5468010000000  0.5278260000000  0.4403010000000 1.0
C      1  0.4530190000000  0.4706520000000  0.4389610000000 1.0
C      1  0.4429150000000  0.5516300000000  0.5272090000000 1.0
C      1  0.4362830000000  0.4534320000000  0.4727950000000 1.0
C      1  0.5654440000000  0.5504860000000  0.4768110000000 1.0
C      1  0.4716790000000  0.4415710000000  0.4490520000000 1.0
C      1  0.4795680000000  0.5647900000000  0.5440190000000 1.0
C      1  0.5227930000000  0.4349970000000  0.5506200000000 1.0
C      1  0.4486130000000  0.5235540000000  0.4335520000000 1.0
C      1  0.5637910000000  0.4572140000000  0.4787840000000 1.0
C      1  0.5293720000000  0.5609670000000  0.5464520000000 1.0
C      1  0.5500160000000  0.4751990000000  0.4414310000000 1.0
C      1  0.5513530000000  0.5278040000000  0.5571850000000 1.0
C      1  0.4481790000000  0.4731200000000  0.5573750000000 1.0
C      1  0.4386540000000  0.5446560000000  0.4733930000000 1.0
C      1  0.4357630000000  0.4560130000000  0.5202540000000 1.0
C      1  0.5618700000000  0.5466870000000  0.5289440000000 1.0
C      1  0.4727380000000  0.4372270000000  0.5452410000000 1.0
C      1  0.4721210000000  0.5584370000000  0.4546660000000 1.0
C      1  0.5257010000000  0.4385610000000  0.4548880000000 1.0
C      1  0.4254590000000  0.5277170000000  0.4604500000000 1.0
C      1  0.4611650000000  0.4260910000000  0.5273800000000 1.0
C      1  0.5290750000000  0.4621840000000  0.4266720000000 1.0
C      1  0.5726980000000  0.4723220000000  0.4628400000000 1.0
C      1  0.5759810000000  0.5294830000000  0.5387800000000 1.0
C      1  0.4269280000000  0.4716100000000  0.5362500000000 1.0
C      1  0.5390690000000  0.5762710000000  0.5305360000000 1.0
C      1  0.5386620000000  0.4270660000000  0.4718740000000 1.0
C      1  0.4621750000000  0.5728880000000  0.4707210000000 1.0
C      1  0.4712160000000  0.5353900000000  0.4279450000000 1.0
C      1  0.4689490000000  0.4641870000000  0.5737280000000 1.0
C      1  0.5317460000000  0.5369490000000  0.5726640000000 1.0
C      1  0.4280270000000  0.5296590000000  0.5363010000000 1.0
C      1  0.4631860000000  0.4258880000000  0.4685000000000 1.0
C      1  0.5269490000000  0.4619520000000  0.5737130000000 1.0
C      1  0.5740660000000  0.4709990000000  0.5389870000000 1.0
C      1  0.5727150000000  0.5291560000000  0.4646110000000 1.0
C      1  0.4237970000000  0.4695710000000  0.4609830000000 1.0
C      1  0.5390770000000  0.5743150000000  0.4724850000000 1.0
C      1  0.5360500000000  0.4270210000000  0.5296360000000 1.0
C      1  0.4635790000000  0.5732160000000  0.5284950000000 1.0
C      1  0.4729590000000  0.5397170000000  0.5737200000000 1.0
C      1  0.4703710000000  0.4611930000000  0.4245120000000 1.0
C      1  0.5286300000000  0.5383520000000  0.4275340000000 1.0
C      1  0.4616070000000  0.4919510000000  0.4539850000000 1.0
C      1  0.4537430000000  0.4644050000000  0.4955220000000 1.0
C      1  0.4919200000000  0.4526500000000  0.4639090000000 1.0
C      1  0.5312080000000  0.5065130000000  0.4552380000000 1.0
C      1  0.5375310000000  0.4932630000000  0.5454200000000 1.0
C      1  0.4690510000000  0.5053280000000  0.5442700000000 1.0
C      1  0.5459730000000  0.5363480000000  0.4934010000000 1.0
C      1  0.5445970000000  0.4673470000000  0.5042650000000 1.0
C      1  0.4548470000000  0.5333970000000  0.5077590000000 1.0
C      1  0.5069140000000  0.5420920000000  0.4676570000000 1.0
C      1  0.5082640000000  0.4562770000000  0.5318240000000 1.0
C      1  0.4921370000000  0.5461330000000  0.5355610000000 1.0
C      1  0.4674560000000  0.4919070000000  0.5457220000000 1.0
C      1  0.4549990000000  0.4647250000000  0.5090180000000 1.0
C      1  0.4947120000000  0.4566600000000  0.5319080000000 1.0
C      1  0.5374490000000  0.5066540000000  0.5457780000000 1.0
C      1  0.5316320000000  0.4929180000000  0.4547370000000 1.0
C      1  0.4625360000000  0.5055740000000  0.4544180000000 1.0
C      1  0.5468650000000  0.5372420000000  0.5070000000000 1.0
C      1  0.5446180000000  0.4668720000000  0.4906750000000 1.0
C      1  0.4549630000000  0.5331780000000  0.4942010000000 1.0
C      1  0.5056990000000  0.5470770000000  0.5357370000000 1.0
C      1  0.5053170000000  0.4533980000000  0.4643830000000 1.0
C      1  0.4933780000000  0.5429090000000  0.4674580000000 1.0
C      1  0.5637350000000  0.4599690000000  0.4638890000000 1.0
C      1  0.4604410000000  0.5657100000000  0.4579820000000 1.0
C      1  0.4582890000000  0.4629830000000  0.5625320000000 1.0
C      1  0.4321000000000  0.5408430000000  0.4609240000000 1.0
C      1  0.4356310000000  0.4588000000000  0.5351830000000 1.0
C      1  0.5699180000000  0.5428560000000  0.5399500000000 1.0
C      1  0.5387810000000  0.4331950000000  0.4585170000000 1.0
C      1  0.5408190000000  0.5686050000000  0.5428240000000 1.0
C      1  0.4597600000000  0.4316720000000  0.5407750000000 1.0
C      1  0.5442170000000  0.5383870000000  0.5648160000000 1.0
C      1  0.5403550000000  0.4635510000000  0.4369970000000 1.0
C      1  0.4584490000000  0.5341160000000  0.4368120000000 1.0
C      1  0.5665090000000  0.4583230000000  0.5405860000000 1.0
C      1  0.4648250000000  0.5645660000000  0.5411880000000 1.0
C      1  0.4570660000000  0.4596760000000  0.4308270000000 1.0
C      1  0.4384380000000  0.5409260000000  0.5371490000000 1.0
C      1  0.4310090000000  0.4569720000000  0.4596480000000 1.0
C      1  0.5628690000000  0.5410240000000  0.4658040000000 1.0
C      1  0.5345450000000  0.4370150000000  0.5414130000000 1.0
C      1  0.5385740000000  0.5675760000000  0.4595990000000 1.0
C      1  0.4611430000000  0.4338520000000  0.4560860000000 1.0
C      1  0.5412180000000  0.5396750000000  0.4354240000000 1.0
C      1  0.5399760000000  0.4623180000000  0.5673280000000 1.0
C      1  0.4596380000000  0.5396040000000  0.5675600000000 1.0
C      1  0.5075230000000  0.4351030000000  0.4914000000000 1.0
C      1  0.4902910000000  0.5065630000000  0.4357090000000 1.0
C      1  0.4355780000000  0.4912440000000  0.5089790000000 1.0
C      1  0.4923580000000  0.5638760000000  0.4934740000000 1.0
C      1  0.4941010000000  0.4357670000000  0.5071050000000 1.0
C      1  0.5065360000000  0.5650840000000  0.5080380000000 1.0
C      1  0.5045880000000  0.4922630000000  0.4349390000000 1.0
C      1  0.5088920000000  0.5064960000000  0.5632750000000 1.0
C      1  0.4945550000000  0.4920790000000  0.5653920000000 1.0
C      1  0.5644970000000  0.5083920000000  0.5053070000000 1.0
C      1  0.5648780000000  0.4930600000000  0.4906600000000 1.0
C      1  0.4349910000000  0.5064180000000  0.4945140000000 1.0
C      1  0.5083280000000  0.4347950000000  0.5064110000000 1.0
C      1  0.4941590000000  0.5063640000000  0.5646270000000 1.0
C      1  0.4348230000000  0.4917340000000  0.4946890000000 1.0
C      1  0.4922230000000  0.5646490000000  0.5085010000000 1.0
C      1  0.4933610000000  0.4359320000000  0.4923360000000 1.0
C      1  0.5064880000000  0.5641930000000  0.4931770000000 1.0
C      1  0.5096940000000  0.4923410000000  0.5641130000000 1.0
C      1  0.5052900000000  0.5064290000000  0.4344050000000 1.0
C      1  0.4897010000000  0.4924400000000  0.4362270000000 1.0
C      1  0.5644320000000  0.5081510000000  0.4908780000000 1.0
C      1  0.5646580000000  0.4935490000000  0.5050530000000 1.0
C      1  0.4357180000000  0.5062000000000  0.5088290000000 1.0
C      1  0.5059350000000  0.4832380000000  0.5939070000000 1.0
C      1  0.5944020000000  0.5073660000000  0.4828830000000 1.0
C      1  0.4831170000000  0.5940140000000  0.5068400000000 1.0
C      1  0.4944200000000  0.5184460000000  0.5930900000000 1.0
C      1  0.4930270000000  0.4826590000000  0.4062090000000 1.0
C      1  0.5075020000000  0.5171230000000  0.4068940000000 1.0
C      1  0.4054820000000  0.4923220000000  0.4821830000000 1.0
C      1  0.4070740000000  0.5077120000000  0.5162800000000 1.0
C      1  0.5934910000000  0.4928270000000  0.5174010000000 1.0
C      1  0.5176860000000  0.4058390000000  0.5073200000000 1.0
C      1  0.5179570000000  0.5938950000000  0.4937420000000 1.0
C      1  0.4838920000000  0.4069340000000  0.4916080000000 1.0
C      1  0.5072290000000  0.4823760000000  0.4063460000000 1.0
C      1  0.5940540000000  0.5069820000000  0.5173650000000 1.0
C      1  0.4833560000000  0.5927990000000  0.4926820000000 1.0
C      1  0.4931930000000  0.5170600000000  0.4063070000000 1.0
C      1  0.4916320000000  0.4841080000000  0.5939920000000 1.0
C      1  0.5085520000000  0.5174680000000  0.5926730000000 1.0
C      1  0.4061830000000  0.4934680000000  0.5165900000000 1.0
C      1  0.4058900000000  0.5064390000000  0.4817170000000 1.0
C      1  0.5943740000000  0.4931500000000  0.4825950000000 1.0
C      1  0.5182880000000  0.4061360000000  0.4930960000000 1.0
C      1  0.5176320000000  0.5944370000000  0.5078390000000 1.0
C      1  0.4831270000000  0.4069590000000  0.5057910000000 1.0
C      1  0.5388060000000  0.5452300000000  0.5267860000000 1.0
C      1  0.5250460000000  0.5382410000000  0.5427620000000 1.0
C      1  0.5473730000000  0.5271630000000  0.5416520000000 1.0
C      1  0.4618430000000  0.4552420000000  0.5284290000000 1.0
C      1  0.4616940000000  0.5430530000000  0.4749010000000 1.0
C      1  0.5384950000000  0.4566360000000  0.4714140000000 1.0
C      1  0.4760820000000  0.4623080000000  0.5428040000000 1.0
C      1  0.4738320000000  0.5363590000000  0.4579650000000 1.0
C      1  0.5238730000000  0.4627280000000  0.4565830000000 1.0
C      1  0.4542920000000  0.4734780000000  0.5432510000000 1.0
C      1  0.4541580000000  0.5253680000000  0.4613670000000 1.0
C      1  0.5452140000000  0.4749940000000  0.4563810000000 1.0
C      1  0.5396930000000  0.5461860000000  0.4741130000000 1.0
C      1  0.5268970000000  0.5349830000000  0.4588830000000 1.0
C      1  0.5389020000000  0.5265670000000  0.4632000000000 1.0
C      1  0.4606110000000  0.4560600000000  0.4761700000000 1.0
C      1  0.4573920000000  0.5460420000000  0.5264950000000 1.0
C      1  0.5380020000000  0.4574710000000  0.5237530000000 1.0
C      1  0.4714890000000  0.4569060000000  0.4538340000000 1.0
C      1  0.4727190000000  0.5386580000000  0.5444200000000 1.0
C      1  0.5273060000000  0.4610990000000  0.5427830000000 1.0
C      1  0.4536840000000  0.4723710000000  0.4626490000000 1.0
C      1  0.4589450000000  0.5240230000000  0.5372930000000 1.0
C      1  0.5453190000000  0.4741370000000  0.5363510000000 1.0
C      1  0.4732470000000  0.5150610000000  0.5532610000000 1.0
C      1  0.5533350000000  0.4728410000000  0.5137200000000 1.0
C      1  0.5158760000000  0.5511010000000  0.4730440000000 1.0
C      1  0.5312550000000  0.4833210000000  0.5536510000000 1.0
C      1  0.5268890000000  0.5150510000000  0.4450570000000 1.0
C      1  0.4690940000000  0.4823170000000  0.4474270000000 1.0
C      1  0.4468670000000  0.5266870000000  0.5169030000000 1.0
C      1  0.4463930000000  0.4715150000000  0.4859220000000 1.0
C      1  0.5517900000000  0.5283440000000  0.4838130000000 1.0
C      1  0.4826210000000  0.4471280000000  0.4726080000000 1.0
C      1  0.4823250000000  0.5555800000000  0.5308550000000 1.0
C      1  0.5170520000000  0.4470740000000  0.5264440000000 1.0
C      1  0.4704350000000  0.5149070000000  0.4479860000000 1.0
C      1  0.5548550000000  0.4706450000000  0.4812430000000 1.0
C      1  0.5156210000000  0.5541960000000  0.5286560000000 1.0
C      1  0.5254560000000  0.4838100000000  0.4462590000000 1.0
C      1  0.5283080000000  0.5160280000000  0.5507350000000 1.0
C      1  0.4733590000000  0.4829700000000  0.5546850000000 1.0
C      1  0.4471370000000  0.5267560000000  0.4848450000000 1.0
C      1  0.4451390000000  0.4690460000000  0.5184270000000 1.0
C      1  0.5533190000000  0.5292270000000  0.5163360000000 1.0
C      1  0.4854570000000  0.4472760000000  0.5277680000000 1.0
C      1  0.4843410000000  0.5516850000000  0.4731780000000 1.0
C      1  0.5155700000000  0.4459180000000  0.4703780000000 1.0
C      1  0.4824610000000  0.4828120000000  0.4431270000000 1.0
C      1  0.4410700000000  0.4843340000000  0.4846700000000 1.0
C      1  0.4833220000000  0.4430000000000  0.4860080000000 1.0
C      1  0.5130940000000  0.5150620000000  0.4421520000000 1.0
C      1  0.5168590000000  0.4835470000000  0.5561670000000 1.0
C      1  0.4862940000000  0.5159750000000  0.5580830000000 1.0
C      1  0.5547340000000  0.5146830000000  0.4833750000000 1.0
C      1  0.5581570000000  0.4860690000000  0.5149250000000 1.0
C      1  0.4448550000000  0.5127660000000  0.5166640000000 1.0
C      1  0.5162500000000  0.5573130000000  0.4858210000000 1.0
C      1  0.5172720000000  0.4431560000000  0.5128600000000 1.0
C      1  0.4829910000000  0.5575530000000  0.5160030000000 1.0
C      1  0.4873530000000  0.4833560000000  0.5572950000000 1.0
C      1  0.4432960000000  0.4838190000000  0.5177050000000 1.0
C      1  0.4846130000000  0.4423180000000  0.5148390000000 1.0
C      1  0.5151050000000  0.5160360000000  0.5555600000000 1.0
C      1  0.5118940000000  0.4832270000000  0.4424850000000 1.0
C      1  0.4840070000000  0.5149310000000  0.4446220000000 1.0
C      1  0.5582100000000  0.5159080000000  0.5155410000000 1.0
C      1  0.5571760000000  0.4855840000000  0.4818050000000 1.0
C      1  0.4415780000000  0.5137820000000  0.4844820000000 1.0
C      1  0.5165060000000  0.5585990000000  0.5153860000000 1.0
C      1  0.5162280000000  0.4430160000000  0.4841090000000 1.0
C      1  0.4835340000000  0.5559630000000  0.4865070000000 1.0
C      1  0.4930440000000  0.5379400000000  0.4195320000000 1.0
C      1  0.4185800000000  0.4938330000000  0.5379590000000 1.0
C      1  0.5398610000000  0.4187990000000  0.4941470000000 1.0
C      1  0.5071990000000  0.4599350000000  0.4174400000000 1.0
C      1  0.5096330000000  0.5394720000000  0.5814710000000 1.0
C      1  0.4906090000000  0.4622210000000  0.5827040000000 1.0
C      1  0.5839500000000  0.5069510000000  0.5399500000000 1.0
C      1  0.5819990000000  0.4937370000000  0.4609370000000 1.0
C      1  0.4163560000000  0.5056220000000  0.4589170000000 1.0
C      1  0.4611250000000  0.5815000000000  0.4925200000000 1.0
C      1  0.4605990000000  0.4178980000000  0.5049990000000 1.0
C      1  0.5403580000000  0.5843420000000  0.5084040000000 1.0
C      1  0.4955520000000  0.5407230000000  0.5816950000000 1.0
C      1  0.4155600000000  0.4916570000000  0.4594340000000 1.0
C      1  0.5392110000000  0.4182920000000  0.5081160000000 1.0
C      1  0.5046140000000  0.4614260000000  0.5819910000000 1.0
C      1  0.5069630000000  0.5386960000000  0.4194270000000 1.0
C      1  0.4930470000000  0.4603340000000  0.4168330000000 1.0
C      1  0.5820120000000  0.5077030000000  0.4615770000000 1.0
C      1  0.5832230000000  0.4928230000000  0.5401850000000 1.0
C      1  0.4192290000000  0.5079740000000  0.5379460000000 1.0
C      1  0.4614440000000  0.5819750000000  0.5065720000000 1.0
C      1  0.4615090000000  0.4173490000000  0.4908560000000 1.0
C      1  0.5407920000000  0.5834750000000  0.4944460000000 1.0
C      1  0.5277010000000  0.4869160000000  0.5852320000000 1.0
C      1  0.5858610000000  0.5285930000000  0.4886000000000 1.0
C      1  0.4881060000000  0.5860550000000  0.5285020000000 1.0
C      1  0.4727990000000  0.5145200000000  0.5847980000000 1.0
C      1  0.4713750000000  0.4880190000000  0.4144680000000 1.0
C      1  0.5283360000000  0.5110910000000  0.4165770000000 1.0
C      1  0.4135340000000  0.4709000000000  0.4879510000000 1.0
C      1  0.4164540000000  0.5285440000000  0.5096360000000 1.0
C      1  0.5845960000000  0.4718010000000  0.5116210000000 1.0
C      1  0.5114760000000  0.4145040000000  0.5283930000000 1.0
C      1  0.5134030000000  0.5847520000000  0.4727160000000 1.0
C      1  0.4901980000000  0.4152360000000  0.4702660000000 1.0
C      1  0.5282180000000  0.4874820000000  0.4153090000000 1.0
C      1  0.5857570000000  0.5286120000000  0.5121150000000 1.0
C      1  0.4896940000000  0.5831300000000  0.4719630000000 1.0
C      1  0.4714930000000  0.5116140000000  0.4142420000000 1.0
C      1  0.4708230000000  0.4910400000000  0.5845220000000 1.0
C      1  0.5296140000000  0.5104420000000  0.5842680000000 1.0
C      1  0.4139830000000  0.4715610000000  0.5116920000000 1.0
C      1  0.4147970000000  0.5276480000000  0.4860570000000 1.0
C      1  0.5850800000000  0.4721500000000  0.4877900000000 1.0
C      1  0.5138370000000  0.4149040000000  0.4716530000000 1.0
C      1  0.5118890000000  0.5863710000000  0.5292550000000 1.0
C      1  0.4878940000000  0.4157190000000  0.5272260000000 1.0
C      1  0.5138440000000  0.5621860000000  0.4484040000000 1.0
C      1  0.4474340000000  0.5149090000000  0.5629070000000 1.0
C      1  0.5623400000000  0.4444790000000  0.5182220000000 1.0
C      1  0.4838680000000  0.4371110000000  0.4427520000000 1.0
C      1  0.4897570000000  0.5654150000000  0.5538070000000 1.0
C      1  0.5097880000000  0.4361360000000  0.5537830000000 1.0
C      1  0.5534920000000  0.4864280000000  0.5636230000000 1.0
C      1  0.5556880000000  0.5171540000000  0.4384830000000 1.0
C      1  0.4428760000000  0.4807920000000  0.4370520000000 1.0
C      1  0.4375620000000  0.5571850000000  0.5154180000000 1.0
C      1  0.4373590000000  0.4411640000000  0.4810460000000 1.0
C      1  0.5655040000000  0.5549670000000  0.4893040000000 1.0
C      1  0.5187670000000  0.5629760000000  0.5558000000000 1.0
C      1  0.4445510000000  0.5108630000000  0.4340510000000 1.0
C      1  0.5641460000000  0.4473300000000  0.4888820000000 1.0
C      1  0.4807630000000  0.4383620000000  0.5580590000000 1.0
C      1  0.4835300000000  0.5603670000000  0.4463870000000 1.0
C      1  0.5138860000000  0.4362950000000  0.4463100000000 1.0
C      1  0.5540580000000  0.4878910000000  0.4371770000000 1.0
C      1  0.5573510000000  0.5159130000000  0.5623200000000 1.0
C      1  0.4432540000000  0.4854020000000  0.5621310000000 1.0
C      1  0.4368090000000  0.5526360000000  0.4855190000000 1.0
C      1  0.4354340000000  0.4465440000000  0.5094770000000 1.0
C      1  0.5629790000000  0.5572830000000  0.5191360000000 1.0
C      1  0.5474030000000  0.4517770000000  0.5602400000000 1.0
C      1  0.5580440000000  0.5497170000000  0.4539320000000 1.0
C      1  0.4535470000000  0.5600870000000  0.5504110000000 1.0
C      1  0.4527410000000  0.5497400000000  0.5596750000000 1.0
C      1  0.4488880000000  0.4507250000000  0.4391030000000 1.0
C      1  0.5484010000000  0.5489190000000  0.4438670000000 1.0
C      1  0.4395580000000  0.4507390000000  0.4497660000000 1.0
C      1  0.4443780000000  0.5493780000000  0.5482920000000 1.0
C      1  0.5570480000000  0.4518060000000  0.5494630000000 1.0
C      1  0.5463030000000  0.4426490000000  0.5500340000000 1.0
C      1  0.5489070000000  0.5598650000000  0.4529130000000 1.0
C      1  0.4501340000000  0.4414230000000  0.4502100000000 1.0
C      1  0.5484260000000  0.4527100000000  0.4434290000000 1.0
C      1  0.5614100000000  0.5508360000000  0.5485930000000 1.0
C      1  0.4512790000000  0.5567920000000  0.4511510000000 1.0
C      1  0.4504760000000  0.5462940000000  0.4418290000000 1.0
C      1  0.4505260000000  0.4514860000000  0.5560540000000 1.0
C      1  0.5506220000000  0.5490930000000  0.5577390000000 1.0
C      1  0.4398600000000  0.4496820000000  0.5466680000000 1.0
C      1  0.4404420000000  0.5474230000000  0.4510690000000 1.0
C      1  0.5590290000000  0.4508310000000  0.4525420000000 1.0
C      1  0.5489850000000  0.4411510000000  0.4515100000000 1.0
C      1  0.5508590000000  0.5603080000000  0.5489300000000 1.0
C      1  0.4499320000000  0.4400910000000  0.5475310000000 1.0
C      1  0.4643730000000  0.5037850000000  0.5801800000000 1.0
C      1  0.5356480000000  0.4986350000000  0.4204490000000 1.0
C      1  0.5807310000000  0.4644680000000  0.4992430000000 1.0
C      1  0.5024150000000  0.5794630000000  0.4649070000000 1.0
C      1  0.4199300000000  0.5356180000000  0.4969230000000 1.0
C      1  0.4998030000000  0.4199920000000  0.5351180000000 1.0
C      1  0.4182440000000  0.4636910000000  0.5000690000000 1.0
C      1  0.5814210000000  0.5362430000000  0.4999820000000 1.0
C      1  0.5028830000000  0.4191710000000  0.4633030000000 1.0
C      1  0.4996130000000  0.5821730000000  0.5364870000000 1.0
C      1  0.5363210000000  0.4976020000000  0.5806640000000 1.0
C      1  0.4636440000000  0.5001860000000  0.4185370000000 1.0
END
