TITL C-1379266-1300-166 -7.10686929835572e-08 1000000 -2383.97309005017 0 0 360 (Th) n - 1
REM
REM in /nfs/bkarasulu/CARBON/AIRSS/Generating-Clusters/GAP-ML-2020/Higher-Symm/Selected-Sizes/TryA-Only_Ih-Symm/Larger-Clusters/Try2-MINAMP_6A
REM
REM
REM
REM
REM
REM ./C.cell (31579ac4e95a012ec27f3239692ae8a5)
REM
REM compiler GCC version 9.2.1 20190827 (Red Hat 9.2.1-1)
REM options -cpp -mtune=generic -march=x86-64 -g -O0 -fpre-include=/usr/include/finclude/math-vector-fortran.h
REM seed 418516347 439516903 102015374 1251825552 -1114561756 421397578 -499611163 -674403115 750780701 -947104337 -1020715603 -1578363898 -54126116 2083010653 2012323531 1844841944 -2075500181 594248904 -1234653819 -1921621542 -1454784232 418981656 1966587843 1304252786 440486051 1613434252 -2097048943 -2147333405 -721399209 1481836573 -1367086921 -1287902460 -614971367
REM
CELL 1.54180  100.00000  100.00000  100.00000   90.00000   90.00000   90.00000
LATT -1
SFAC C  
C      1  0.5179180000000  0.4549280000000  0.5641010000000 1.0
C      1  0.4549280000000  0.5641010000000  0.5179180000000 1.0
C      1  0.5641010000000  0.5179180000000  0.4549280000000 1.0
C      1  0.4820820000000  0.5450720000000  0.5641010000000 1.0
C      1  0.5179180000000  0.5450720000000  0.4358990000000 1.0
C      1  0.4820820000000  0.4549280000000  0.4358990000000 1.0
C      1  0.5450720000000  0.4358990000000  0.5179180000000 1.0
C      1  0.4549280000000  0.4358990000000  0.4820820000000 1.0
C      1  0.5450720000000  0.5641010000000  0.4820820000000 1.0
C      1  0.4358990000000  0.4820820000000  0.4549280000000 1.0
C      1  0.5641010000000  0.4820820000000  0.5450720000000 1.0
C      1  0.4358990000000  0.5179180000000  0.5450720000000 1.0
C      1  0.5179180000000  0.4549280000000  0.4358990000000 1.0
C      1  0.4549280000000  0.5641010000000  0.4820820000000 1.0
C      1  0.5641010000000  0.5179180000000  0.5450720000000 1.0
C      1  0.4820820000000  0.5450720000000  0.4358990000000 1.0
C      1  0.5179180000000  0.5450720000000  0.5641010000000 1.0
C      1  0.4820820000000  0.4549280000000  0.5641010000000 1.0
C      1  0.5450720000000  0.4358990000000  0.4820820000000 1.0
C      1  0.4549280000000  0.4358990000000  0.5179180000000 1.0
C      1  0.5450720000000  0.5641010000000  0.5179180000000 1.0
C      1  0.4358990000000  0.4820820000000  0.5450720000000 1.0
C      1  0.5641010000000  0.4820820000000  0.4549280000000 1.0
C      1  0.4358990000000  0.5179180000000  0.4549280000000 1.0
C      1  0.5472460000000  0.4642030000000  0.4620550000000 1.0
C      1  0.4642030000000  0.4620550000000  0.5472460000000 1.0
C      1  0.4620550000000  0.5472460000000  0.4642030000000 1.0
C      1  0.4527540000000  0.5357970000000  0.4620550000000 1.0
C      1  0.5472460000000  0.5357970000000  0.5379450000000 1.0
C      1  0.4527540000000  0.4642030000000  0.5379450000000 1.0
C      1  0.5357970000000  0.5379450000000  0.5472460000000 1.0
C      1  0.4642030000000  0.5379450000000  0.4527540000000 1.0
C      1  0.5357970000000  0.4620550000000  0.4527540000000 1.0
C      1  0.5379450000000  0.4527540000000  0.4642030000000 1.0
C      1  0.4620550000000  0.4527540000000  0.5357970000000 1.0
C      1  0.5379450000000  0.5472460000000  0.5357970000000 1.0
C      1  0.5472460000000  0.4642030000000  0.5379450000000 1.0
C      1  0.4642030000000  0.4620550000000  0.4527540000000 1.0
C      1  0.4620550000000  0.5472460000000  0.5357970000000 1.0
C      1  0.4527540000000  0.5357970000000  0.5379450000000 1.0
C      1  0.5472460000000  0.5357970000000  0.4620550000000 1.0
C      1  0.4527540000000  0.4642030000000  0.4620550000000 1.0
C      1  0.5357970000000  0.5379450000000  0.4527540000000 1.0
C      1  0.4642030000000  0.5379450000000  0.5472460000000 1.0
C      1  0.5357970000000  0.4620550000000  0.5472460000000 1.0
C      1  0.5379450000000  0.4527540000000  0.5357970000000 1.0
C      1  0.4620550000000  0.4527540000000  0.4642030000000 1.0
C      1  0.5379450000000  0.5472460000000  0.4642030000000 1.0
C      1  0.5452820000000  0.4831120000000  0.5210100000000 1.0
C      1  0.4831120000000  0.5210100000000  0.5452820000000 1.0
C      1  0.5210100000000  0.5452820000000  0.4831120000000 1.0
C      1  0.4547180000000  0.5168880000000  0.5210100000000 1.0
C      1  0.5452820000000  0.5168880000000  0.4789900000000 1.0
C      1  0.4547180000000  0.4831120000000  0.4789900000000 1.0
C      1  0.5168880000000  0.4789900000000  0.5452820000000 1.0
C      1  0.4831120000000  0.4789900000000  0.4547180000000 1.0
C      1  0.5168880000000  0.5210100000000  0.4547180000000 1.0
C      1  0.4789900000000  0.4547180000000  0.4831120000000 1.0
C      1  0.5210100000000  0.4547180000000  0.5168880000000 1.0
C      1  0.4789900000000  0.5452820000000  0.5168880000000 1.0
C      1  0.5452820000000  0.4831120000000  0.4789900000000 1.0
C      1  0.4831120000000  0.5210100000000  0.4547180000000 1.0
C      1  0.5210100000000  0.5452820000000  0.5168880000000 1.0
C      1  0.4547180000000  0.5168880000000  0.4789900000000 1.0
C      1  0.5452820000000  0.5168880000000  0.5210100000000 1.0
C      1  0.4547180000000  0.4831120000000  0.5210100000000 1.0
C      1  0.5168880000000  0.4789900000000  0.4547180000000 1.0
C      1  0.4831120000000  0.4789900000000  0.5452820000000 1.0
C      1  0.5168880000000  0.5210100000000  0.5452820000000 1.0
C      1  0.4789900000000  0.4547180000000  0.5168880000000 1.0
C      1  0.5210100000000  0.4547180000000  0.4831120000000 1.0
C      1  0.4789900000000  0.5452820000000  0.4831120000000 1.0
C      1  0.4407920000000  0.4708340000000  0.4879510000000 1.0
C      1  0.4708340000000  0.4879510000000  0.4407920000000 1.0
C      1  0.4879510000000  0.4407920000000  0.4708340000000 1.0
C      1  0.5592080000000  0.5291660000000  0.4879510000000 1.0
C      1  0.4407920000000  0.5291660000000  0.5120490000000 1.0
C      1  0.5592080000000  0.4708340000000  0.5120490000000 1.0
C      1  0.5291660000000  0.5120490000000  0.4407920000000 1.0
C      1  0.4708340000000  0.5120490000000  0.5592080000000 1.0
C      1  0.5291660000000  0.4879510000000  0.5592080000000 1.0
C      1  0.5120490000000  0.5592080000000  0.4708340000000 1.0
C      1  0.4879510000000  0.5592080000000  0.5291660000000 1.0
C      1  0.5120490000000  0.4407920000000  0.5291660000000 1.0
C      1  0.4407920000000  0.4708340000000  0.5120490000000 1.0
C      1  0.4708340000000  0.4879510000000  0.5592080000000 1.0
C      1  0.4879510000000  0.4407920000000  0.5291660000000 1.0
C      1  0.5592080000000  0.5291660000000  0.5120490000000 1.0
C      1  0.4407920000000  0.5291660000000  0.4879510000000 1.0
C      1  0.5592080000000  0.4708340000000  0.4879510000000 1.0
C      1  0.5291660000000  0.5120490000000  0.5592080000000 1.0
C      1  0.4708340000000  0.5120490000000  0.4407920000000 1.0
C      1  0.5291660000000  0.4879510000000  0.4407920000000 1.0
C      1  0.5120490000000  0.5592080000000  0.5291660000000 1.0
C      1  0.4879510000000  0.5592080000000  0.4708340000000 1.0
C      1  0.5120490000000  0.4407920000000  0.4708340000000 1.0
C      1  0.4929390000000  0.5489960000000  0.4797120000000 1.0
C      1  0.5489960000000  0.4797120000000  0.4929390000000 1.0
C      1  0.4797120000000  0.4929390000000  0.5489960000000 1.0
C      1  0.5070610000000  0.4510040000000  0.4797120000000 1.0
C      1  0.4929390000000  0.4510040000000  0.5202880000000 1.0
C      1  0.5070610000000  0.5489960000000  0.5202880000000 1.0
C      1  0.4510040000000  0.5202880000000  0.4929390000000 1.0
C      1  0.5489960000000  0.5202880000000  0.5070610000000 1.0
C      1  0.4510040000000  0.4797120000000  0.5070610000000 1.0
C      1  0.5202880000000  0.5070610000000  0.5489960000000 1.0
C      1  0.4797120000000  0.5070610000000  0.4510040000000 1.0
C      1  0.5202880000000  0.4929390000000  0.4510040000000 1.0
C      1  0.4929390000000  0.5489960000000  0.5202880000000 1.0
C      1  0.5489960000000  0.4797120000000  0.5070610000000 1.0
C      1  0.4797120000000  0.4929390000000  0.4510040000000 1.0
C      1  0.5070610000000  0.4510040000000  0.5202880000000 1.0
C      1  0.4929390000000  0.4510040000000  0.4797120000000 1.0
C      1  0.5070610000000  0.5489960000000  0.4797120000000 1.0
C      1  0.4510040000000  0.5202880000000  0.5070610000000 1.0
C      1  0.5489960000000  0.5202880000000  0.4929390000000 1.0
C      1  0.4510040000000  0.4797120000000  0.4929390000000 1.0
C      1  0.5202880000000  0.5070610000000  0.4510040000000 1.0
C      1  0.4797120000000  0.5070610000000  0.5489960000000 1.0
C      1  0.5202880000000  0.4929390000000  0.5489960000000 1.0
C      1  0.5134960000000  0.5781110000000  0.4837710000000 1.0
C      1  0.5781110000000  0.4837710000000  0.5134960000000 1.0
C      1  0.4837710000000  0.5134960000000  0.5781110000000 1.0
C      1  0.4865040000000  0.4218890000000  0.4837710000000 1.0
C      1  0.5134960000000  0.4218890000000  0.5162290000000 1.0
C      1  0.4865040000000  0.5781110000000  0.5162290000000 1.0
C      1  0.4218890000000  0.5162290000000  0.5134960000000 1.0
C      1  0.5781110000000  0.5162290000000  0.4865040000000 1.0
C      1  0.4218890000000  0.4837710000000  0.4865040000000 1.0
C      1  0.5162290000000  0.4865040000000  0.5781110000000 1.0
C      1  0.4837710000000  0.4865040000000  0.4218890000000 1.0
C      1  0.5162290000000  0.5134960000000  0.4218890000000 1.0
C      1  0.5134960000000  0.5781110000000  0.5162290000000 1.0
C      1  0.5781110000000  0.4837710000000  0.4865040000000 1.0
C      1  0.4837710000000  0.5134960000000  0.4218890000000 1.0
C      1  0.4865040000000  0.4218890000000  0.5162290000000 1.0
C      1  0.5134960000000  0.4218890000000  0.4837710000000 1.0
C      1  0.4865040000000  0.5781110000000  0.4837710000000 1.0
C      1  0.4218890000000  0.5162290000000  0.4865040000000 1.0
C      1  0.5781110000000  0.5162290000000  0.5134960000000 1.0
C      1  0.4218890000000  0.4837710000000  0.5134960000000 1.0
C      1  0.5162290000000  0.4865040000000  0.4218890000000 1.0
C      1  0.4837710000000  0.4865040000000  0.5781110000000 1.0
C      1  0.5162290000000  0.5134960000000  0.5781110000000 1.0
C      1  0.4615970000000  0.4734490000000  0.5288980000000 1.0
C      1  0.4734490000000  0.5288980000000  0.4615970000000 1.0
C      1  0.5288980000000  0.4615970000000  0.4734490000000 1.0
C      1  0.5384030000000  0.5265510000000  0.5288980000000 1.0
C      1  0.4615970000000  0.5265510000000  0.4711020000000 1.0
C      1  0.5384030000000  0.4734490000000  0.4711020000000 1.0
C      1  0.5265510000000  0.4711020000000  0.4615970000000 1.0
C      1  0.4734490000000  0.4711020000000  0.5384030000000 1.0
C      1  0.5265510000000  0.5288980000000  0.5384030000000 1.0
C      1  0.4711020000000  0.5384030000000  0.4734490000000 1.0
C      1  0.5288980000000  0.5384030000000  0.5265510000000 1.0
C      1  0.4711020000000  0.4615970000000  0.5265510000000 1.0
C      1  0.4615970000000  0.4734490000000  0.4711020000000 1.0
C      1  0.4734490000000  0.5288980000000  0.5384030000000 1.0
C      1  0.5288980000000  0.4615970000000  0.5265510000000 1.0
C      1  0.5384030000000  0.5265510000000  0.4711020000000 1.0
C      1  0.4615970000000  0.5265510000000  0.5288980000000 1.0
C      1  0.5384030000000  0.4734490000000  0.5288980000000 1.0
C      1  0.5265510000000  0.4711020000000  0.5384030000000 1.0
C      1  0.4734490000000  0.4711020000000  0.4615970000000 1.0
C      1  0.5265510000000  0.5288980000000  0.4615970000000 1.0
C      1  0.4711020000000  0.5384030000000  0.5265510000000 1.0
C      1  0.5288980000000  0.5384030000000  0.4734490000000 1.0
C      1  0.4711020000000  0.4615970000000  0.4734490000000 1.0
C      1  0.4134570000000  0.5072840000000  0.5072440000000 1.0
C      1  0.5072840000000  0.5072440000000  0.4134570000000 1.0
C      1  0.5072440000000  0.4134570000000  0.5072840000000 1.0
C      1  0.5865430000000  0.4927160000000  0.5072440000000 1.0
C      1  0.4134570000000  0.4927160000000  0.4927560000000 1.0
C      1  0.5865430000000  0.5072840000000  0.4927560000000 1.0
C      1  0.4927160000000  0.4927560000000  0.4134570000000 1.0
C      1  0.5072840000000  0.4927560000000  0.5865430000000 1.0
C      1  0.4927160000000  0.5072440000000  0.5865430000000 1.0
C      1  0.4927560000000  0.5865430000000  0.5072840000000 1.0
C      1  0.5072440000000  0.5865430000000  0.4927160000000 1.0
C      1  0.4927560000000  0.4134570000000  0.4927160000000 1.0
C      1  0.4134570000000  0.5072840000000  0.4927560000000 1.0
C      1  0.5072840000000  0.5072440000000  0.5865430000000 1.0
C      1  0.5072440000000  0.4134570000000  0.4927160000000 1.0
C      1  0.5865430000000  0.4927160000000  0.4927560000000 1.0
C      1  0.4134570000000  0.4927160000000  0.5072440000000 1.0
C      1  0.5865430000000  0.5072840000000  0.5072440000000 1.0
C      1  0.4927160000000  0.4927560000000  0.5865430000000 1.0
C      1  0.5072840000000  0.4927560000000  0.4134570000000 1.0
C      1  0.4927160000000  0.5072440000000  0.4134570000000 1.0
C      1  0.4927560000000  0.5865430000000  0.4927160000000 1.0
C      1  0.5072440000000  0.5865430000000  0.5072840000000 1.0
C      1  0.4927560000000  0.4134570000000  0.5072840000000 1.0
C      1  0.4685320000000  0.4622620000000  0.4388200000000 1.0
C      1  0.4622620000000  0.4388200000000  0.4685320000000 1.0
C      1  0.4388200000000  0.4685320000000  0.4622620000000 1.0
C      1  0.5314680000000  0.5377380000000  0.4388200000000 1.0
C      1  0.4685320000000  0.5377380000000  0.5611800000000 1.0
C      1  0.5314680000000  0.4622620000000  0.5611800000000 1.0
C      1  0.5377380000000  0.5611800000000  0.4685320000000 1.0
C      1  0.4622620000000  0.5611800000000  0.5314680000000 1.0
C      1  0.5377380000000  0.4388200000000  0.5314680000000 1.0
C      1  0.5611800000000  0.5314680000000  0.4622620000000 1.0
C      1  0.4388200000000  0.5314680000000  0.5377380000000 1.0
C      1  0.5611800000000  0.4685320000000  0.5377380000000 1.0
C      1  0.4685320000000  0.4622620000000  0.5611800000000 1.0
C      1  0.4622620000000  0.4388200000000  0.5314680000000 1.0
C      1  0.4388200000000  0.4685320000000  0.5377380000000 1.0
C      1  0.5314680000000  0.5377380000000  0.5611800000000 1.0
C      1  0.4685320000000  0.5377380000000  0.4388200000000 1.0
C      1  0.5314680000000  0.4622620000000  0.4388200000000 1.0
C      1  0.5377380000000  0.5611800000000  0.5314680000000 1.0
C      1  0.4622620000000  0.5611800000000  0.4685320000000 1.0
C      1  0.5377380000000  0.4388200000000  0.4685320000000 1.0
C      1  0.5611800000000  0.5314680000000  0.5377380000000 1.0
C      1  0.4388200000000  0.5314680000000  0.4622620000000 1.0
C      1  0.5611800000000  0.4685320000000  0.4622620000000 1.0
C      1  0.5730900000000  0.4703720000000  0.5075080000000 1.0
C      1  0.4703720000000  0.5075080000000  0.5730900000000 1.0
C      1  0.5075080000000  0.5730900000000  0.4703720000000 1.0
C      1  0.4269100000000  0.5296280000000  0.5075080000000 1.0
C      1  0.5730900000000  0.5296280000000  0.4924920000000 1.0
C      1  0.4269100000000  0.4703720000000  0.4924920000000 1.0
C      1  0.5296280000000  0.4924920000000  0.5730900000000 1.0
C      1  0.4703720000000  0.4924920000000  0.4269100000000 1.0
C      1  0.5296280000000  0.5075080000000  0.4269100000000 1.0
C      1  0.4924920000000  0.4269100000000  0.4703720000000 1.0
C      1  0.5075080000000  0.4269100000000  0.5296280000000 1.0
C      1  0.4924920000000  0.5730900000000  0.5296280000000 1.0
C      1  0.5730900000000  0.4703720000000  0.4924920000000 1.0
C      1  0.4703720000000  0.5075080000000  0.4269100000000 1.0
C      1  0.5075080000000  0.5730900000000  0.5296280000000 1.0
C      1  0.4269100000000  0.5296280000000  0.4924920000000 1.0
C      1  0.5730900000000  0.5296280000000  0.5075080000000 1.0
C      1  0.4269100000000  0.4703720000000  0.5075080000000 1.0
C      1  0.5296280000000  0.4924920000000  0.4269100000000 1.0
C      1  0.4703720000000  0.4924920000000  0.5730900000000 1.0
C      1  0.5296280000000  0.5075080000000  0.5730900000000 1.0
C      1  0.4924920000000  0.4269100000000  0.5296280000000 1.0
C      1  0.5075080000000  0.4269100000000  0.4703720000000 1.0
C      1  0.4924920000000  0.5730900000000  0.4703720000000 1.0
C      1  0.4291970000000  0.5136370000000  0.4754190000000 1.0
C      1  0.5136370000000  0.4754190000000  0.4291970000000 1.0
C      1  0.4754190000000  0.4291970000000  0.5136370000000 1.0
C      1  0.5708030000000  0.4863630000000  0.4754190000000 1.0
C      1  0.4291970000000  0.4863630000000  0.5245810000000 1.0
C      1  0.5708030000000  0.5136370000000  0.5245810000000 1.0
C      1  0.4863630000000  0.5245810000000  0.4291970000000 1.0
C      1  0.5136370000000  0.5245810000000  0.5708030000000 1.0
C      1  0.4863630000000  0.4754190000000  0.5708030000000 1.0
C      1  0.5245810000000  0.5708030000000  0.5136370000000 1.0
C      1  0.4754190000000  0.5708030000000  0.4863630000000 1.0
C      1  0.5245810000000  0.4291970000000  0.4863630000000 1.0
C      1  0.4291970000000  0.5136370000000  0.5245810000000 1.0
C      1  0.5136370000000  0.4754190000000  0.5708030000000 1.0
C      1  0.4754190000000  0.4291970000000  0.4863630000000 1.0
C      1  0.5708030000000  0.4863630000000  0.5245810000000 1.0
C      1  0.4291970000000  0.4863630000000  0.4754190000000 1.0
C      1  0.5708030000000  0.5136370000000  0.4754190000000 1.0
C      1  0.4863630000000  0.5245810000000  0.5708030000000 1.0
C      1  0.5136370000000  0.5245810000000  0.4291970000000 1.0
C      1  0.4863630000000  0.4754190000000  0.4291970000000 1.0
C      1  0.5245810000000  0.5708030000000  0.4863630000000 1.0
C      1  0.4754190000000  0.5708030000000  0.5136370000000 1.0
C      1  0.5245810000000  0.4291970000000  0.5136370000000 1.0
C      1  0.4241260000000  0.5400070000000  0.4810260000000 1.0
C      1  0.5400070000000  0.4810260000000  0.4241260000000 1.0
C      1  0.4810260000000  0.4241260000000  0.5400070000000 1.0
C      1  0.5758740000000  0.4599930000000  0.4810260000000 1.0
C      1  0.4241260000000  0.4599930000000  0.5189740000000 1.0
C      1  0.5758740000000  0.5400070000000  0.5189740000000 1.0
C      1  0.4599930000000  0.5189740000000  0.4241260000000 1.0
C      1  0.5400070000000  0.5189740000000  0.5758740000000 1.0
C      1  0.4599930000000  0.4810260000000  0.5758740000000 1.0
C      1  0.5189740000000  0.5758740000000  0.5400070000000 1.0
C      1  0.4810260000000  0.5758740000000  0.4599930000000 1.0
C      1  0.5189740000000  0.4241260000000  0.4599930000000 1.0
C      1  0.4241260000000  0.5400070000000  0.5189740000000 1.0
C      1  0.5400070000000  0.4810260000000  0.5758740000000 1.0
C      1  0.4810260000000  0.4241260000000  0.4599930000000 1.0
C      1  0.5758740000000  0.4599930000000  0.5189740000000 1.0
C      1  0.4241260000000  0.4599930000000  0.4810260000000 1.0
C      1  0.5758740000000  0.5400070000000  0.4810260000000 1.0
C      1  0.4599930000000  0.5189740000000  0.5758740000000 1.0
C      1  0.5400070000000  0.5189740000000  0.4241260000000 1.0
C      1  0.4599930000000  0.4810260000000  0.4241260000000 1.0
C      1  0.5189740000000  0.5758740000000  0.4599930000000 1.0
C      1  0.4810260000000  0.5758740000000  0.5400070000000 1.0
C      1  0.5189740000000  0.4241260000000  0.5400070000000 1.0
C      1  0.5600070000000  0.4769100000000  0.5252310000000 1.0
C      1  0.4769100000000  0.5252310000000  0.5600070000000 1.0
C      1  0.5252310000000  0.5600070000000  0.4769100000000 1.0
C      1  0.4399930000000  0.5230900000000  0.5252310000000 1.0
C      1  0.5600070000000  0.5230900000000  0.4747690000000 1.0
C      1  0.4399930000000  0.4769100000000  0.4747690000000 1.0
C      1  0.5230900000000  0.4747690000000  0.5600070000000 1.0
C      1  0.4769100000000  0.4747690000000  0.4399930000000 1.0
C      1  0.5230900000000  0.5252310000000  0.4399930000000 1.0
C      1  0.4747690000000  0.4399930000000  0.4769100000000 1.0
C      1  0.5252310000000  0.4399930000000  0.5230900000000 1.0
C      1  0.4747690000000  0.5600070000000  0.5230900000000 1.0
C      1  0.5600070000000  0.4769100000000  0.4747690000000 1.0
C      1  0.4769100000000  0.5252310000000  0.4399930000000 1.0
C      1  0.5252310000000  0.5600070000000  0.5230900000000 1.0
C      1  0.4399930000000  0.5230900000000  0.4747690000000 1.0
C      1  0.5600070000000  0.5230900000000  0.5252310000000 1.0
C      1  0.4399930000000  0.4769100000000  0.5252310000000 1.0
C      1  0.5230900000000  0.4747690000000  0.4399930000000 1.0
C      1  0.4769100000000  0.4747690000000  0.5600070000000 1.0
C      1  0.5230900000000  0.5252310000000  0.5600070000000 1.0
C      1  0.4747690000000  0.4399930000000  0.5230900000000 1.0
C      1  0.5252310000000  0.4399930000000  0.4769100000000 1.0
C      1  0.4747690000000  0.5600070000000  0.4769100000000 1.0
C      1  0.5308710000000  0.4280200000000  0.5409240000000 1.0
C      1  0.4280200000000  0.5409240000000  0.5308710000000 1.0
C      1  0.5409240000000  0.5308710000000  0.4280200000000 1.0
C      1  0.4691290000000  0.5719800000000  0.5409240000000 1.0
C      1  0.5308710000000  0.5719800000000  0.4590760000000 1.0
C      1  0.4691290000000  0.4280200000000  0.4590760000000 1.0
C      1  0.5719800000000  0.4590760000000  0.5308710000000 1.0
C      1  0.4280200000000  0.4590760000000  0.4691290000000 1.0
C      1  0.5719800000000  0.5409240000000  0.4691290000000 1.0
C      1  0.4590760000000  0.4691290000000  0.4280200000000 1.0
C      1  0.5409240000000  0.4691290000000  0.5719800000000 1.0
C      1  0.4590760000000  0.5308710000000  0.5719800000000 1.0
C      1  0.5308710000000  0.4280200000000  0.4590760000000 1.0
C      1  0.4280200000000  0.5409240000000  0.4691290000000 1.0
C      1  0.5409240000000  0.5308710000000  0.5719800000000 1.0
C      1  0.4691290000000  0.5719800000000  0.4590760000000 1.0
C      1  0.5308710000000  0.5719800000000  0.5409240000000 1.0
C      1  0.4691290000000  0.4280200000000  0.5409240000000 1.0
C      1  0.5719800000000  0.4590760000000  0.4691290000000 1.0
C      1  0.4280200000000  0.4590760000000  0.5308710000000 1.0
C      1  0.5719800000000  0.5409240000000  0.5308710000000 1.0
C      1  0.4590760000000  0.4691290000000  0.5719800000000 1.0
C      1  0.5409240000000  0.4691290000000  0.4280200000000 1.0
C      1  0.4590760000000  0.5308710000000  0.4280200000000 1.0
C      1  0.5694370000000  0.4925660000000  0.5376390000000 1.0
C      1  0.4925660000000  0.5376390000000  0.5694370000000 1.0
C      1  0.5376390000000  0.5694370000000  0.4925660000000 1.0
C      1  0.4305630000000  0.5074340000000  0.5376390000000 1.0
C      1  0.5694370000000  0.5074340000000  0.4623610000000 1.0
C      1  0.4305630000000  0.4925660000000  0.4623610000000 1.0
C      1  0.5074340000000  0.4623610000000  0.5694370000000 1.0
C      1  0.4925660000000  0.4623610000000  0.4305630000000 1.0
C      1  0.5074340000000  0.5376390000000  0.4305630000000 1.0
C      1  0.4623610000000  0.4305630000000  0.4925660000000 1.0
C      1  0.5376390000000  0.4305630000000  0.5074340000000 1.0
C      1  0.4623610000000  0.5694370000000  0.5074340000000 1.0
C      1  0.5694370000000  0.4925660000000  0.4623610000000 1.0
C      1  0.4925660000000  0.5376390000000  0.4305630000000 1.0
C      1  0.5376390000000  0.5694370000000  0.5074340000000 1.0
C      1  0.4305630000000  0.5074340000000  0.4623610000000 1.0
C      1  0.5694370000000  0.5074340000000  0.5376390000000 1.0
C      1  0.4305630000000  0.4925660000000  0.5376390000000 1.0
C      1  0.5074340000000  0.4623610000000  0.4305630000000 1.0
C      1  0.4925660000000  0.4623610000000  0.5694370000000 1.0
C      1  0.5074340000000  0.5376390000000  0.5694370000000 1.0
C      1  0.4623610000000  0.4305630000000  0.5074340000000 1.0
C      1  0.5376390000000  0.4305630000000  0.4925660000000 1.0
C      1  0.4623610000000  0.5694370000000  0.4925660000000 1.0
END
