TITL C-1379268-1316-180 -8.24246697198724e-07 1000000 -3367.17098302877 0 0 480 (Td) n - 1
REM
REM in /nfs/bkarasulu/CARBON/AIRSS/Generating-Clusters/GAP-ML-2020/Higher-Symm/Selected-Sizes/TryA-Only_Ih-Symm/Larger-Clusters/Try2-MINAMP_6A
REM
REM
REM
REM
REM
REM ./C.cell (31579ac4e95a012ec27f3239692ae8a5)
REM
REM compiler GCC version 9.2.1 20190827 (Red Hat 9.2.1-1)
REM options -cpp -mtune=generic -march=x86-64 -g -O0 -fpre-include=/usr/include/finclude/math-vector-fortran.h
REM seed 773002168 -2092109832 -385059124 235387489 1028835994 419881882 2141405693 -922015754 -1112134530 -999854157 -527768630 -1126930670 4353402 -1897476363 1107463591 -1323419279 2122674784 376646321 -1122251030 117353921 -486557137 -2041856460 464992966 1019175578 770740237 1262751546 1844897149 652678375 -1341941237 -192362596 -1947970122 -316643335 2011167842
REM
CELL 1.54180  100.00000  100.00000  100.00000   90.00000   90.00000   90.00000
LATT -1
SFAC C  
C      1  0.4705530000000  0.4489730000000  0.5124180000000 1.0
C      1  0.4489730000000  0.5124180000000  0.4705530000000 1.0
C      1  0.5124180000000  0.4705530000000  0.4489730000000 1.0
C      1  0.4705530000000  0.5510270000000  0.4875820000000 1.0
C      1  0.5294470000000  0.4489730000000  0.4875820000000 1.0
C      1  0.5294470000000  0.5510270000000  0.5124180000000 1.0
C      1  0.4489730000000  0.4875820000000  0.5294470000000 1.0
C      1  0.5510270000000  0.5124180000000  0.5294470000000 1.0
C      1  0.5510270000000  0.4875820000000  0.4705530000000 1.0
C      1  0.5124180000000  0.5294470000000  0.5510270000000 1.0
C      1  0.4875820000000  0.4705530000000  0.5510270000000 1.0
C      1  0.4875820000000  0.5294470000000  0.4489730000000 1.0
C      1  0.4705530000000  0.5124180000000  0.4489730000000 1.0
C      1  0.4489730000000  0.4705530000000  0.5124180000000 1.0
C      1  0.5124180000000  0.4489730000000  0.4705530000000 1.0
C      1  0.4705530000000  0.4875820000000  0.5510270000000 1.0
C      1  0.5294470000000  0.4875820000000  0.4489730000000 1.0
C      1  0.5294470000000  0.5124180000000  0.5510270000000 1.0
C      1  0.4489730000000  0.5294470000000  0.4875820000000 1.0
C      1  0.5510270000000  0.5294470000000  0.5124180000000 1.0
C      1  0.5510270000000  0.4705530000000  0.4875820000000 1.0
C      1  0.5124180000000  0.5510270000000  0.5294470000000 1.0
C      1  0.4875820000000  0.5510270000000  0.4705530000000 1.0
C      1  0.4875820000000  0.4489730000000  0.5294470000000 1.0
C      1  0.4772870000000  0.4503890000000  0.5595430000000 1.0
C      1  0.4503890000000  0.5595430000000  0.4772870000000 1.0
C      1  0.5595430000000  0.4772870000000  0.4503890000000 1.0
C      1  0.4772870000000  0.5496110000000  0.4404570000000 1.0
C      1  0.5227130000000  0.4503890000000  0.4404570000000 1.0
C      1  0.5227130000000  0.5496110000000  0.5595430000000 1.0
C      1  0.4503890000000  0.4404570000000  0.5227130000000 1.0
C      1  0.5496110000000  0.5595430000000  0.5227130000000 1.0
C      1  0.5496110000000  0.4404570000000  0.4772870000000 1.0
C      1  0.5595430000000  0.5227130000000  0.5496110000000 1.0
C      1  0.4404570000000  0.4772870000000  0.5496110000000 1.0
C      1  0.4404570000000  0.5227130000000  0.4503890000000 1.0
C      1  0.4772870000000  0.5595430000000  0.4503890000000 1.0
C      1  0.4503890000000  0.4772870000000  0.5595430000000 1.0
C      1  0.5595430000000  0.4503890000000  0.4772870000000 1.0
C      1  0.4772870000000  0.4404570000000  0.5496110000000 1.0
C      1  0.5227130000000  0.4404570000000  0.4503890000000 1.0
C      1  0.5227130000000  0.5595430000000  0.5496110000000 1.0
C      1  0.4503890000000  0.5227130000000  0.4404570000000 1.0
C      1  0.5496110000000  0.5227130000000  0.5595430000000 1.0
C      1  0.5496110000000  0.4772870000000  0.4404570000000 1.0
C      1  0.5595430000000  0.5496110000000  0.5227130000000 1.0
C      1  0.4404570000000  0.5496110000000  0.4772870000000 1.0
C      1  0.4404570000000  0.4503890000000  0.5227130000000 1.0
C      1  0.5683470000000  0.5262880000000  0.4517590000000 1.0
C      1  0.5262880000000  0.4517590000000  0.5683470000000 1.0
C      1  0.4517590000000  0.5683470000000  0.5262880000000 1.0
C      1  0.5683470000000  0.4737120000000  0.5482410000000 1.0
C      1  0.4316530000000  0.5262880000000  0.5482410000000 1.0
C      1  0.4316530000000  0.4737120000000  0.4517590000000 1.0
C      1  0.5262880000000  0.5482410000000  0.4316530000000 1.0
C      1  0.4737120000000  0.4517590000000  0.4316530000000 1.0
C      1  0.4737120000000  0.5482410000000  0.5683470000000 1.0
C      1  0.4517590000000  0.4316530000000  0.4737120000000 1.0
C      1  0.5482410000000  0.5683470000000  0.4737120000000 1.0
C      1  0.5482410000000  0.4316530000000  0.5262880000000 1.0
C      1  0.5683470000000  0.4517590000000  0.5262880000000 1.0
C      1  0.5262880000000  0.5683470000000  0.4517590000000 1.0
C      1  0.4517590000000  0.5262880000000  0.5683470000000 1.0
C      1  0.5683470000000  0.5482410000000  0.4737120000000 1.0
C      1  0.4316530000000  0.5482410000000  0.5262880000000 1.0
C      1  0.4316530000000  0.4517590000000  0.4737120000000 1.0
C      1  0.5262880000000  0.4316530000000  0.5482410000000 1.0
C      1  0.4737120000000  0.4316530000000  0.4517590000000 1.0
C      1  0.4737120000000  0.5683470000000  0.5482410000000 1.0
C      1  0.4517590000000  0.4737120000000  0.4316530000000 1.0
C      1  0.5482410000000  0.4737120000000  0.5683470000000 1.0
C      1  0.5482410000000  0.5262880000000  0.4316530000000 1.0
C      1  0.4893780000000  0.4991760000000  0.4199510000000 1.0
C      1  0.4991760000000  0.4199510000000  0.4893780000000 1.0
C      1  0.4199510000000  0.4893780000000  0.4991760000000 1.0
C      1  0.4893780000000  0.5008240000000  0.5800490000000 1.0
C      1  0.5106220000000  0.4991760000000  0.5800490000000 1.0
C      1  0.5106220000000  0.5008240000000  0.4199510000000 1.0
C      1  0.4991760000000  0.5800490000000  0.5106220000000 1.0
C      1  0.5008240000000  0.4199510000000  0.5106220000000 1.0
C      1  0.5008240000000  0.5800490000000  0.4893780000000 1.0
C      1  0.4199510000000  0.5106220000000  0.5008240000000 1.0
C      1  0.5800490000000  0.4893780000000  0.5008240000000 1.0
C      1  0.5800490000000  0.5106220000000  0.4991760000000 1.0
C      1  0.4893780000000  0.4199510000000  0.4991760000000 1.0
C      1  0.4991760000000  0.4893780000000  0.4199510000000 1.0
C      1  0.4199510000000  0.4991760000000  0.4893780000000 1.0
C      1  0.4893780000000  0.5800490000000  0.5008240000000 1.0
C      1  0.5106220000000  0.5800490000000  0.4991760000000 1.0
C      1  0.5106220000000  0.4199510000000  0.5008240000000 1.0
C      1  0.4991760000000  0.5106220000000  0.5800490000000 1.0
C      1  0.5008240000000  0.5106220000000  0.4199510000000 1.0
C      1  0.5008240000000  0.4893780000000  0.5800490000000 1.0
C      1  0.4199510000000  0.5008240000000  0.5106220000000 1.0
C      1  0.5800490000000  0.5008240000000  0.4893780000000 1.0
C      1  0.5800490000000  0.4991760000000  0.5106220000000 1.0
C      1  0.4255510000000  0.5360930000000  0.5263300000000 1.0
C      1  0.5360930000000  0.5263300000000  0.4255510000000 1.0
C      1  0.5263300000000  0.4255510000000  0.5360930000000 1.0
C      1  0.4255510000000  0.4639070000000  0.4736700000000 1.0
C      1  0.5744490000000  0.5360930000000  0.4736700000000 1.0
C      1  0.5744490000000  0.4639070000000  0.5263300000000 1.0
C      1  0.5360930000000  0.4736700000000  0.5744490000000 1.0
C      1  0.4639070000000  0.5263300000000  0.5744490000000 1.0
C      1  0.4639070000000  0.4736700000000  0.4255510000000 1.0
C      1  0.5263300000000  0.5744490000000  0.4639070000000 1.0
C      1  0.4736700000000  0.4255510000000  0.4639070000000 1.0
C      1  0.4736700000000  0.5744490000000  0.5360930000000 1.0
C      1  0.4255510000000  0.5263300000000  0.5360930000000 1.0
C      1  0.5360930000000  0.4255510000000  0.5263300000000 1.0
C      1  0.5263300000000  0.5360930000000  0.4255510000000 1.0
C      1  0.4255510000000  0.4736700000000  0.4639070000000 1.0
C      1  0.5744490000000  0.4736700000000  0.5360930000000 1.0
C      1  0.5744490000000  0.5263300000000  0.4639070000000 1.0
C      1  0.5360930000000  0.5744490000000  0.4736700000000 1.0
C      1  0.4639070000000  0.5744490000000  0.5263300000000 1.0
C      1  0.4639070000000  0.4255510000000  0.4736700000000 1.0
C      1  0.5263300000000  0.4639070000000  0.5744490000000 1.0
C      1  0.4736700000000  0.4639070000000  0.4255510000000 1.0
C      1  0.4736700000000  0.5360930000000  0.5744490000000 1.0
C      1  0.4695790000000  0.4599830000000  0.5208240000000 1.0
C      1  0.4599830000000  0.5208240000000  0.4695790000000 1.0
C      1  0.5208240000000  0.4695790000000  0.4599830000000 1.0
C      1  0.4695790000000  0.5400170000000  0.4791760000000 1.0
C      1  0.5304210000000  0.4599830000000  0.4791760000000 1.0
C      1  0.5304210000000  0.5400170000000  0.5208240000000 1.0
C      1  0.4599830000000  0.4791760000000  0.5304210000000 1.0
C      1  0.5400170000000  0.5208240000000  0.5304210000000 1.0
C      1  0.5400170000000  0.4791760000000  0.4695790000000 1.0
C      1  0.5208240000000  0.5304210000000  0.5400170000000 1.0
C      1  0.4791760000000  0.4695790000000  0.5400170000000 1.0
C      1  0.4791760000000  0.5304210000000  0.4599830000000 1.0
C      1  0.4695790000000  0.5208240000000  0.4599830000000 1.0
C      1  0.4599830000000  0.4695790000000  0.5208240000000 1.0
C      1  0.5208240000000  0.4599830000000  0.4695790000000 1.0
C      1  0.4695790000000  0.4791760000000  0.5400170000000 1.0
C      1  0.5304210000000  0.4791760000000  0.4599830000000 1.0
C      1  0.5304210000000  0.5208240000000  0.5400170000000 1.0
C      1  0.4599830000000  0.5304210000000  0.4791760000000 1.0
C      1  0.5400170000000  0.5304210000000  0.5208240000000 1.0
C      1  0.5400170000000  0.4695790000000  0.4791760000000 1.0
C      1  0.5208240000000  0.5400170000000  0.5304210000000 1.0
C      1  0.4791760000000  0.5400170000000  0.4695790000000 1.0
C      1  0.4791760000000  0.4599830000000  0.5304210000000 1.0
C      1  0.5205030000000  0.4188630000000  0.4705690000000 1.0
C      1  0.4188630000000  0.4705690000000  0.5205030000000 1.0
C      1  0.4705690000000  0.5205030000000  0.4188630000000 1.0
C      1  0.5205030000000  0.5811370000000  0.5294310000000 1.0
C      1  0.4794970000000  0.4188630000000  0.5294310000000 1.0
C      1  0.4794970000000  0.5811370000000  0.4705690000000 1.0
C      1  0.4188630000000  0.5294310000000  0.4794970000000 1.0
C      1  0.5811370000000  0.4705690000000  0.4794970000000 1.0
C      1  0.5811370000000  0.5294310000000  0.5205030000000 1.0
C      1  0.4705690000000  0.4794970000000  0.5811370000000 1.0
C      1  0.5294310000000  0.5205030000000  0.5811370000000 1.0
C      1  0.5294310000000  0.4794970000000  0.4188630000000 1.0
C      1  0.5205030000000  0.4705690000000  0.4188630000000 1.0
C      1  0.4188630000000  0.5205030000000  0.4705690000000 1.0
C      1  0.4705690000000  0.4188630000000  0.5205030000000 1.0
C      1  0.5205030000000  0.5294310000000  0.5811370000000 1.0
C      1  0.4794970000000  0.5294310000000  0.4188630000000 1.0
C      1  0.4794970000000  0.4705690000000  0.5811370000000 1.0
C      1  0.4188630000000  0.4794970000000  0.5294310000000 1.0
C      1  0.5811370000000  0.4794970000000  0.4705690000000 1.0
C      1  0.5811370000000  0.5205030000000  0.5294310000000 1.0
C      1  0.4705690000000  0.5811370000000  0.4794970000000 1.0
C      1  0.5294310000000  0.5811370000000  0.5205030000000 1.0
C      1  0.5294310000000  0.4188630000000  0.4794970000000 1.0
C      1  0.5474010000000  0.5578140000000  0.5373720000000 1.0
C      1  0.5578140000000  0.5373720000000  0.5474010000000 1.0
C      1  0.5373720000000  0.5474010000000  0.5578140000000 1.0
C      1  0.5474010000000  0.4421860000000  0.4626280000000 1.0
C      1  0.4525990000000  0.5578140000000  0.4626280000000 1.0
C      1  0.4525990000000  0.4421860000000  0.5373720000000 1.0
C      1  0.5578140000000  0.4626280000000  0.4525990000000 1.0
C      1  0.4421860000000  0.5373720000000  0.4525990000000 1.0
C      1  0.4421860000000  0.4626280000000  0.5474010000000 1.0
C      1  0.5373720000000  0.4525990000000  0.4421860000000 1.0
C      1  0.4626280000000  0.5474010000000  0.4421860000000 1.0
C      1  0.4626280000000  0.4525990000000  0.5578140000000 1.0
C      1  0.5474010000000  0.5373720000000  0.5578140000000 1.0
C      1  0.5578140000000  0.5474010000000  0.5373720000000 1.0
C      1  0.5373720000000  0.5578140000000  0.5474010000000 1.0
C      1  0.5474010000000  0.4626280000000  0.4421860000000 1.0
C      1  0.4525990000000  0.4626280000000  0.5578140000000 1.0
C      1  0.4525990000000  0.5373720000000  0.4421860000000 1.0
C      1  0.5578140000000  0.4525990000000  0.4626280000000 1.0
C      1  0.4421860000000  0.4525990000000  0.5373720000000 1.0
C      1  0.4421860000000  0.5474010000000  0.4626280000000 1.0
C      1  0.5373720000000  0.4421860000000  0.4525990000000 1.0
C      1  0.4626280000000  0.4421860000000  0.5474010000000 1.0
C      1  0.4626280000000  0.5578140000000  0.4525990000000 1.0
C      1  0.5483290000000  0.4889670000000  0.5692300000000 1.0
C      1  0.4889670000000  0.5692300000000  0.5483290000000 1.0
C      1  0.5692300000000  0.5483290000000  0.4889670000000 1.0
C      1  0.5483290000000  0.5110330000000  0.4307700000000 1.0
C      1  0.4516710000000  0.4889670000000  0.4307700000000 1.0
C      1  0.4516710000000  0.5110330000000  0.5692300000000 1.0
C      1  0.4889670000000  0.4307700000000  0.4516710000000 1.0
C      1  0.5110330000000  0.5692300000000  0.4516710000000 1.0
C      1  0.5110330000000  0.4307700000000  0.5483290000000 1.0
C      1  0.5692300000000  0.4516710000000  0.5110330000000 1.0
C      1  0.4307700000000  0.5483290000000  0.5110330000000 1.0
C      1  0.4307700000000  0.4516710000000  0.4889670000000 1.0
C      1  0.5483290000000  0.5692300000000  0.4889670000000 1.0
C      1  0.4889670000000  0.5483290000000  0.5692300000000 1.0
C      1  0.5692300000000  0.4889670000000  0.5483290000000 1.0
C      1  0.5483290000000  0.4307700000000  0.5110330000000 1.0
C      1  0.4516710000000  0.4307700000000  0.4889670000000 1.0
C      1  0.4516710000000  0.5692300000000  0.5110330000000 1.0
C      1  0.4889670000000  0.4516710000000  0.4307700000000 1.0
C      1  0.5110330000000  0.4516710000000  0.5692300000000 1.0
C      1  0.5110330000000  0.5483290000000  0.4307700000000 1.0
C      1  0.5692300000000  0.5110330000000  0.4516710000000 1.0
C      1  0.4307700000000  0.5110330000000  0.5483290000000 1.0
C      1  0.4307700000000  0.4889670000000  0.4516710000000 1.0
C      1  0.4471160000000  0.5122290000000  0.5309910000000 1.0
C      1  0.5122290000000  0.5309910000000  0.4471160000000 1.0
C      1  0.5309910000000  0.4471160000000  0.5122290000000 1.0
C      1  0.4471160000000  0.4877710000000  0.4690090000000 1.0
C      1  0.5528840000000  0.5122290000000  0.4690090000000 1.0
C      1  0.5528840000000  0.4877710000000  0.5309910000000 1.0
C      1  0.5122290000000  0.4690090000000  0.5528840000000 1.0
C      1  0.4877710000000  0.5309910000000  0.5528840000000 1.0
C      1  0.4877710000000  0.4690090000000  0.4471160000000 1.0
C      1  0.5309910000000  0.5528840000000  0.4877710000000 1.0
C      1  0.4690090000000  0.4471160000000  0.4877710000000 1.0
C      1  0.4690090000000  0.5528840000000  0.5122290000000 1.0
C      1  0.4471160000000  0.5309910000000  0.5122290000000 1.0
C      1  0.5122290000000  0.4471160000000  0.5309910000000 1.0
C      1  0.5309910000000  0.5122290000000  0.4471160000000 1.0
C      1  0.4471160000000  0.4690090000000  0.4877710000000 1.0
C      1  0.5528840000000  0.4690090000000  0.5122290000000 1.0
C      1  0.5528840000000  0.5309910000000  0.4877710000000 1.0
C      1  0.5122290000000  0.5528840000000  0.4690090000000 1.0
C      1  0.4877710000000  0.5528840000000  0.5309910000000 1.0
C      1  0.4877710000000  0.4471160000000  0.4690090000000 1.0
C      1  0.5309910000000  0.4877710000000  0.5528840000000 1.0
C      1  0.4690090000000  0.4877710000000  0.4471160000000 1.0
C      1  0.4690090000000  0.5122290000000  0.5528840000000 1.0
C      1  0.4486100000000  0.5164590000000  0.4934310000000 1.0
C      1  0.5164590000000  0.4934310000000  0.4486100000000 1.0
C      1  0.4934310000000  0.4486100000000  0.5164590000000 1.0
C      1  0.4486100000000  0.4835410000000  0.5065690000000 1.0
C      1  0.5513900000000  0.5164590000000  0.5065690000000 1.0
C      1  0.5513900000000  0.4835410000000  0.4934310000000 1.0
C      1  0.5164590000000  0.5065690000000  0.5513900000000 1.0
C      1  0.4835410000000  0.4934310000000  0.5513900000000 1.0
C      1  0.4835410000000  0.5065690000000  0.4486100000000 1.0
C      1  0.4934310000000  0.5513900000000  0.4835410000000 1.0
C      1  0.5065690000000  0.4486100000000  0.4835410000000 1.0
C      1  0.5065690000000  0.5513900000000  0.5164590000000 1.0
C      1  0.4486100000000  0.4934310000000  0.5164590000000 1.0
C      1  0.5164590000000  0.4486100000000  0.4934310000000 1.0
C      1  0.4934310000000  0.5164590000000  0.4486100000000 1.0
C      1  0.4486100000000  0.5065690000000  0.4835410000000 1.0
C      1  0.5513900000000  0.5065690000000  0.5164590000000 1.0
C      1  0.5513900000000  0.4934310000000  0.4835410000000 1.0
C      1  0.5164590000000  0.5513900000000  0.5065690000000 1.0
C      1  0.4835410000000  0.5513900000000  0.4934310000000 1.0
C      1  0.4835410000000  0.4486100000000  0.5065690000000 1.0
C      1  0.4934310000000  0.4835410000000  0.5513900000000 1.0
C      1  0.5065690000000  0.4835410000000  0.4486100000000 1.0
C      1  0.5065690000000  0.5164590000000  0.5513900000000 1.0
C      1  0.5564260000000  0.5039760000000  0.4548480000000 1.0
C      1  0.5039760000000  0.4548480000000  0.5564260000000 1.0
C      1  0.4548480000000  0.5564260000000  0.5039760000000 1.0
C      1  0.5564260000000  0.4960240000000  0.5451520000000 1.0
C      1  0.4435740000000  0.5039760000000  0.5451520000000 1.0
C      1  0.4435740000000  0.4960240000000  0.4548480000000 1.0
C      1  0.5039760000000  0.5451520000000  0.4435740000000 1.0
C      1  0.4960240000000  0.4548480000000  0.4435740000000 1.0
C      1  0.4960240000000  0.5451520000000  0.5564260000000 1.0
C      1  0.4548480000000  0.4435740000000  0.4960240000000 1.0
C      1  0.5451520000000  0.5564260000000  0.4960240000000 1.0
C      1  0.5451520000000  0.4435740000000  0.5039760000000 1.0
C      1  0.5564260000000  0.4548480000000  0.5039760000000 1.0
C      1  0.5039760000000  0.5564260000000  0.4548480000000 1.0
C      1  0.4548480000000  0.5039760000000  0.5564260000000 1.0
C      1  0.5564260000000  0.5451520000000  0.4960240000000 1.0
C      1  0.4435740000000  0.5451520000000  0.5039760000000 1.0
C      1  0.4435740000000  0.4548480000000  0.4960240000000 1.0
C      1  0.5039760000000  0.4435740000000  0.5451520000000 1.0
C      1  0.4960240000000  0.4435740000000  0.4548480000000 1.0
C      1  0.4960240000000  0.5564260000000  0.5451520000000 1.0
C      1  0.4548480000000  0.4960240000000  0.4435740000000 1.0
C      1  0.5451520000000  0.4960240000000  0.5564260000000 1.0
C      1  0.5451520000000  0.5039760000000  0.4435740000000 1.0
C      1  0.4499680000000  0.5388990000000  0.5601930000000 1.0
C      1  0.5388990000000  0.5601930000000  0.4499680000000 1.0
C      1  0.5601930000000  0.4499680000000  0.5388990000000 1.0
C      1  0.4499680000000  0.4611010000000  0.4398070000000 1.0
C      1  0.5500320000000  0.5388990000000  0.4398070000000 1.0
C      1  0.5500320000000  0.4611010000000  0.5601930000000 1.0
C      1  0.5388990000000  0.4398070000000  0.5500320000000 1.0
C      1  0.4611010000000  0.5601930000000  0.5500320000000 1.0
C      1  0.4611010000000  0.4398070000000  0.4499680000000 1.0
C      1  0.5601930000000  0.5500320000000  0.4611010000000 1.0
C      1  0.4398070000000  0.4499680000000  0.4611010000000 1.0
C      1  0.4398070000000  0.5500320000000  0.5388990000000 1.0
C      1  0.4499680000000  0.5601930000000  0.5388990000000 1.0
C      1  0.5388990000000  0.4499680000000  0.5601930000000 1.0
C      1  0.5601930000000  0.5388990000000  0.4499680000000 1.0
C      1  0.4499680000000  0.4398070000000  0.4611010000000 1.0
C      1  0.5500320000000  0.4398070000000  0.5388990000000 1.0
C      1  0.5500320000000  0.5601930000000  0.4611010000000 1.0
C      1  0.5388990000000  0.5500320000000  0.4398070000000 1.0
C      1  0.4611010000000  0.5500320000000  0.5601930000000 1.0
C      1  0.4611010000000  0.4499680000000  0.4398070000000 1.0
C      1  0.5601930000000  0.4611010000000  0.5500320000000 1.0
C      1  0.4398070000000  0.4611010000000  0.4499680000000 1.0
C      1  0.4398070000000  0.5388990000000  0.5500320000000 1.0
C      1  0.5070190000000  0.5503640000000  0.4830660000000 1.0
C      1  0.5503640000000  0.4830660000000  0.5070190000000 1.0
C      1  0.4830660000000  0.5070190000000  0.5503640000000 1.0
C      1  0.5070190000000  0.4496360000000  0.5169340000000 1.0
C      1  0.4929810000000  0.5503640000000  0.5169340000000 1.0
C      1  0.4929810000000  0.4496360000000  0.4830660000000 1.0
C      1  0.5503640000000  0.5169340000000  0.4929810000000 1.0
C      1  0.4496360000000  0.4830660000000  0.4929810000000 1.0
C      1  0.4496360000000  0.5169340000000  0.5070190000000 1.0
C      1  0.4830660000000  0.4929810000000  0.4496360000000 1.0
C      1  0.5169340000000  0.5070190000000  0.4496360000000 1.0
C      1  0.5169340000000  0.4929810000000  0.5503640000000 1.0
C      1  0.5070190000000  0.4830660000000  0.5503640000000 1.0
C      1  0.5503640000000  0.5070190000000  0.4830660000000 1.0
C      1  0.4830660000000  0.5503640000000  0.5070190000000 1.0
C      1  0.5070190000000  0.5169340000000  0.4496360000000 1.0
C      1  0.4929810000000  0.5169340000000  0.5503640000000 1.0
C      1  0.4929810000000  0.4830660000000  0.4496360000000 1.0
C      1  0.5503640000000  0.4929810000000  0.5169340000000 1.0
C      1  0.4496360000000  0.4929810000000  0.4830660000000 1.0
C      1  0.4496360000000  0.5070190000000  0.5169340000000 1.0
C      1  0.4830660000000  0.4496360000000  0.4929810000000 1.0
C      1  0.5169340000000  0.4496360000000  0.5070190000000 1.0
C      1  0.5169340000000  0.5503640000000  0.4929810000000 1.0
C      1  0.5607450000000  0.5406700000000  0.5107540000000 1.0
C      1  0.5406700000000  0.5107540000000  0.5607450000000 1.0
C      1  0.5107540000000  0.5607450000000  0.5406700000000 1.0
C      1  0.5607450000000  0.4593300000000  0.4892460000000 1.0
C      1  0.4392550000000  0.5406700000000  0.4892460000000 1.0
C      1  0.4392550000000  0.4593300000000  0.5107540000000 1.0
C      1  0.5406700000000  0.4892460000000  0.4392550000000 1.0
C      1  0.4593300000000  0.5107540000000  0.4392550000000 1.0
C      1  0.4593300000000  0.4892460000000  0.5607450000000 1.0
C      1  0.5107540000000  0.4392550000000  0.4593300000000 1.0
C      1  0.4892460000000  0.5607450000000  0.4593300000000 1.0
C      1  0.4892460000000  0.4392550000000  0.5406700000000 1.0
C      1  0.5607450000000  0.5107540000000  0.5406700000000 1.0
C      1  0.5406700000000  0.5607450000000  0.5107540000000 1.0
C      1  0.5107540000000  0.5406700000000  0.5607450000000 1.0
C      1  0.5607450000000  0.4892460000000  0.4593300000000 1.0
C      1  0.4392550000000  0.4892460000000  0.5406700000000 1.0
C      1  0.4392550000000  0.5107540000000  0.4593300000000 1.0
C      1  0.5406700000000  0.4392550000000  0.4892460000000 1.0
C      1  0.4593300000000  0.4392550000000  0.5107540000000 1.0
C      1  0.4593300000000  0.5607450000000  0.4892460000000 1.0
C      1  0.5107540000000  0.4593300000000  0.4392550000000 1.0
C      1  0.4892460000000  0.4593300000000  0.5607450000000 1.0
C      1  0.4892460000000  0.5406700000000  0.4392550000000 1.0
C      1  0.5430600000000  0.4769620000000  0.5329970000000 1.0
C      1  0.4769620000000  0.5329970000000  0.5430600000000 1.0
C      1  0.5329970000000  0.5430600000000  0.4769620000000 1.0
C      1  0.5430600000000  0.5230380000000  0.4670030000000 1.0
C      1  0.4569400000000  0.4769620000000  0.4670030000000 1.0
C      1  0.4569400000000  0.5230380000000  0.5329970000000 1.0
C      1  0.4769620000000  0.4670030000000  0.4569400000000 1.0
C      1  0.5230380000000  0.5329970000000  0.4569400000000 1.0
C      1  0.5230380000000  0.4670030000000  0.5430600000000 1.0
C      1  0.5329970000000  0.4569400000000  0.5230380000000 1.0
C      1  0.4670030000000  0.5430600000000  0.5230380000000 1.0
C      1  0.4670030000000  0.4569400000000  0.4769620000000 1.0
C      1  0.5430600000000  0.5329970000000  0.4769620000000 1.0
C      1  0.4769620000000  0.5430600000000  0.5329970000000 1.0
C      1  0.5329970000000  0.4769620000000  0.5430600000000 1.0
C      1  0.5430600000000  0.4670030000000  0.5230380000000 1.0
C      1  0.4569400000000  0.4670030000000  0.4769620000000 1.0
C      1  0.4569400000000  0.5329970000000  0.5230380000000 1.0
C      1  0.4769620000000  0.4569400000000  0.4670030000000 1.0
C      1  0.5230380000000  0.4569400000000  0.5329970000000 1.0
C      1  0.5230380000000  0.5430600000000  0.4670030000000 1.0
C      1  0.5329970000000  0.5230380000000  0.4569400000000 1.0
C      1  0.4670030000000  0.5230380000000  0.5430600000000 1.0
C      1  0.4670030000000  0.4769620000000  0.4569400000000 1.0
C      1  0.5754170000000  0.4631040000000  0.4896750000000 1.0
C      1  0.4631040000000  0.4896750000000  0.5754170000000 1.0
C      1  0.4896750000000  0.5754170000000  0.4631040000000 1.0
C      1  0.5754170000000  0.5368960000000  0.5103250000000 1.0
C      1  0.4245830000000  0.4631040000000  0.5103250000000 1.0
C      1  0.4245830000000  0.5368960000000  0.4896750000000 1.0
C      1  0.4631040000000  0.5103250000000  0.4245830000000 1.0
C      1  0.5368960000000  0.4896750000000  0.4245830000000 1.0
C      1  0.5368960000000  0.5103250000000  0.5754170000000 1.0
C      1  0.4896750000000  0.4245830000000  0.5368960000000 1.0
C      1  0.5103250000000  0.5754170000000  0.5368960000000 1.0
C      1  0.5103250000000  0.4245830000000  0.4631040000000 1.0
C      1  0.5754170000000  0.4896750000000  0.4631040000000 1.0
C      1  0.4631040000000  0.5754170000000  0.4896750000000 1.0
C      1  0.4896750000000  0.4631040000000  0.5754170000000 1.0
C      1  0.5754170000000  0.5103250000000  0.5368960000000 1.0
C      1  0.4245830000000  0.5103250000000  0.4631040000000 1.0
C      1  0.4245830000000  0.4896750000000  0.5368960000000 1.0
C      1  0.4631040000000  0.4245830000000  0.5103250000000 1.0
C      1  0.5368960000000  0.4245830000000  0.4896750000000 1.0
C      1  0.5368960000000  0.5754170000000  0.5103250000000 1.0
C      1  0.4896750000000  0.5368960000000  0.4245830000000 1.0
C      1  0.5103250000000  0.5368960000000  0.5754170000000 1.0
C      1  0.5103250000000  0.4631040000000  0.4245830000000 1.0
C      1  0.5677140000000  0.4738600000000  0.5158570000000 1.0
C      1  0.4738600000000  0.5158570000000  0.5677140000000 1.0
C      1  0.5158570000000  0.5677140000000  0.4738600000000 1.0
C      1  0.5677140000000  0.5261400000000  0.4841430000000 1.0
C      1  0.4322860000000  0.4738600000000  0.4841430000000 1.0
C      1  0.4322860000000  0.5261400000000  0.5158570000000 1.0
C      1  0.4738600000000  0.4841430000000  0.4322860000000 1.0
C      1  0.5261400000000  0.5158570000000  0.4322860000000 1.0
C      1  0.5261400000000  0.4841430000000  0.5677140000000 1.0
C      1  0.5158570000000  0.4322860000000  0.5261400000000 1.0
C      1  0.4841430000000  0.5677140000000  0.5261400000000 1.0
C      1  0.4841430000000  0.4322860000000  0.4738600000000 1.0
C      1  0.5677140000000  0.5158570000000  0.4738600000000 1.0
C      1  0.4738600000000  0.5677140000000  0.5158570000000 1.0
C      1  0.5158570000000  0.4738600000000  0.5677140000000 1.0
C      1  0.5677140000000  0.4841430000000  0.5261400000000 1.0
C      1  0.4322860000000  0.4841430000000  0.4738600000000 1.0
C      1  0.4322860000000  0.5158570000000  0.5261400000000 1.0
C      1  0.4738600000000  0.4322860000000  0.4841430000000 1.0
C      1  0.5261400000000  0.4322860000000  0.5158570000000 1.0
C      1  0.5261400000000  0.5677140000000  0.4841430000000 1.0
C      1  0.5158570000000  0.5261400000000  0.4322860000000 1.0
C      1  0.4841430000000  0.5261400000000  0.5677140000000 1.0
C      1  0.4841430000000  0.4738600000000  0.4322860000000 1.0
C      1  0.5774390000000  0.5053850000000  0.4753160000000 1.0
C      1  0.5053850000000  0.4753160000000  0.5774390000000 1.0
C      1  0.4753160000000  0.5774390000000  0.5053850000000 1.0
C      1  0.5774390000000  0.4946150000000  0.5246840000000 1.0
C      1  0.4225610000000  0.5053850000000  0.5246840000000 1.0
C      1  0.4225610000000  0.4946150000000  0.4753160000000 1.0
C      1  0.5053850000000  0.5246840000000  0.4225610000000 1.0
C      1  0.4946150000000  0.4753160000000  0.4225610000000 1.0
C      1  0.4946150000000  0.5246840000000  0.5774390000000 1.0
C      1  0.4753160000000  0.4225610000000  0.4946150000000 1.0
C      1  0.5246840000000  0.5774390000000  0.4946150000000 1.0
C      1  0.5246840000000  0.4225610000000  0.5053850000000 1.0
C      1  0.5774390000000  0.4753160000000  0.5053850000000 1.0
C      1  0.5053850000000  0.5774390000000  0.4753160000000 1.0
C      1  0.4753160000000  0.5053850000000  0.5774390000000 1.0
C      1  0.5774390000000  0.5246840000000  0.4946150000000 1.0
C      1  0.4225610000000  0.5246840000000  0.5053850000000 1.0
C      1  0.4225610000000  0.4753160000000  0.4946150000000 1.0
C      1  0.5053850000000  0.4225610000000  0.5246840000000 1.0
C      1  0.4946150000000  0.4225610000000  0.4753160000000 1.0
C      1  0.4946150000000  0.5774390000000  0.5246840000000 1.0
C      1  0.4753160000000  0.4946150000000  0.4225610000000 1.0
C      1  0.5246840000000  0.4946150000000  0.5774390000000 1.0
C      1  0.5246840000000  0.5053850000000  0.4225610000000 1.0
C      1  0.4611360000000  0.5028730000000  0.5789050000000 1.0
C      1  0.5028730000000  0.5789050000000  0.4611360000000 1.0
C      1  0.5789050000000  0.4611360000000  0.5028730000000 1.0
C      1  0.4611360000000  0.4971270000000  0.4210950000000 1.0
C      1  0.5388640000000  0.5028730000000  0.4210950000000 1.0
C      1  0.5388640000000  0.4971270000000  0.5789050000000 1.0
C      1  0.5028730000000  0.4210950000000  0.5388640000000 1.0
C      1  0.4971270000000  0.5789050000000  0.5388640000000 1.0
C      1  0.4971270000000  0.4210950000000  0.4611360000000 1.0
C      1  0.5789050000000  0.5388640000000  0.4971270000000 1.0
C      1  0.4210950000000  0.4611360000000  0.4971270000000 1.0
C      1  0.4210950000000  0.5388640000000  0.5028730000000 1.0
C      1  0.4611360000000  0.5789050000000  0.5028730000000 1.0
C      1  0.5028730000000  0.4611360000000  0.5789050000000 1.0
C      1  0.5789050000000  0.5028730000000  0.4611360000000 1.0
C      1  0.4611360000000  0.4210950000000  0.4971270000000 1.0
C      1  0.5388640000000  0.4210950000000  0.5028730000000 1.0
C      1  0.5388640000000  0.5789050000000  0.4971270000000 1.0
C      1  0.5028730000000  0.5388640000000  0.4210950000000 1.0
C      1  0.4971270000000  0.5388640000000  0.5789050000000 1.0
C      1  0.4971270000000  0.4611360000000  0.4210950000000 1.0
C      1  0.5789050000000  0.4971270000000  0.5388640000000 1.0
C      1  0.4210950000000  0.4971270000000  0.4611360000000 1.0
C      1  0.4210950000000  0.5028730000000  0.5388640000000 1.0
END
