TITL C-1379267-1329-188 -6.4340912847291e-07 1000000 -1702.52389911853 0 0 240 (Td) n - 1
REM
REM in /nfs/bkarasulu/CARBON/AIRSS/Generating-Clusters/GAP-ML-2020/Higher-Symm/Selected-Sizes/TryA-Only_Ih-Symm/Larger-Clusters/Try2-MINAMP_6A
REM
REM
REM
REM
REM
REM ./C.cell (31579ac4e95a012ec27f3239692ae8a5)
REM
REM compiler GCC version 9.2.1 20190827 (Red Hat 9.2.1-1)
REM options -cpp -mtune=generic -march=x86-64 -g -O0 -fpre-include=/usr/include/finclude/math-vector-fortran.h
REM seed -1508276817 -996097746 681147494 -688826759 -1265322198 1254080882 1600023571 -697245757 -549262238 2089880067 -1575554824 -2143264875 1623216684 -1867570293 929005396 827879087 44182530 -856131391 -1086814126 -780300048 -131823524 -1287110062 -593598400 -1819880083 -1962080220 -1933675421 -2011967473 -2103507574 -1151744395 -1523788819 -645804315 -464816852 -1058872915
REM
CELL 1.54180  100.00000  100.00000  100.00000   90.00000   90.00000   90.00000
LATT -1
SFAC C  
C      1  0.4577260000000  0.5509020000000  0.4765300000000 1.0
C      1  0.5509020000000  0.4765300000000  0.4577260000000 1.0
C      1  0.4765300000000  0.4577260000000  0.5509020000000 1.0
C      1  0.4577260000000  0.4490980000000  0.5234700000000 1.0
C      1  0.5422740000000  0.5509020000000  0.5234700000000 1.0
C      1  0.5422740000000  0.4490980000000  0.4765300000000 1.0
C      1  0.5509020000000  0.5234700000000  0.5422740000000 1.0
C      1  0.4490980000000  0.4765300000000  0.5422740000000 1.0
C      1  0.4490980000000  0.5234700000000  0.4577260000000 1.0
C      1  0.4765300000000  0.5422740000000  0.4490980000000 1.0
C      1  0.5234700000000  0.4577260000000  0.4490980000000 1.0
C      1  0.5234700000000  0.5422740000000  0.5509020000000 1.0
C      1  0.4577260000000  0.4765300000000  0.5509020000000 1.0
C      1  0.5509020000000  0.4577260000000  0.4765300000000 1.0
C      1  0.4765300000000  0.5509020000000  0.4577260000000 1.0
C      1  0.4577260000000  0.5234700000000  0.4490980000000 1.0
C      1  0.5422740000000  0.5234700000000  0.5509020000000 1.0
C      1  0.5422740000000  0.4765300000000  0.4490980000000 1.0
C      1  0.5509020000000  0.5422740000000  0.5234700000000 1.0
C      1  0.4490980000000  0.5422740000000  0.4765300000000 1.0
C      1  0.4490980000000  0.4577260000000  0.5234700000000 1.0
C      1  0.4765300000000  0.4490980000000  0.5422740000000 1.0
C      1  0.5234700000000  0.4490980000000  0.4577260000000 1.0
C      1  0.5234700000000  0.5509020000000  0.5422740000000 1.0
C      1  0.4541150000000  0.5032520000000  0.4326540000000 1.0
C      1  0.5032520000000  0.4326540000000  0.4541150000000 1.0
C      1  0.4326540000000  0.4541150000000  0.5032520000000 1.0
C      1  0.4541150000000  0.4967480000000  0.5673460000000 1.0
C      1  0.5458850000000  0.5032520000000  0.5673460000000 1.0
C      1  0.5458850000000  0.4967480000000  0.4326540000000 1.0
C      1  0.5032520000000  0.5673460000000  0.5458850000000 1.0
C      1  0.4967480000000  0.4326540000000  0.5458850000000 1.0
C      1  0.4967480000000  0.5673460000000  0.4541150000000 1.0
C      1  0.4326540000000  0.5458850000000  0.4967480000000 1.0
C      1  0.5673460000000  0.4541150000000  0.4967480000000 1.0
C      1  0.5673460000000  0.5458850000000  0.5032520000000 1.0
C      1  0.4541150000000  0.4326540000000  0.5032520000000 1.0
C      1  0.5032520000000  0.4541150000000  0.4326540000000 1.0
C      1  0.4326540000000  0.5032520000000  0.4541150000000 1.0
C      1  0.4541150000000  0.5673460000000  0.4967480000000 1.0
C      1  0.5458850000000  0.5673460000000  0.5032520000000 1.0
C      1  0.5458850000000  0.4326540000000  0.4967480000000 1.0
C      1  0.5032520000000  0.5458850000000  0.5673460000000 1.0
C      1  0.4967480000000  0.5458850000000  0.4326540000000 1.0
C      1  0.4967480000000  0.4541150000000  0.5673460000000 1.0
C      1  0.4326540000000  0.4967480000000  0.5458850000000 1.0
C      1  0.5673460000000  0.4967480000000  0.4541150000000 1.0
C      1  0.5673460000000  0.5032520000000  0.5458850000000 1.0
C      1  0.4980690000000  0.5235320000000  0.5703350000000 1.0
C      1  0.5235320000000  0.5703350000000  0.4980690000000 1.0
C      1  0.5703350000000  0.4980690000000  0.5235320000000 1.0
C      1  0.4980690000000  0.4764680000000  0.4296650000000 1.0
C      1  0.5019310000000  0.5235320000000  0.4296650000000 1.0
C      1  0.5019310000000  0.4764680000000  0.5703350000000 1.0
C      1  0.5235320000000  0.4296650000000  0.5019310000000 1.0
C      1  0.4764680000000  0.5703350000000  0.5019310000000 1.0
C      1  0.4764680000000  0.4296650000000  0.4980690000000 1.0
C      1  0.5703350000000  0.5019310000000  0.4764680000000 1.0
C      1  0.4296650000000  0.4980690000000  0.4764680000000 1.0
C      1  0.4296650000000  0.5019310000000  0.5235320000000 1.0
C      1  0.4980690000000  0.5703350000000  0.5235320000000 1.0
C      1  0.5235320000000  0.4980690000000  0.5703350000000 1.0
C      1  0.5703350000000  0.5235320000000  0.4980690000000 1.0
C      1  0.4980690000000  0.4296650000000  0.4764680000000 1.0
C      1  0.5019310000000  0.4296650000000  0.5235320000000 1.0
C      1  0.5019310000000  0.5703350000000  0.4764680000000 1.0
C      1  0.5235320000000  0.5019310000000  0.4296650000000 1.0
C      1  0.4764680000000  0.5019310000000  0.5703350000000 1.0
C      1  0.4764680000000  0.4980690000000  0.4296650000000 1.0
C      1  0.5703350000000  0.4764680000000  0.5019310000000 1.0
C      1  0.4296650000000  0.4764680000000  0.4980690000000 1.0
C      1  0.4296650000000  0.5235320000000  0.5019310000000 1.0
C      1  0.5248320000000  0.5354690000000  0.4378810000000 1.0
C      1  0.5354690000000  0.4378810000000  0.5248320000000 1.0
C      1  0.4378810000000  0.5248320000000  0.5354690000000 1.0
C      1  0.5248320000000  0.4645310000000  0.5621190000000 1.0
C      1  0.4751680000000  0.5354690000000  0.5621190000000 1.0
C      1  0.4751680000000  0.4645310000000  0.4378810000000 1.0
C      1  0.5354690000000  0.5621190000000  0.4751680000000 1.0
C      1  0.4645310000000  0.4378810000000  0.4751680000000 1.0
C      1  0.4645310000000  0.5621190000000  0.5248320000000 1.0
C      1  0.4378810000000  0.4751680000000  0.4645310000000 1.0
C      1  0.5621190000000  0.5248320000000  0.4645310000000 1.0
C      1  0.5621190000000  0.4751680000000  0.5354690000000 1.0
C      1  0.5248320000000  0.4378810000000  0.5354690000000 1.0
C      1  0.5354690000000  0.5248320000000  0.4378810000000 1.0
C      1  0.4378810000000  0.5354690000000  0.5248320000000 1.0
C      1  0.5248320000000  0.5621190000000  0.4645310000000 1.0
C      1  0.4751680000000  0.5621190000000  0.5354690000000 1.0
C      1  0.4751680000000  0.4378810000000  0.4645310000000 1.0
C      1  0.5354690000000  0.4751680000000  0.5621190000000 1.0
C      1  0.4645310000000  0.4751680000000  0.4378810000000 1.0
C      1  0.4645310000000  0.5248320000000  0.5621190000000 1.0
C      1  0.4378810000000  0.4645310000000  0.4751680000000 1.0
C      1  0.5621190000000  0.4645310000000  0.5248320000000 1.0
C      1  0.5621190000000  0.5354690000000  0.4751680000000 1.0
C      1  0.4843440000000  0.4316560000000  0.4742220000000 1.0
C      1  0.4316560000000  0.4742220000000  0.4843440000000 1.0
C      1  0.4742220000000  0.4843440000000  0.4316560000000 1.0
C      1  0.4843440000000  0.5683440000000  0.5257780000000 1.0
C      1  0.5156560000000  0.4316560000000  0.5257780000000 1.0
C      1  0.5156560000000  0.5683440000000  0.4742220000000 1.0
C      1  0.4316560000000  0.5257780000000  0.5156560000000 1.0
C      1  0.5683440000000  0.4742220000000  0.5156560000000 1.0
C      1  0.5683440000000  0.5257780000000  0.4843440000000 1.0
C      1  0.4742220000000  0.5156560000000  0.5683440000000 1.0
C      1  0.5257780000000  0.4843440000000  0.5683440000000 1.0
C      1  0.5257780000000  0.5156560000000  0.4316560000000 1.0
C      1  0.4843440000000  0.4742220000000  0.4316560000000 1.0
C      1  0.4316560000000  0.4843440000000  0.4742220000000 1.0
C      1  0.4742220000000  0.4316560000000  0.4843440000000 1.0
C      1  0.4843440000000  0.5257780000000  0.5683440000000 1.0
C      1  0.5156560000000  0.5257780000000  0.4316560000000 1.0
C      1  0.5156560000000  0.4742220000000  0.5683440000000 1.0
C      1  0.4316560000000  0.5156560000000  0.5257780000000 1.0
C      1  0.5683440000000  0.5156560000000  0.4742220000000 1.0
C      1  0.5683440000000  0.4843440000000  0.5257780000000 1.0
C      1  0.4742220000000  0.5683440000000  0.5156560000000 1.0
C      1  0.5257780000000  0.5683440000000  0.4843440000000 1.0
C      1  0.5257780000000  0.4316560000000  0.5156560000000 1.0
C      1  0.5316930000000  0.5603940000000  0.5215080000000 1.0
C      1  0.5603940000000  0.5215080000000  0.5316930000000 1.0
C      1  0.5215080000000  0.5316930000000  0.5603940000000 1.0
C      1  0.5316930000000  0.4396060000000  0.4784920000000 1.0
C      1  0.4683070000000  0.5603940000000  0.4784920000000 1.0
C      1  0.4683070000000  0.4396060000000  0.5215080000000 1.0
C      1  0.5603940000000  0.4784920000000  0.4683070000000 1.0
C      1  0.4396060000000  0.5215080000000  0.4683070000000 1.0
C      1  0.4396060000000  0.4784920000000  0.5316930000000 1.0
C      1  0.5215080000000  0.4683070000000  0.4396060000000 1.0
C      1  0.4784920000000  0.5316930000000  0.4396060000000 1.0
C      1  0.4784920000000  0.4683070000000  0.5603940000000 1.0
C      1  0.5316930000000  0.5215080000000  0.5603940000000 1.0
C      1  0.5603940000000  0.5316930000000  0.5215080000000 1.0
C      1  0.5215080000000  0.5603940000000  0.5316930000000 1.0
C      1  0.5316930000000  0.4784920000000  0.4396060000000 1.0
C      1  0.4683070000000  0.4784920000000  0.5603940000000 1.0
C      1  0.4683070000000  0.5215080000000  0.4396060000000 1.0
C      1  0.5603940000000  0.4683070000000  0.4784920000000 1.0
C      1  0.4396060000000  0.4683070000000  0.5215080000000 1.0
C      1  0.4396060000000  0.5316930000000  0.4784920000000 1.0
C      1  0.5215080000000  0.4396060000000  0.4683070000000 1.0
C      1  0.4784920000000  0.4396060000000  0.5316930000000 1.0
C      1  0.4784920000000  0.5603940000000  0.4683070000000 1.0
C      1  0.5101920000000  0.5733010000000  0.5000420000000 1.0
C      1  0.5733010000000  0.5000420000000  0.5101920000000 1.0
C      1  0.5000420000000  0.5101920000000  0.5733010000000 1.0
C      1  0.5101920000000  0.4266990000000  0.4999580000000 1.0
C      1  0.4898080000000  0.5733010000000  0.4999580000000 1.0
C      1  0.4898080000000  0.4266990000000  0.5000420000000 1.0
C      1  0.5733010000000  0.4999580000000  0.4898080000000 1.0
C      1  0.4266990000000  0.5000420000000  0.4898080000000 1.0
C      1  0.4266990000000  0.4999580000000  0.5101920000000 1.0
C      1  0.5000420000000  0.4898080000000  0.4266990000000 1.0
C      1  0.4999580000000  0.5101920000000  0.4266990000000 1.0
C      1  0.4999580000000  0.4898080000000  0.5733010000000 1.0
C      1  0.5101920000000  0.5000420000000  0.5733010000000 1.0
C      1  0.5733010000000  0.5101920000000  0.5000420000000 1.0
C      1  0.5000420000000  0.5733010000000  0.5101920000000 1.0
C      1  0.5101920000000  0.4999580000000  0.4266990000000 1.0
C      1  0.4898080000000  0.4999580000000  0.5733010000000 1.0
C      1  0.4898080000000  0.5000420000000  0.4266990000000 1.0
C      1  0.5733010000000  0.4898080000000  0.4999580000000 1.0
C      1  0.4266990000000  0.4898080000000  0.5000420000000 1.0
C      1  0.4266990000000  0.5101920000000  0.4999580000000 1.0
C      1  0.5000420000000  0.4266990000000  0.4898080000000 1.0
C      1  0.4999580000000  0.4266990000000  0.5101920000000 1.0
C      1  0.4999580000000  0.5733010000000  0.4898080000000 1.0
C      1  0.5205260000000  0.5583560000000  0.4520310000000 1.0
C      1  0.5583560000000  0.4520310000000  0.5205260000000 1.0
C      1  0.4520310000000  0.5205260000000  0.5583560000000 1.0
C      1  0.5205260000000  0.4416440000000  0.5479690000000 1.0
C      1  0.4794740000000  0.5583560000000  0.5479690000000 1.0
C      1  0.4794740000000  0.4416440000000  0.4520310000000 1.0
C      1  0.5583560000000  0.5479690000000  0.4794740000000 1.0
C      1  0.4416440000000  0.4520310000000  0.4794740000000 1.0
C      1  0.4416440000000  0.5479690000000  0.5205260000000 1.0
C      1  0.4520310000000  0.4794740000000  0.4416440000000 1.0
C      1  0.5479690000000  0.5205260000000  0.4416440000000 1.0
C      1  0.5479690000000  0.4794740000000  0.5583560000000 1.0
C      1  0.5205260000000  0.4520310000000  0.5583560000000 1.0
C      1  0.5583560000000  0.5205260000000  0.4520310000000 1.0
C      1  0.4520310000000  0.5583560000000  0.5205260000000 1.0
C      1  0.5205260000000  0.5479690000000  0.4416440000000 1.0
C      1  0.4794740000000  0.5479690000000  0.5583560000000 1.0
C      1  0.4794740000000  0.4520310000000  0.4416440000000 1.0
C      1  0.5583560000000  0.4794740000000  0.5479690000000 1.0
C      1  0.4416440000000  0.4794740000000  0.4520310000000 1.0
C      1  0.4416440000000  0.5205260000000  0.5479690000000 1.0
C      1  0.4520310000000  0.4416440000000  0.4794740000000 1.0
C      1  0.5479690000000  0.4416440000000  0.5205260000000 1.0
C      1  0.5479690000000  0.5583560000000  0.4794740000000 1.0
C      1  0.4668450000000  0.5671360000000  0.4914080000000 1.0
C      1  0.5671360000000  0.4914080000000  0.4668450000000 1.0
C      1  0.4914080000000  0.4668450000000  0.5671360000000 1.0
C      1  0.4668450000000  0.4328640000000  0.5085920000000 1.0
C      1  0.5331550000000  0.5671360000000  0.5085920000000 1.0
C      1  0.5331550000000  0.4328640000000  0.4914080000000 1.0
C      1  0.5671360000000  0.5085920000000  0.5331550000000 1.0
C      1  0.4328640000000  0.4914080000000  0.5331550000000 1.0
C      1  0.4328640000000  0.5085920000000  0.4668450000000 1.0
C      1  0.4914080000000  0.5331550000000  0.4328640000000 1.0
C      1  0.5085920000000  0.4668450000000  0.4328640000000 1.0
C      1  0.5085920000000  0.5331550000000  0.5671360000000 1.0
C      1  0.4668450000000  0.4914080000000  0.5671360000000 1.0
C      1  0.5671360000000  0.4668450000000  0.4914080000000 1.0
C      1  0.4914080000000  0.5671360000000  0.4668450000000 1.0
C      1  0.4668450000000  0.5085920000000  0.4328640000000 1.0
C      1  0.5331550000000  0.5085920000000  0.5671360000000 1.0
C      1  0.5331550000000  0.4914080000000  0.4328640000000 1.0
C      1  0.5671360000000  0.5331550000000  0.5085920000000 1.0
C      1  0.4328640000000  0.5331550000000  0.4914080000000 1.0
C      1  0.4328640000000  0.4668450000000  0.5085920000000 1.0
C      1  0.4914080000000  0.4328640000000  0.5331550000000 1.0
C      1  0.5085920000000  0.4328640000000  0.4668450000000 1.0
C      1  0.5085920000000  0.5671360000000  0.5331550000000 1.0
C      1  0.5527460000000  0.4368990000000  0.5070150000000 1.0
C      1  0.4368990000000  0.5070150000000  0.5527460000000 1.0
C      1  0.5070150000000  0.5527460000000  0.4368990000000 1.0
C      1  0.5527460000000  0.5631010000000  0.4929850000000 1.0
C      1  0.4472540000000  0.4368990000000  0.4929850000000 1.0
C      1  0.4472540000000  0.5631010000000  0.5070150000000 1.0
C      1  0.4368990000000  0.4929850000000  0.4472540000000 1.0
C      1  0.5631010000000  0.5070150000000  0.4472540000000 1.0
C      1  0.5631010000000  0.4929850000000  0.5527460000000 1.0
C      1  0.5070150000000  0.4472540000000  0.5631010000000 1.0
C      1  0.4929850000000  0.5527460000000  0.5631010000000 1.0
C      1  0.4929850000000  0.4472540000000  0.4368990000000 1.0
C      1  0.5527460000000  0.5070150000000  0.4368990000000 1.0
C      1  0.4368990000000  0.5527460000000  0.5070150000000 1.0
C      1  0.5070150000000  0.4368990000000  0.5527460000000 1.0
C      1  0.5527460000000  0.4929850000000  0.5631010000000 1.0
C      1  0.4472540000000  0.4929850000000  0.4368990000000 1.0
C      1  0.4472540000000  0.5070150000000  0.5631010000000 1.0
C      1  0.4368990000000  0.4472540000000  0.4929850000000 1.0
C      1  0.5631010000000  0.4472540000000  0.5070150000000 1.0
C      1  0.5631010000000  0.5527460000000  0.4929850000000 1.0
C      1  0.5070150000000  0.5631010000000  0.4472540000000 1.0
C      1  0.4929850000000  0.5631010000000  0.5527460000000 1.0
C      1  0.4929850000000  0.4368990000000  0.4472540000000 1.0
END
