TITL C-1379268-1316-353 6.30231429677426e-07 1000000 -4152.27760580636 0 0 580 (C1) n - 1
REM
REM in /nfs/bkarasulu/CARBON/AIRSS/Generating-Clusters/GAP-ML-2020/Higher-Symm/Selected-Sizes/TryA-Only_Ih-Symm/Larger-Clusters/Try2-MINAMP_6A
REM
REM
REM
REM
REM
REM ./C.cell (31579ac4e95a012ec27f3239692ae8a5)
REM
REM compiler GCC version 9.2.1 20190827 (Red Hat 9.2.1-1)
REM options -cpp -mtune=generic -march=x86-64 -g -O0 -fpre-include=/usr/include/finclude/math-vector-fortran.h
REM seed -1136278938 -1256208724 1648409141 -2014433828 -2074799626 1756257456 1708141708 245409230 -970103962 -1649734139 -1175849992 -445011448 398867545 1864336345 1642792774 924490239 2128389960 -2064560563 -1368298284 -1823889570 -2126653913 -1867209345 -601717805 2010155639 819831780 504743215 1238760070 -223379122 -2119815312 509957612 94288224 -1019443818 560802877
REM
CELL 1.54180  100.00000  100.00000  100.00000   90.00000   90.00000   90.00000
LATT -1
SFAC C  
C      1  0.4902440000000  0.4801750000000  0.5828630000000 1.0
C      1  0.5832740000000  0.4910000000000  0.4801440000000 1.0
C      1  0.4796330000000  0.5834640000000  0.4912410000000 1.0
C      1  0.5098450000000  0.5185380000000  0.5836550000000 1.0
C      1  0.5091830000000  0.4817720000000  0.4153880000000 1.0
C      1  0.4912750000000  0.5185450000000  0.4154150000000 1.0
C      1  0.4172600000000  0.5095090000000  0.4803640000000 1.0
C      1  0.4169680000000  0.4908680000000  0.5197180000000 1.0
C      1  0.5831270000000  0.5097460000000  0.5195470000000 1.0
C      1  0.5192010000000  0.4169900000000  0.4918770000000 1.0
C      1  0.5189580000000  0.5844990000000  0.5081370000000 1.0
C      1  0.4792850000000  0.4171710000000  0.5098050000000 1.0
C      1  0.4802230000000  0.4906790000000  0.5829790000000 1.0
C      1  0.4900920000000  0.5840200000000  0.4811540000000 1.0
C      1  0.5832400000000  0.4806100000000  0.4904120000000 1.0
C      1  0.5200390000000  0.5083090000000  0.5829310000000 1.0
C      1  0.4805670000000  0.5086110000000  0.4155700000000 1.0
C      1  0.5198960000000  0.4917180000000  0.4154160000000 1.0
C      1  0.5082240000000  0.4157510000000  0.4828870000000 1.0
C      1  0.4896720000000  0.4172530000000  0.5200240000000 1.0
C      1  0.5084260000000  0.5845420000000  0.5182470000000 1.0
C      1  0.4173100000000  0.5198140000000  0.4906830000000 1.0
C      1  0.5830990000000  0.5200920000000  0.5092160000000 1.0
C      1  0.4169330000000  0.4805750000000  0.5093600000000 1.0
C      1  0.4779270000000  0.4680170000000  0.5419680000000 1.0
C      1  0.5365200000000  0.4833040000000  0.4726820000000 1.0
C      1  0.4706160000000  0.5392850000000  0.4807610000000 1.0
C      1  0.5212540000000  0.5299810000000  0.5402690000000 1.0
C      1  0.5181620000000  0.4717280000000  0.4626520000000 1.0
C      1  0.4827020000000  0.5278310000000  0.4633290000000 1.0
C      1  0.4642740000000  0.5162890000000  0.4732950000000 1.0
C      1  0.4635440000000  0.4821340000000  0.5287820000000 1.0
C      1  0.5364160000000  0.5165090000000  0.5273220000000 1.0
C      1  0.5302210000000  0.4597010000000  0.4796570000000 1.0
C      1  0.5297380000000  0.5389730000000  0.5200090000000 1.0
C      1  0.4692340000000  0.4585820000000  0.5211770000000 1.0
C      1  0.4692980000000  0.4788450000000  0.5415430000000 1.0
C      1  0.4793630000000  0.5399740000000  0.4702360000000 1.0
C      1  0.5364360000000  0.4721500000000  0.4829420000000 1.0
C      1  0.5301050000000  0.5195170000000  0.5395760000000 1.0
C      1  0.4709930000000  0.5196970000000  0.4615010000000 1.0
C      1  0.5297590000000  0.4799680000000  0.4609160000000 1.0
C      1  0.5211770000000  0.4591290000000  0.4692940000000 1.0
C      1  0.4779270000000  0.4580630000000  0.5319430000000 1.0
C      1  0.5180740000000  0.5370160000000  0.5281920000000 1.0
C      1  0.4644250000000  0.5270680000000  0.4839670000000 1.0
C      1  0.5365040000000  0.5272010000000  0.5165610000000 1.0
C      1  0.4634890000000  0.4713590000000  0.5179480000000 1.0
C      1  0.4856620000000  0.5034290000000  0.5876790000000 1.0
C      1  0.5876780000000  0.4857720000000  0.5033570000000 1.0
C      1  0.5029330000000  0.5888410000000  0.4851820000000 1.0
C      1  0.5145750000000  0.4954590000000  0.5872540000000 1.0
C      1  0.5154020000000  0.5044480000000  0.4108000000000 1.0
C      1  0.4850380000000  0.4958950000000  0.4109010000000 1.0
C      1  0.4127560000000  0.5147670000000  0.5036560000000 1.0
C      1  0.4125980000000  0.4856620000000  0.4963580000000 1.0
C      1  0.5875960000000  0.5150010000000  0.4962900000000 1.0
C      1  0.4953190000000  0.4119680000000  0.4872470000000 1.0
C      1  0.4951840000000  0.5886530000000  0.5140680000000 1.0
C      1  0.5028030000000  0.4128460000000  0.5152430000000 1.0
C      1  0.5034200000000  0.4849050000000  0.5871880000000 1.0
C      1  0.4841360000000  0.5883750000000  0.5039470000000 1.0
C      1  0.5876780000000  0.5039660000000  0.4852730000000 1.0
C      1  0.4969620000000  0.5138790000000  0.5880140000000 1.0
C      1  0.5044090000000  0.5145820000000  0.4109100000000 1.0
C      1  0.4960380000000  0.4857470000000  0.4109630000000 1.0
C      1  0.5139090000000  0.4129080000000  0.5047850000000 1.0
C      1  0.4841300000000  0.4122530000000  0.4971530000000 1.0
C      1  0.5141340000000  0.5890330000000  0.4954280000000 1.0
C      1  0.4126950000000  0.4966060000000  0.4853960000000 1.0
C      1  0.5876700000000  0.4967930000000  0.5143850000000 1.0
C      1  0.4126560000000  0.5038440000000  0.5146350000000 1.0
C      1  0.4176440000000  0.5362270000000  0.5157630000000 1.0
C      1  0.5150190000000  0.4174600000000  0.5365540000000 1.0
C      1  0.5364640000000  0.5168930000000  0.4167370000000 1.0
C      1  0.5828480000000  0.4643420000000  0.5153960000000 1.0
C      1  0.5826910000000  0.5364490000000  0.4841360000000 1.0
C      1  0.4173360000000  0.4641470000000  0.4841210000000 1.0
C      1  0.4837020000000  0.5830400000000  0.5358980000000 1.0
C      1  0.4848810000000  0.4173650000000  0.4648900000000 1.0
C      1  0.5139600000000  0.5827360000000  0.4635920000000 1.0
C      1  0.4640230000000  0.4835330000000  0.4168840000000 1.0
C      1  0.4650200000000  0.5163960000000  0.5825800000000 1.0
C      1  0.5358250000000  0.4834470000000  0.5824640000000 1.0
C      1  0.5353210000000  0.4176050000000  0.5159140000000 1.0
C      1  0.4175110000000  0.5160350000000  0.5361350000000 1.0
C      1  0.5161630000000  0.5363760000000  0.4167050000000 1.0
C      1  0.4629940000000  0.5829080000000  0.5164050000000 1.0
C      1  0.5349330000000  0.5831350000000  0.4829930000000 1.0
C      1  0.4636880000000  0.4177680000000  0.4837540000000 1.0
C      1  0.5829060000000  0.4845210000000  0.5357710000000 1.0
C      1  0.4174250000000  0.4845020000000  0.4638330000000 1.0
C      1  0.5829040000000  0.5161320000000  0.4637610000000 1.0
C      1  0.4843690000000  0.4640070000000  0.4168540000000 1.0
C      1  0.5152390000000  0.4634180000000  0.5824370000000 1.0
C      1  0.4860110000000  0.5357650000000  0.5827520000000 1.0
C      1  0.4862630000000  0.5366710000000  0.5263690000000 1.0
C      1  0.5256020000000  0.4850670000000  0.5358730000000 1.0
C      1  0.5362380000000  0.5260410000000  0.4851350000000 1.0
C      1  0.5142930000000  0.4637020000000  0.5256670000000 1.0
C      1  0.5141310000000  0.5364660000000  0.4739030000000 1.0
C      1  0.4860380000000  0.4636520000000  0.4736800000000 1.0
C      1  0.4749690000000  0.5149330000000  0.5364650000000 1.0
C      1  0.4748000000000  0.4853110000000  0.4635820000000 1.0
C      1  0.5255780000000  0.5147520000000  0.4634510000000 1.0
C      1  0.4639450000000  0.4741080000000  0.4853950000000 1.0
C      1  0.4642470000000  0.5255440000000  0.5149260000000 1.0
C      1  0.5364540000000  0.4741580000000  0.5143580000000 1.0
C      1  0.5364360000000  0.4853140000000  0.5255080000000 1.0
C      1  0.4863450000000  0.5261080000000  0.5366360000000 1.0
C      1  0.5254270000000  0.5365100000000  0.4850900000000 1.0
C      1  0.4640490000000  0.5144880000000  0.5261980000000 1.0
C      1  0.5362580000000  0.5148020000000  0.4739900000000 1.0
C      1  0.4640860000000  0.4853530000000  0.4742830000000 1.0
C      1  0.5142930000000  0.4739630000000  0.5360700000000 1.0
C      1  0.4859830000000  0.4740890000000  0.4630740000000 1.0
C      1  0.5143440000000  0.5259420000000  0.4632240000000 1.0
C      1  0.4747430000000  0.4637790000000  0.4849140000000 1.0
C      1  0.5255740000000  0.4638590000000  0.5145290000000 1.0
C      1  0.4750890000000  0.5359750000000  0.5151370000000 1.0
C      1  0.5506620000000  0.5023060000000  0.5408780000000 1.0
C      1  0.5407730000000  0.5510090000000  0.5020100000000 1.0
C      1  0.5046730000000  0.5420950000000  0.5521400000000 1.0
C      1  0.4496750000000  0.4972660000000  0.5414710000000 1.0
C      1  0.4498870000000  0.5023230000000  0.4592860000000 1.0
C      1  0.5506560000000  0.4979000000000  0.4590340000000 1.0
C      1  0.4591520000000  0.4491280000000  0.5024190000000 1.0
C      1  0.4596780000000  0.5506860000000  0.4979280000000 1.0
C      1  0.5408820000000  0.4490710000000  0.4973400000000 1.0
C      1  0.4963610000000  0.4584460000000  0.5512420000000 1.0
C      1  0.4968760000000  0.5414090000000  0.4489700000000 1.0
C      1  0.5037910000000  0.4582500000000  0.4486360000000 1.0
C      1  0.5035020000000  0.5511910000000  0.5416450000000 1.0
C      1  0.5503730000000  0.5411000000000  0.5021100000000 1.0
C      1  0.5409680000000  0.5020800000000  0.5506840000000 1.0
C      1  0.4964110000000  0.4487650000000  0.5414020000000 1.0
C      1  0.5044900000000  0.4479160000000  0.4581350000000 1.0
C      1  0.4956380000000  0.5519270000000  0.4580140000000 1.0
C      1  0.4494920000000  0.4588740000000  0.5028480000000 1.0
C      1  0.5505280000000  0.4588940000000  0.4974030000000 1.0
C      1  0.4500060000000  0.5408720000000  0.4979170000000 1.0
C      1  0.4592870000000  0.4975220000000  0.5512990000000 1.0
C      1  0.5410260000000  0.4981800000000  0.4491670000000 1.0
C      1  0.4594140000000  0.5022010000000  0.4492950000000 1.0
C      1  0.5624900000000  0.4935240000000  0.5445680000000 1.0
C      1  0.5447690000000  0.5631020000000  0.4928140000000 1.0
C      1  0.4961040000000  0.5469230000000  0.5637280000000 1.0
C      1  0.4380610000000  0.5066680000000  0.5446220000000 1.0
C      1  0.4379010000000  0.4937030000000  0.4551590000000 1.0
C      1  0.5625390000000  0.5067370000000  0.4549980000000 1.0
C      1  0.4546240000000  0.4377680000000  0.4930590000000 1.0
C      1  0.4552390000000  0.5623760000000  0.5068220000000 1.0
C      1  0.5451600000000  0.4373940000000  0.5063450000000 1.0
C      1  0.5054710000000  0.4545490000000  0.5626240000000 1.0
C      1  0.5058460000000  0.5443830000000  0.4369380000000 1.0
C      1  0.4946860000000  0.4553180000000  0.4367790000000 1.0
C      1  0.4942510000000  0.5631380000000  0.5444740000000 1.0
C      1  0.5622090000000  0.5452650000000  0.4933270000000 1.0
C      1  0.5454210000000  0.4929710000000  0.5624460000000 1.0
C      1  0.5054220000000  0.4373260000000  0.5452960000000 1.0
C      1  0.4962800000000  0.4359170000000  0.4535210000000 1.0
C      1  0.5040070000000  0.5635120000000  0.4531210000000 1.0
C      1  0.4378840000000  0.4557730000000  0.4934680000000 1.0
C      1  0.5624910000000  0.4551240000000  0.5062200000000 1.0
C      1  0.4380740000000  0.5447730000000  0.5065670000000 1.0
C      1  0.4548880000000  0.5070930000000  0.5627300000000 1.0
C      1  0.5453640000000  0.5070960000000  0.4370260000000 1.0
C      1  0.4550890000000  0.4933030000000  0.4371950000000 1.0
C      1  0.4319220000000  0.5013950000000  0.5565820000000 1.0
C      1  0.5576560000000  0.4328860000000  0.5006840000000 1.0
C      1  0.5006230000000  0.5558730000000  0.4298420000000 1.0
C      1  0.5679860000000  0.4991440000000  0.5566760000000 1.0
C      1  0.5677270000000  0.5008670000000  0.4428940000000 1.0
C      1  0.4328050000000  0.4997290000000  0.4430920000000 1.0
C      1  0.4428190000000  0.5671650000000  0.5011440000000 1.0
C      1  0.4416290000000  0.4336240000000  0.4980810000000 1.0
C      1  0.5573830000000  0.5675950000000  0.4985940000000 1.0
C      1  0.5004590000000  0.4438100000000  0.4303040000000 1.0
C      1  0.5016090000000  0.5604920000000  0.5660960000000 1.0
C      1  0.4997530000000  0.4422840000000  0.5676410000000 1.0
C      1  0.4996790000000  0.4322570000000  0.5575260000000 1.0
C      1  0.4327710000000  0.5569580000000  0.5009590000000 1.0
C      1  0.5580360000000  0.5014610000000  0.4326130000000 1.0
C      1  0.4994360000000  0.5702070000000  0.5559700000000 1.0
C      1  0.4985500000000  0.5660220000000  0.4395770000000 1.0
C      1  0.5032040000000  0.4340640000000  0.4403610000000 1.0
C      1  0.5677180000000  0.4429460000000  0.5005150000000 1.0
C      1  0.4316860000000  0.4438220000000  0.4987380000000 1.0
C      1  0.5671730000000  0.5574230000000  0.4992840000000 1.0
C      1  0.4425060000000  0.4991320000000  0.4328020000000 1.0
C      1  0.5580040000000  0.4986410000000  0.5668620000000 1.0
C      1  0.4418010000000  0.5021280000000  0.5667420000000 1.0
C      1  0.5279790000000  0.4224710000000  0.5390460000000 1.0
C      1  0.5392130000000  0.5297050000000  0.4219970000000 1.0
C      1  0.4226110000000  0.5390230000000  0.5286730000000 1.0
C      1  0.4710820000000  0.5778470000000  0.5392420000000 1.0
C      1  0.4723010000000  0.4223660000000  0.4610270000000 1.0
C      1  0.5268340000000  0.5778220000000  0.4603520000000 1.0
C      1  0.4612750000000  0.4707070000000  0.4220970000000 1.0
C      1  0.4625960000000  0.5293550000000  0.5776700000000 1.0
C      1  0.5384850000000  0.4705800000000  0.5773430000000 1.0
C      1  0.5779290000000  0.4613990000000  0.5282640000000 1.0
C      1  0.5776320000000  0.5392060000000  0.4712450000000 1.0
C      1  0.4223880000000  0.4613900000000  0.4712550000000 1.0
C      1  0.4225860000000  0.5288820000000  0.5389260000000 1.0
C      1  0.5288230000000  0.5396390000000  0.4219060000000 1.0
C      1  0.5381860000000  0.4225630000000  0.5287940000000 1.0
C      1  0.5779380000000  0.4715930000000  0.5384930000000 1.0
C      1  0.4224200000000  0.4715840000000  0.4610520000000 1.0
C      1  0.5777590000000  0.5289970000000  0.4610500000000 1.0
C      1  0.4716680000000  0.4607320000000  0.4219440000000 1.0
C      1  0.5280960000000  0.4605610000000  0.5773920000000 1.0
C      1  0.4732010000000  0.5391560000000  0.5778320000000 1.0
C      1  0.4606730000000  0.5776040000000  0.5293050000000 1.0
C      1  0.5374410000000  0.5779220000000  0.4701550000000 1.0
C      1  0.4615940000000  0.4227360000000  0.4707200000000 1.0
C      1  0.4357640000000  0.4574550000000  0.4677610000000 1.0
C      1  0.4694680000000  0.4357660000000  0.4568030000000 1.0
C      1  0.4579440000000  0.4674430000000  0.4357030000000 1.0
C      1  0.5642720000000  0.5430990000000  0.4676140000000 1.0
C      1  0.5646460000000  0.4572990000000  0.5318690000000 1.0
C      1  0.4359940000000  0.5428350000000  0.5322290000000 1.0
C      1  0.5304250000000  0.5644280000000  0.4565780000000 1.0
C      1  0.5314730000000  0.4358460000000  0.5428470000000 1.0
C      1  0.4684130000000  0.5642740000000  0.5430760000000 1.0
C      1  0.5424480000000  0.5328560000000  0.4356640000000 1.0
C      1  0.5422380000000  0.4672130000000  0.5638790000000 1.0
C      1  0.4587580000000  0.5329410000000  0.5643020000000 1.0
C      1  0.4583200000000  0.4362180000000  0.4670140000000 1.0
C      1  0.4357890000000  0.4680220000000  0.4571800000000 1.0
C      1  0.4687380000000  0.4569900000000  0.4354830000000 1.0
C      1  0.5413650000000  0.5645000000000  0.4669020000000 1.0
C      1  0.4576930000000  0.5639220000000  0.5326450000000 1.0
C      1  0.5421730000000  0.4359140000000  0.5322810000000 1.0
C      1  0.5643970000000  0.5324740000000  0.4570580000000 1.0
C      1  0.4359740000000  0.5323380000000  0.5428730000000 1.0
C      1  0.5646390000000  0.4678550000000  0.5424730000000 1.0
C      1  0.5316680000000  0.5432250000000  0.4355410000000 1.0
C      1  0.4697090000000  0.5432660000000  0.5645150000000 1.0
C      1  0.5314510000000  0.4568000000000  0.5639570000000 1.0
C      1  0.4323380000000  0.4441290000000  0.5131930000000 1.0
C      1  0.5177550000000  0.4362400000000  0.4383610000000 1.0
C      1  0.4442830000000  0.5134230000000  0.4328220000000 1.0
C      1  0.5661480000000  0.5564260000000  0.5136290000000 1.0
C      1  0.5671010000000  0.4439710000000  0.4861690000000 1.0
C      1  0.4334190000000  0.5560880000000  0.4865500000000 1.0
C      1  0.4841070000000  0.5646260000000  0.4378680000000 1.0
C      1  0.4852410000000  0.4323520000000  0.5567120000000 1.0
C      1  0.5139250000000  0.5720060000000  0.5540980000000 1.0
C      1  0.5564370000000  0.4871640000000  0.4324750000000 1.0
C      1  0.5568420000000  0.5129810000000  0.5670710000000 1.0
C      1  0.4427110000000  0.4878700000000  0.5675360000000 1.0
C      1  0.4423190000000  0.4329380000000  0.5123760000000 1.0
C      1  0.4339920000000  0.5140810000000  0.4441450000000 1.0
C      1  0.5148490000000  0.4463360000000  0.4285340000000 1.0
C      1  0.5556430000000  0.5677510000000  0.5128760000000 1.0
C      1  0.4435830000000  0.5670890000000  0.4867480000000 1.0
C      1  0.5564770000000  0.4330020000000  0.4863240000000 1.0
C      1  0.5667250000000  0.4864810000000  0.4438080000000 1.0
C      1  0.4325890000000  0.4869560000000  0.5562840000000 1.0
C      1  0.5671100000000  0.5135190000000  0.5559930000000 1.0
C      1  0.4860910000000  0.5541970000000  0.4281520000000 1.0
C      1  0.5160270000000  0.5622410000000  0.5645030000000 1.0
C      1  0.4853230000000  0.4433060000000  0.5677530000000 1.0
C      1  0.4416130000000  0.5083900000000  0.5188560000000 1.0
C      1  0.5182450000000  0.4417770000000  0.5085460000000 1.0
C      1  0.5083930000000  0.5183480000000  0.4406750000000 1.0
C      1  0.5588930000000  0.4914540000000  0.5183600000000 1.0
C      1  0.5587910000000  0.5088710000000  0.4811270000000 1.0
C      1  0.4415750000000  0.4915030000000  0.4816230000000 1.0
C      1  0.4818760000000  0.5584650000000  0.5087970000000 1.0
C      1  0.4816730000000  0.4416100000000  0.4911330000000 1.0
C      1  0.5182340000000  0.5588050000000  0.4914810000000 1.0
C      1  0.4919250000000  0.4816320000000  0.4405800000000 1.0
C      1  0.4924430000000  0.5185710000000  0.5586260000000 1.0
C      1  0.5082470000000  0.4809870000000  0.5582540000000 1.0
C      1  0.5081120000000  0.4416440000000  0.5186320000000 1.0
C      1  0.4417120000000  0.5183980000000  0.5087430000000 1.0
C      1  0.5185460000000  0.5083100000000  0.4410650000000 1.0
C      1  0.4919450000000  0.5591070000000  0.5188040000000 1.0
C      1  0.5078760000000  0.5587700000000  0.4815510000000 1.0
C      1  0.4920210000000  0.4414670000000  0.4813010000000 1.0
C      1  0.5588930000000  0.4814300000000  0.5082910000000 1.0
C      1  0.4415490000000  0.4813830000000  0.4916340000000 1.0
C      1  0.5587940000000  0.5189480000000  0.4911470000000 1.0
C      1  0.4818220000000  0.4917430000000  0.4411900000000 1.0
C      1  0.5184150000000  0.4909650000000  0.5582190000000 1.0
C      1  0.4820690000000  0.5087260000000  0.5585260000000 1.0
C      1  0.5507430000000  0.4709320000000  0.5175260000000 1.0
C      1  0.5166670000000  0.5509890000000  0.4706180000000 1.0
C      1  0.4719360000000  0.5182490000000  0.5508510000000 1.0
C      1  0.4498900000000  0.5289380000000  0.5178600000000 1.0
C      1  0.4496450000000  0.4711100000000  0.4820820000000 1.0
C      1  0.5504920000000  0.5293860000000  0.4819730000000 1.0
C      1  0.4832790000000  0.4491340000000  0.4704660000000 1.0
C      1  0.4827920000000  0.5509630000000  0.5293410000000 1.0
C      1  0.5173540000000  0.4493070000000  0.5289310000000 1.0
C      1  0.5287990000000  0.4817980000000  0.5502920000000 1.0
C      1  0.5288740000000  0.5178400000000  0.4490300000000 1.0
C      1  0.4714730000000  0.4822450000000  0.4491530000000 1.0
C      1  0.4716090000000  0.5503990000000  0.5181480000000 1.0
C      1  0.5505560000000  0.5180340000000  0.4707180000000 1.0
C      1  0.5174390000000  0.4707090000000  0.5504480000000 1.0
C      1  0.5286740000000  0.4494750000000  0.5177970000000 1.0
C      1  0.4716610000000  0.4493960000000  0.4815900000000 1.0
C      1  0.5283720000000  0.5509640000000  0.4818180000000 1.0
C      1  0.4497450000000  0.4824270000000  0.4709280000000 1.0
C      1  0.5507170000000  0.4821950000000  0.5287920000000 1.0
C      1  0.4497940000000  0.5178720000000  0.5292310000000 1.0
C      1  0.4836490000000  0.5293930000000  0.5510850000000 1.0
C      1  0.5175240000000  0.5290370000000  0.4488190000000 1.0
C      1  0.4828040000000  0.4709710000000  0.4487020000000 1.0
C      1  0.5055080000000  0.4752050000000  0.4847420000000 1.0
C      1  0.4858030000000  0.5046710000000  0.4750020000000 1.0
C      1  0.4724370000000  0.4814690000000  0.5078520000000 1.0
C      1  0.4952870000000  0.5245560000000  0.4854390000000 1.0
C      1  0.4943220000000  0.4751820000000  0.5149230000000 1.0
C      1  0.5082500000000  0.5275140000000  0.5177630000000 1.0
C      1  0.5149700000000  0.4949200000000  0.4745290000000 1.0
C      1  0.5145370000000  0.5045750000000  0.5240600000000 1.0
C      1  0.4851700000000  0.4950310000000  0.5249600000000 1.0
C      1  0.5275050000000  0.5178120000000  0.5069200000000 1.0
C      1  0.5273380000000  0.4822380000000  0.4926310000000 1.0
C      1  0.4736980000000  0.5171110000000  0.4936610000000 1.0
C      1  0.4734220000000  0.5065770000000  0.4827590000000 1.0
C      1  0.5079780000000  0.4824350000000  0.4722980000000 1.0
C      1  0.4850930000000  0.4752020000000  0.5048310000000 1.0
C      1  0.5274050000000  0.4929950000000  0.4820450000000 1.0
C      1  0.4724740000000  0.4921430000000  0.5186660000000 1.0
C      1  0.5273130000000  0.5069450000000  0.5173730000000 1.0
C      1  0.4927770000000  0.5172180000000  0.4728680000000 1.0
C      1  0.5055000000000  0.5148970000000  0.5246220000000 1.0
C      1  0.4942630000000  0.4848110000000  0.5248080000000 1.0
C      1  0.5152270000000  0.5254600000000  0.5052420000000 1.0
C      1  0.4866030000000  0.5238880000000  0.4961190000000 1.0
C      1  0.5146800000000  0.4755020000000  0.4948990000000 1.0
C      1  0.5144740000000  0.4639480000000  0.5037220000000 1.0
C      1  0.5034000000000  0.5152260000000  0.4623950000000 1.0
C      1  0.4629620000000  0.5031620000000  0.5155580000000 1.0
C      1  0.4866070000000  0.5358710000000  0.5046820000000 1.0
C      1  0.4855240000000  0.4637780000000  0.4959210000000 1.0
C      1  0.5148890000000  0.5369270000000  0.4964260000000 1.0
C      1  0.4971270000000  0.4845990000000  0.4621440000000 1.0
C      1  0.4971400000000  0.5151330000000  0.5364940000000 1.0
C      1  0.5033010000000  0.4847690000000  0.5361620000000 1.0
C      1  0.5372770000000  0.4962640000000  0.5144620000000 1.0
C      1  0.5371690000000  0.5038630000000  0.4850100000000 1.0
C      1  0.4633380000000  0.4959450000000  0.4856540000000 1.0
C      1  0.4634890000000  0.5142640000000  0.5042300000000 1.0
C      1  0.5145960000000  0.5037880000000  0.4630820000000 1.0
C      1  0.5033030000000  0.4637300000000  0.5148710000000 1.0
C      1  0.5373140000000  0.4851080000000  0.5033410000000 1.0
C      1  0.4629340000000  0.4846550000000  0.4968250000000 1.0
C      1  0.5371950000000  0.5149920000000  0.4960350000000 1.0
C      1  0.4859430000000  0.4961270000000  0.4632440000000 1.0
C      1  0.5144090000000  0.4957970000000  0.5357640000000 1.0
C      1  0.4857560000000  0.5039300000000  0.5364270000000 1.0
C      1  0.4974140000000  0.5374840000000  0.5158270000000 1.0
C      1  0.5034580000000  0.5365830000000  0.4850710000000 1.0
C      1  0.4967600000000  0.4637110000000  0.4847410000000 1.0
C      1  0.5291590000000  0.4502440000000  0.4898170000000 1.0
C      1  0.4882890000000  0.5298760000000  0.4492900000000 1.0
C      1  0.4499340000000  0.4877700000000  0.5304590000000 1.0
C      1  0.4715470000000  0.5488430000000  0.4908530000000 1.0
C      1  0.4707930000000  0.4499140000000  0.5102380000000 1.0
C      1  0.5298910000000  0.5508880000000  0.5117630000000 1.0
C      1  0.5123210000000  0.4699870000000  0.4488710000000 1.0
C      1  0.5130160000000  0.5295430000000  0.5519430000000 1.0
C      1  0.4890160000000  0.4703060000000  0.5502900000000 1.0
C      1  0.5501510000000  0.5115170000000  0.5296260000000 1.0
C      1  0.5502200000000  0.4886410000000  0.4704350000000 1.0
C      1  0.4504370000000  0.5114140000000  0.4707840000000 1.0
C      1  0.4506090000000  0.5295400000000  0.4888580000000 1.0
C      1  0.5299520000000  0.4885900000000  0.4492510000000 1.0
C      1  0.4890210000000  0.4497630000000  0.5295560000000 1.0
C      1  0.5501070000000  0.4701220000000  0.4881820000000 1.0
C      1  0.4498320000000  0.4697960000000  0.5123950000000 1.0
C      1  0.5501650000000  0.5297130000000  0.5113980000000 1.0
C      1  0.4705240000000  0.5116850000000  0.4494790000000 1.0
C      1  0.5290990000000  0.5092740000000  0.5490050000000 1.0
C      1  0.4709430000000  0.4897200000000  0.5502730000000 1.0
C      1  0.5122190000000  0.5509280000000  0.5301530000000 1.0
C      1  0.4874310000000  0.5517950000000  0.4705830000000 1.0
C      1  0.5114570000000  0.4491360000000  0.4703190000000 1.0
C      1  0.4565630000000  0.5563330000000  0.4618270000000 1.0
C      1  0.4585310000000  0.4511040000000  0.5630400000000 1.0
C      1  0.5527120000000  0.4663850000000  0.4559050000000 1.0
C      1  0.5461860000000  0.4436650000000  0.4606900000000 1.0
C      1  0.5439400000000  0.5552670000000  0.5338860000000 1.0
C      1  0.4505600000000  0.4417420000000  0.5379400000000 1.0
C      1  0.5251940000000  0.5515950000000  0.5664410000000 1.0
C      1  0.5359780000000  0.4572970000000  0.4430420000000 1.0
C      1  0.4655390000000  0.5440530000000  0.4435200000000 1.0
C      1  0.4481760000000  0.5342150000000  0.4560380000000 1.0
C      1  0.4457830000000  0.4642830000000  0.5458400000000 1.0
C      1  0.5522160000000  0.5358240000000  0.5449340000000 1.0
C      1  0.5529780000000  0.4555060000000  0.4644090000000 1.0
C      1  0.4508100000000  0.4625260000000  0.5585870000000 1.0
C      1  0.4749000000000  0.5664480000000  0.4484590000000 1.0
C      1  0.4484200000000  0.5448860000000  0.4647520000000 1.0
C      1  0.5524140000000  0.5445870000000  0.5342690000000 1.0
C      1  0.4456630000000  0.4545160000000  0.5361090000000 1.0
C      1  0.5439780000000  0.5384520000000  0.5564570000000 1.0
C      1  0.4565010000000  0.5337970000000  0.4452950000000 1.0
C      1  0.5447320000000  0.4675560000000  0.4449870000000 1.0
C      1  0.5290540000000  0.4346580000000  0.4469210000000 1.0
C      1  0.4584610000000  0.4373570000000  0.5492640000000 1.0
C      1  0.5348650000000  0.5568190000000  0.5441760000000 1.0
C      1  0.5897340000000  0.5245690000000  0.4857660000000 1.0
C      1  0.4849840000000  0.5904180000000  0.5242380000000 1.0
C      1  0.5239850000000  0.4849170000000  0.5895730000000 1.0
C      1  0.4104520000000  0.4760750000000  0.4858260000000 1.0
C      1  0.4105970000000  0.5243880000000  0.5141360000000 1.0
C      1  0.5899250000000  0.4762050000000  0.5138400000000 1.0
C      1  0.5132430000000  0.4103900000000  0.5248500000000 1.0
C      1  0.5129840000000  0.5905260000000  0.4749650000000 1.0
C      1  0.4855450000000  0.4100580000000  0.4766830000000 1.0
C      1  0.4765580000000  0.5143220000000  0.5899310000000 1.0
C      1  0.4754500000000  0.4851870000000  0.4091340000000 1.0
C      1  0.5249940000000  0.5151700000000  0.4090410000000 1.0
C      1  0.5234510000000  0.5907550000000  0.4845770000000 1.0
C      1  0.5899070000000  0.4862540000000  0.5239120000000 1.0
C      1  0.4869490000000  0.5239820000000  0.5899850000000 1.0
C      1  0.4750180000000  0.4102320000000  0.4861110000000 1.0
C      1  0.5234810000000  0.4104170000000  0.5150590000000 1.0
C      1  0.4745790000000  0.5903220000000  0.5145940000000 1.0
C      1  0.4105460000000  0.5143700000000  0.5242320000000 1.0
C      1  0.5898130000000  0.5144990000000  0.4757110000000 1.0
C      1  0.4104970000000  0.4861370000000  0.4757700000000 1.0
C      1  0.5137100000000  0.4751400000000  0.5895870000000 1.0
C      1  0.4858310000000  0.4755250000000  0.4092580000000 1.0
C      1  0.5146170000000  0.5248220000000  0.4092110000000 1.0
C      1  0.5205160000000  0.4188450000000  0.4628480000000 1.0
C      1  0.4582880000000  0.5172300000000  0.4284780000000 1.0
C      1  0.4291710000000  0.4578970000000  0.5180700000000 1.0
C      1  0.4786160000000  0.5730260000000  0.4605660000000 1.0
C      1  0.4803670000000  0.4269080000000  0.5437150000000 1.0
C      1  0.5179120000000  0.5735970000000  0.5400840000000 1.0
C      1  0.5423830000000  0.4833150000000  0.4281440000000 1.0
C      1  0.5436050000000  0.5177330000000  0.5713780000000 1.0
C      1  0.4557570000000  0.4831570000000  0.5726550000000 1.0
C      1  0.5699590000000  0.5423680000000  0.5178580000000 1.0
C      1  0.5705890000000  0.4578130000000  0.4817460000000 1.0
C      1  0.4303410000000  0.5423140000000  0.4819860000000 1.0
C      1  0.4304530000000  0.5181700000000  0.4582390000000 1.0
C      1  0.5186210000000  0.4602510000000  0.4265390000000 1.0
C      1  0.4551840000000  0.4277620000000  0.5172400000000 1.0
C      1  0.5703380000000  0.4823590000000  0.4579200000000 1.0
C      1  0.4292870000000  0.4821770000000  0.5424490000000 1.0
C      1  0.5702620000000  0.5183020000000  0.5422830000000 1.0
C      1  0.4820750000000  0.5401720000000  0.4267120000000 1.0
C      1  0.5212490000000  0.5395830000000  0.5732120000000 1.0
C      1  0.4806060000000  0.4563960000000  0.5733160000000 1.0
C      1  0.5416420000000  0.5720390000000  0.5167870000000 1.0
C      1  0.4567680000000  0.5714760000000  0.4820200000000 1.0
C      1  0.5435980000000  0.4281160000000  0.4809940000000 1.0
C      1  0.5780120000000  0.4917540000000  0.4662830000000 1.0
C      1  0.4657420000000  0.5781310000000  0.4918240000000 1.0
C      1  0.4906590000000  0.4661650000000  0.5781430000000 1.0
C      1  0.4226420000000  0.5087990000000  0.4665510000000 1.0
C      1  0.4222760000000  0.4916060000000  0.5335560000000 1.0
C      1  0.5776870000000  0.5089680000000  0.5333830000000 1.0
C      1  0.5334850000000  0.4221040000000  0.4913630000000 1.0
C      1  0.5329420000000  0.5791340000000  0.5072640000000 1.0
C      1  0.4654120000000  0.4221770000000  0.5083220000000 1.0
C      1  0.5099700000000  0.5327130000000  0.5791350000000 1.0
C      1  0.5086200000000  0.4681390000000  0.4203430000000 1.0
C      1  0.4918520000000  0.5321450000000  0.4202960000000 1.0
C      1  0.4899800000000  0.5790100000000  0.4672420000000 1.0
C      1  0.5778880000000  0.4666870000000  0.4911210000000 1.0
C      1  0.4662230000000  0.4920570000000  0.5781570000000 1.0
C      1  0.5084730000000  0.4187370000000  0.4686380000000 1.0
C      1  0.4903270000000  0.4219450000000  0.5339490000000 1.0
C      1  0.5080320000000  0.5797810000000  0.5319400000000 1.0
C      1  0.4227970000000  0.5335790000000  0.4913470000000 1.0
C      1  0.5776410000000  0.5339430000000  0.5084530000000 1.0
C      1  0.4221890000000  0.4667680000000  0.5086130000000 1.0
C      1  0.5342150000000  0.5078860000000  0.5778710000000 1.0
C      1  0.4666970000000  0.5077800000000  0.4210780000000 1.0
C      1  0.5338430000000  0.4926440000000  0.4207530000000 1.0
C      1  0.4819070000000  0.5445460000000  0.5556150000000 1.0
C      1  0.5553250000000  0.4796730000000  0.5435430000000 1.0
C      1  0.5432270000000  0.5555530000000  0.4791910000000 1.0
C      1  0.5192780000000  0.4558890000000  0.5550850000000 1.0
C      1  0.5192560000000  0.5438450000000  0.4442470000000 1.0
C      1  0.4811470000000  0.4560490000000  0.4441160000000 1.0
C      1  0.4452780000000  0.5204840000000  0.5438940000000 1.0
C      1  0.4451160000000  0.4799230000000  0.4561290000000 1.0
C      1  0.5552000000000  0.5204470000000  0.4559570000000 1.0
C      1  0.4566440000000  0.4451590000000  0.4793400000000 1.0
C      1  0.4566890000000  0.5549450000000  0.5204150000000 1.0
C      1  0.5436970000000  0.4449250000000  0.5201310000000 1.0
C      1  0.5437560000000  0.4794070000000  0.5548570000000 1.0
C      1  0.4809030000000  0.5556990000000  0.5440320000000 1.0
C      1  0.5549220000000  0.5442490000000  0.4795000000000 1.0
C      1  0.4569370000000  0.5207160000000  0.5552200000000 1.0
C      1  0.5437530000000  0.5205930000000  0.4445470000000 1.0
C      1  0.4565830000000  0.4797000000000  0.4446740000000 1.0
C      1  0.5192730000000  0.4447190000000  0.5438150000000 1.0
C      1  0.4818480000000  0.4444540000000  0.4553320000000 1.0
C      1  0.5182710000000  0.5554590000000  0.4554800000000 1.0
C      1  0.4450570000000  0.4564770000000  0.4796310000000 1.0
C      1  0.5553070000000  0.4561790000000  0.5200260000000 1.0
C      1  0.4452260000000  0.5436580000000  0.5203310000000 1.0
C      1  0.4843650000000  0.4960040000000  0.5507110000000 1.0
C      1  0.5515780000000  0.4839900000000  0.4954840000000 1.0
C      1  0.4955970000000  0.5507450000000  0.4843060000000 1.0
C      1  0.5157120000000  0.5033540000000  0.5502130000000 1.0
C      1  0.5161180000000  0.4956410000000  0.4487000000000 1.0
C      1  0.4843040000000  0.5044050000000  0.4488410000000 1.0
C      1  0.4490770000000  0.5157440000000  0.4960690000000 1.0
C      1  0.4486940000000  0.4836700000000  0.5046980000000 1.0
C      1  0.5516620000000  0.5161690000000  0.5039560000000 1.0
C      1  0.5046040000000  0.4491780000000  0.4838130000000 1.0
C      1  0.5047860000000  0.5518270000000  0.5164590000000 1.0
C      1  0.4954410000000  0.4494510000000  0.5160800000000 1.0
C      1  0.4955800000000  0.4836890000000  0.5505150000000 1.0
C      1  0.4849170000000  0.5501140000000  0.4967270000000 1.0
C      1  0.5515780000000  0.4960380000000  0.4839130000000 1.0
C      1  0.5048760000000  0.5158230000000  0.5507960000000 1.0
C      1  0.4956560000000  0.5161550000000  0.4482030000000 1.0
C      1  0.5047910000000  0.4837620000000  0.4479600000000 1.0
C      1  0.5157810000000  0.4495280000000  0.4959830000000 1.0
C      1  0.4841250000000  0.4493870000000  0.5038830000000 1.0
C      1  0.5161180000000  0.5513580000000  0.5044730000000 1.0
C      1  0.4489530000000  0.5040920000000  0.4843710000000 1.0
C      1  0.5516440000000  0.5042750000000  0.5157760000000 1.0
C      1  0.4487300000000  0.4953910000000  0.5165550000000 1.0
C      1  0.5381780000000  0.5760010000000  0.4944480000000 1.0
C      1  0.4976850000000  0.5391480000000  0.5760410000000 1.0
C      1  0.5753760000000  0.4959020000000  0.5386670000000 1.0
C      1  0.4607210000000  0.4250270000000  0.4951620000000 1.0
C      1  0.4604140000000  0.5755400000000  0.5048220000000 1.0
C      1  0.5386370000000  0.4247540000000  0.5043150000000 1.0
C      1  0.5035820000000  0.4607900000000  0.5752850000000 1.0
C      1  0.5044900000000  0.5381500000000  0.4238950000000 1.0
C      1  0.4960460000000  0.4619980000000  0.4239330000000 1.0
C      1  0.4249950000000  0.5045990000000  0.5388930000000 1.0
C      1  0.4249360000000  0.4958850000000  0.4609510000000 1.0
C      1  0.5755460000000  0.5046730000000  0.4607590000000 1.0
C      1  0.5751970000000  0.5394160000000  0.4955130000000 1.0
C      1  0.5392500000000  0.4949020000000  0.5753090000000 1.0
C      1  0.4954480000000  0.5760520000000  0.5379400000000 1.0
C      1  0.4248210000000  0.4614200000000  0.4955820000000 1.0
C      1  0.5753460000000  0.4613680000000  0.5040650000000 1.0
C      1  0.4251570000000  0.5389450000000  0.5043460000000 1.0
C      1  0.4615560000000  0.5051190000000  0.5753380000000 1.0
C      1  0.5392000000000  0.5054170000000  0.4239840000000 1.0
C      1  0.4612790000000  0.4950030000000  0.4241710000000 1.0
C      1  0.5033490000000  0.4246230000000  0.5392930000000 1.0
C      1  0.4967530000000  0.4235770000000  0.4614900000000 1.0
C      1  0.5022720000000  0.5758320000000  0.4607310000000 1.0
C      1  0.4773180000000  0.5639200000000  0.4710730000000 1.0
C      1  0.4581000000000  0.4703040000000  0.5685540000000 1.0
C      1  0.5591900000000  0.4643920000000  0.4757360000000 1.0
C      1  0.5303280000000  0.4267730000000  0.4589810000000 1.0
C      1  0.5237770000000  0.5614850000000  0.5343750000000 1.0
C      1  0.4669680000000  0.4289640000000  0.5408130000000 1.0
C      1  0.5379780000000  0.5287940000000  0.5650360000000 1.0
C      1  0.5347400000000  0.4778350000000  0.4389730000000 1.0
C      1  0.4657770000000  0.5230480000000  0.4392430000000 1.0
C      1  0.4418710000000  0.5357910000000  0.4760400000000 1.0
C      1  0.4403760000000  0.4640640000000  0.5250650000000 1.0
C      1  0.5589680000000  0.5351220000000  0.5242100000000 1.0
C      1  0.5592720000000  0.4762370000000  0.4653160000000 1.0
C      1  0.4672370000000  0.4594500000000  0.5713280000000 1.0
C      1  0.4627200000000  0.5650640000000  0.4711820000000 1.0
C      1  0.4416480000000  0.5241660000000  0.4654890000000 1.0
C      1  0.5588310000000  0.5245730000000  0.5358730000000 1.0
C      1  0.4404640000000  0.4752590000000  0.5362030000000 1.0
C      1  0.5233430000000  0.5291710000000  0.5641480000000 1.0
C      1  0.4766090000000  0.5342510000000  0.4389010000000 1.0
C      1  0.5244060000000  0.4661790000000  0.4385720000000 1.0
C      1  0.5410840000000  0.4318860000000  0.4675890000000 1.0
C      1  0.4576470000000  0.4317140000000  0.5301130000000 1.0
C      1  0.5345560000000  0.5612730000000  0.5231170000000 1.0
C      1  0.4648140000000  0.5562520000000  0.4502260000000 1.0
C      1  0.4582480000000  0.4376540000000  0.5627150000000 1.0
C      1  0.5383770000000  0.4450400000000  0.4487470000000 1.0
C      1  0.5354690000000  0.5499370000000  0.5563650000000 1.0
END
