TITL C-1379268-1316-144 5.45644426828074e-07 1000000 -3900.46868109582 0 0 560 (C1) n - 1
REM
REM in /nfs/bkarasulu/CARBON/AIRSS/Generating-Clusters/GAP-ML-2020/Higher-Symm/Selected-Sizes/TryA-Only_Ih-Symm/Larger-Clusters/Try2-MINAMP_6A
REM
REM
REM
REM
REM
REM ./C.cell (31579ac4e95a012ec27f3239692ae8a5)
REM
REM compiler GCC version 9.2.1 20190827 (Red Hat 9.2.1-1)
REM options -cpp -mtune=generic -march=x86-64 -g -O0 -fpre-include=/usr/include/finclude/math-vector-fortran.h
REM seed -1538022947 593763765 -1575146581 -1039792228 520328561 -1458266727 -728667562 1649773111 993009737 712808138 20102369 817101358 -787193648 -1602254209 -842956952 -223761421 1252468501 650338228 705098403 -943733028 1739664407 2063031361 1052442237 -1143533440 1184535992 -2003854572 -1845317211 710171119 692993115 -174261360 -1834890750 297940523 120989579
REM
CELL 1.54180  100.00000  100.00000  100.00000   90.00000   90.00000   90.00000
LATT -1
SFAC C  
C      1  0.4698630000000  0.4518820000000  0.4357120000000 1.0
C      1  0.4488770000000  0.4363710000000  0.4755390000000 1.0
C      1  0.4371890000000  0.4696530000000  0.4526580000000 1.0
C      1  0.5286910000000  0.4489760000000  0.5620810000000 1.0
C      1  0.5292630000000  0.5507760000000  0.4361340000000 1.0
C      1  0.4710660000000  0.5480190000000  0.5613630000000 1.0
C      1  0.5476900000000  0.4368820000000  0.5282450000000 1.0
C      1  0.5500790000000  0.5632360000000  0.4715510000000 1.0
C      1  0.4511880000000  0.5622910000000  0.5289070000000 1.0
C      1  0.5621080000000  0.4729830000000  0.5498370000000 1.0
C      1  0.5703240000000  0.5296080000000  0.4538920000000 1.0
C      1  0.4347710000000  0.5289910000000  0.5510780000000 1.0
C      1  0.4728680000000  0.5507620000000  0.4336280000000 1.0
C      1  0.4520150000000  0.5589520000000  0.4709990000000 1.0
C      1  0.4318210000000  0.5258580000000  0.4535650000000 1.0
C      1  0.5288330000000  0.5517660000000  0.5626040000000 1.0
C      1  0.5256820000000  0.4511220000000  0.4345690000000 1.0
C      1  0.4707740000000  0.4522540000000  0.5629890000000 1.0
C      1  0.5488430000000  0.5644090000000  0.5293230000000 1.0
C      1  0.5465330000000  0.4396500000000  0.4702910000000 1.0
C      1  0.4500610000000  0.4369560000000  0.5319720000000 1.0
C      1  0.5624520000000  0.5275850000000  0.5503770000000 1.0
C      1  0.5638900000000  0.4727000000000  0.4525380000000 1.0
C      1  0.4346070000000  0.4711120000000  0.5521220000000 1.0
C      1  0.4913400000000  0.4156070000000  0.4921590000000 1.0
C      1  0.4149650000000  0.4907890000000  0.4956170000000 1.0
C      1  0.4929820000000  0.4939670000000  0.4138230000000 1.0
C      1  0.5059460000000  0.4148150000000  0.5073830000000 1.0
C      1  0.5069240000000  0.5844700000000  0.4915770000000 1.0
C      1  0.4924630000000  0.5825270000000  0.5064860000000 1.0
C      1  0.5861460000000  0.4929320000000  0.5091240000000 1.0
C      1  0.5883290000000  0.5077170000000  0.4947470000000 1.0
C      1  0.4124320000000  0.5067820000000  0.5094460000000 1.0
C      1  0.5091960000000  0.4931430000000  0.5833010000000 1.0
C      1  0.5082620000000  0.5082460000000  0.4129330000000 1.0
C      1  0.4941850000000  0.5075900000000  0.5843090000000 1.0
C      1  0.4927540000000  0.5825180000000  0.4915190000000 1.0
C      1  0.4143680000000  0.5057710000000  0.4951630000000 1.0
C      1  0.4932860000000  0.5084510000000  0.4124470000000 1.0
C      1  0.5065850000000  0.5843470000000  0.5075510000000 1.0
C      1  0.5056940000000  0.4147160000000  0.4915290000000 1.0
C      1  0.4916020000000  0.4158570000000  0.5070310000000 1.0
C      1  0.5866470000000  0.5083670000000  0.5091830000000 1.0
C      1  0.5872520000000  0.4927500000000  0.4946810000000 1.0
C      1  0.4127300000000  0.4912520000000  0.5098700000000 1.0
C      1  0.5090860000000  0.5076680000000  0.5837290000000 1.0
C      1  0.5078170000000  0.4937570000000  0.4139680000000 1.0
C      1  0.4943230000000  0.4929920000000  0.5841830000000 1.0
C      1  0.5132630000000  0.4462560000000  0.5621780000000 1.0
C      1  0.4475190000000  0.5627780000000  0.5137780000000 1.0
C      1  0.5657750000000  0.5153530000000  0.4495750000000 1.0
C      1  0.4846010000000  0.4486190000000  0.4345050000000 1.0
C      1  0.4860320000000  0.5526530000000  0.5611890000000 1.0
C      1  0.5145440000000  0.5535570000000  0.4353810000000 1.0
C      1  0.5528300000000  0.5635430000000  0.4868230000000 1.0
C      1  0.5505580000000  0.4375470000000  0.5130010000000 1.0
C      1  0.4453390000000  0.4363290000000  0.4903700000000 1.0
C      1  0.4349510000000  0.5138000000000  0.5550000000000 1.0
C      1  0.4368950000000  0.4847320000000  0.4493240000000 1.0
C      1  0.5636890000000  0.4870040000000  0.5539020000000 1.0
C      1  0.5133810000000  0.5541420000000  0.5617300000000 1.0
C      1  0.4460830000000  0.4352250000000  0.5174020000000 1.0
C      1  0.5647880000000  0.4878370000000  0.4492010000000 1.0
C      1  0.4880860000000  0.5541040000000  0.4341020000000 1.0
C      1  0.4856970000000  0.4475010000000  0.5625400000000 1.0
C      1  0.5110910000000  0.4476800000000  0.4342300000000 1.0
C      1  0.5498570000000  0.4395050000000  0.4855790000000 1.0
C      1  0.5523530000000  0.5649400000000  0.5143260000000 1.0
C      1  0.4480070000000  0.5601410000000  0.4861480000000 1.0
C      1  0.4348530000000  0.4863230000000  0.5554340000000 1.0
C      1  0.4350730000000  0.5118130000000  0.4495690000000 1.0
C      1  0.5638550000000  0.5135020000000  0.5541760000000 1.0
C      1  0.4321380000000  0.5047360000000  0.4365240000000 1.0
C      1  0.5037740000000  0.4350880000000  0.4301250000000 1.0
C      1  0.4336630000000  0.4298990000000  0.5105830000000 1.0
C      1  0.5731270000000  0.5062630000000  0.5650370000000 1.0
C      1  0.5693700000000  0.4948830000000  0.4368090000000 1.0
C      1  0.4300370000000  0.4939570000000  0.5675300000000 1.0
C      1  0.4927530000000  0.4356120000000  0.5701910000000 1.0
C      1  0.4953090000000  0.5669550000000  0.4301030000000 1.0
C      1  0.5049860000000  0.5651560000000  0.5690830000000 1.0
C      1  0.5615590000000  0.4320930000000  0.4928170000000 1.0
C      1  0.5642170000000  0.5711480000000  0.5073610000000 1.0
C      1  0.4355910000000  0.5662700000000  0.4934490000000 1.0
C      1  0.4320070000000  0.4921650000000  0.4369740000000 1.0
C      1  0.5078710000000  0.5664760000000  0.4307900000000 1.0
C      1  0.4355390000000  0.5675000000000  0.5060270000000 1.0
C      1  0.5729560000000  0.4937210000000  0.5648640000000 1.0
C      1  0.5704980000000  0.5075150000000  0.4372140000000 1.0
C      1  0.4300460000000  0.5066620000000  0.5673360000000 1.0
C      1  0.4925970000000  0.5650460000000  0.5684370000000 1.0
C      1  0.4911310000000  0.4354590000000  0.4309780000000 1.0
C      1  0.5051570000000  0.4354220000000  0.5702860000000 1.0
C      1  0.5643840000000  0.5704200000000  0.4947990000000 1.0
C      1  0.5620850000000  0.4320910000000  0.5053060000000 1.0
C      1  0.4331610000000  0.4301310000000  0.4979900000000 1.0
C      1  0.4594180000000  0.4678240000000  0.5233760000000 1.0
C      1  0.4686000000000  0.5181910000000  0.4546410000000 1.0
C      1  0.5089480000000  0.4647870000000  0.4671890000000 1.0
C      1  0.5368520000000  0.4722220000000  0.4835410000000 1.0
C      1  0.5435420000000  0.5291360000000  0.5114000000000 1.0
C      1  0.4656040000000  0.5260020000000  0.4841640000000 1.0
C      1  0.5354320000000  0.5153030000000  0.5420830000000 1.0
C      1  0.5328790000000  0.4798580000000  0.4598110000000 1.0
C      1  0.4679860000000  0.4928240000000  0.5390770000000 1.0
C      1  0.4834160000000  0.4626360000000  0.5304500000000 1.0
C      1  0.4907580000000  0.5346120000000  0.4659570000000 1.0
C      1  0.5175630000000  0.5364110000000  0.5305770000000 1.0
C      1  0.4600020000000  0.5309810000000  0.5222700000000 1.0
C      1  0.4697630000000  0.4854990000000  0.4624240000000 1.0
C      1  0.5039480000000  0.5349690000000  0.4671830000000 1.0
C      1  0.5374060000000  0.5279240000000  0.4830640000000 1.0
C      1  0.5391690000000  0.4709830000000  0.5133190000000 1.0
C      1  0.4597780000000  0.4676910000000  0.4865310000000 1.0
C      1  0.5347000000000  0.4873040000000  0.5415940000000 1.0
C      1  0.5291280000000  0.5182670000000  0.4620900000000 1.0
C      1  0.4680160000000  0.5065920000000  0.5389390000000 1.0
C      1  0.4840740000000  0.5361370000000  0.5295670000000 1.0
C      1  0.4957950000000  0.4643370000000  0.4682240000000 1.0
C      1  0.5151530000000  0.4623980000000  0.5308780000000 1.0
C      1  0.4870040000000  0.4857990000000  0.5602980000000 1.0
C      1  0.4880830000000  0.5579160000000  0.4847030000000 1.0
C      1  0.5616660000000  0.4894100000000  0.4884400000000 1.0
C      1  0.5146720000000  0.4865160000000  0.4384590000000 1.0
C      1  0.5139090000000  0.5143460000000  0.5600570000000 1.0
C      1  0.4851020000000  0.5156490000000  0.4353290000000 1.0
C      1  0.5179290000000  0.5564500000000  0.5115800000000 1.0
C      1  0.5145710000000  0.4420600000000  0.4836730000000 1.0
C      1  0.4861300000000  0.4404770000000  0.5103170000000 1.0
C      1  0.4382460000000  0.4848660000000  0.5194730000000 1.0
C      1  0.4383300000000  0.5113690000000  0.4902680000000 1.0
C      1  0.5614450000000  0.5150330000000  0.5178070000000 1.0
C      1  0.4870860000000  0.5145660000000  0.5603670000000 1.0
C      1  0.4843960000000  0.4387680000000  0.4838240000000 1.0
C      1  0.5655880000000  0.5154130000000  0.4900300000000 1.0
C      1  0.5133430000000  0.5147230000000  0.4373020000000 1.0
C      1  0.5138600000000  0.4858950000000  0.5591660000000 1.0
C      1  0.4867420000000  0.4874960000000  0.4390120000000 1.0
C      1  0.5154120000000  0.4424500000000  0.5122320000000 1.0
C      1  0.5175230000000  0.5583390000000  0.4836000000000 1.0
C      1  0.4879810000000  0.5573890000000  0.5099200000000 1.0
C      1  0.4378620000000  0.5142870000000  0.5196210000000 1.0
C      1  0.4402110000000  0.4868520000000  0.4890930000000 1.0
C      1  0.5618210000000  0.4864190000000  0.5168120000000 1.0
C      1  0.5395040000000  0.4702860000000  0.5297490000000 1.0
C      1  0.4709090000000  0.5216250000000  0.5431030000000 1.0
C      1  0.5310750000000  0.5417340000000  0.4650950000000 1.0
C      1  0.4551960000000  0.4716470000000  0.4726730000000 1.0
C      1  0.4590670000000  0.5264860000000  0.5353290000000 1.0
C      1  0.5482780000000  0.5227200000000  0.4755610000000 1.0
C      1  0.5255270000000  0.5309550000000  0.4559920000000 1.0
C      1  0.5305730000000  0.4730550000000  0.5430900000000 1.0
C      1  0.4739690000000  0.4713270000000  0.4587920000000 1.0
C      1  0.4708620000000  0.5404780000000  0.5229820000000 1.0
C      1  0.4665460000000  0.4624500000000  0.4677020000000 1.0
C      1  0.5292200000000  0.4588610000000  0.5259610000000 1.0
C      1  0.5432390000000  0.5302330000000  0.5262760000000 1.0
C      1  0.4705660000000  0.4778060000000  0.5437630000000 1.0
C      1  0.5231960000000  0.4589530000000  0.4685830000000 1.0
C      1  0.4557730000000  0.5194000000000  0.4757390000000 1.0
C      1  0.4586390000000  0.4728930000000  0.5362540000000 1.0
C      1  0.5419930000000  0.4790210000000  0.4710320000000 1.0
C      1  0.5278940000000  0.4671600000000  0.4568600000000 1.0
C      1  0.5303100000000  0.5281560000000  0.5456860000000 1.0
C      1  0.4717290000000  0.5321500000000  0.4559950000000 1.0
C      1  0.4701290000000  0.4581700000000  0.5241200000000 1.0
C      1  0.4767220000000  0.5393880000000  0.4685090000000 1.0
C      1  0.5316790000000  0.5405800000000  0.5258080000000 1.0
C      1  0.4537600000000  0.4875400000000  0.5376970000000 1.0
C      1  0.4867260000000  0.5347830000000  0.4512920000000 1.0
C      1  0.5265750000000  0.4628630000000  0.4819040000000 1.0
C      1  0.5473740000000  0.4921890000000  0.4693020000000 1.0
C      1  0.5418390000000  0.5161190000000  0.5300010000000 1.0
C      1  0.4589960000000  0.5125430000000  0.4632610000000 1.0
C      1  0.5171490000000  0.5268230000000  0.5407320000000 1.0
C      1  0.5127380000000  0.4660230000000  0.4524600000000 1.0
C      1  0.4837140000000  0.4737460000000  0.5392480000000 1.0
C      1  0.4668510000000  0.4529330000000  0.5112360000000 1.0
C      1  0.4741990000000  0.5360590000000  0.4824360000000 1.0
C      1  0.5364220000000  0.5425810000000  0.5106080000000 1.0
C      1  0.4538430000000  0.5119940000000  0.5373300000000 1.0
C      1  0.4881680000000  0.4677330000000  0.4561730000000 1.0
C      1  0.5301300000000  0.5384080000000  0.4798120000000 1.0
C      1  0.5426420000000  0.5169760000000  0.4631960000000 1.0
C      1  0.5406330000000  0.4856070000000  0.5289380000000 1.0
C      1  0.4559800000000  0.4863070000000  0.4687370000000 1.0
C      1  0.5162860000000  0.4726220000000  0.5400700000000 1.0
C      1  0.5112080000000  0.5337040000000  0.4543320000000 1.0
C      1  0.4841800000000  0.5253750000000  0.5387100000000 1.0
C      1  0.4679000000000  0.5448190000000  0.5097880000000 1.0
C      1  0.4704120000000  0.4595370000000  0.4820040000000 1.0
C      1  0.5323170000000  0.4578520000000  0.5113060000000 1.0
C      1  0.4366870000000  0.5377440000000  0.4484840000000 1.0
C      1  0.5510460000000  0.4447230000000  0.4356670000000 1.0
C      1  0.4448260000000  0.4349320000000  0.5462880000000 1.0
C      1  0.5629260000000  0.5674650000000  0.5615410000000 1.0
C      1  0.5677860000000  0.4584860000000  0.4478090000000 1.0
C      1  0.4341280000000  0.4564420000000  0.5586670000000 1.0
C      1  0.4571670000000  0.4456770000000  0.5665720000000 1.0
C      1  0.4608530000000  0.5560540000000  0.4271200000000 1.0
C      1  0.5390030000000  0.5634300000000  0.5643170000000 1.0
C      1  0.5546180000000  0.4374360000000  0.4576990000000 1.0
C      1  0.5514400000000  0.5720830000000  0.5417670000000 1.0
C      1  0.4440990000000  0.5607270000000  0.4577770000000 1.0
C      1  0.4349930000000  0.4568960000000  0.4454810000000 1.0
C      1  0.5523370000000  0.5556930000000  0.4360040000000 1.0
C      1  0.4457850000000  0.5648110000000  0.5432080000000 1.0
C      1  0.5631360000000  0.4331900000000  0.5597710000000 1.0
C      1  0.5677010000000  0.5421480000000  0.4481460000000 1.0
C      1  0.4343470000000  0.5441880000000  0.5566530000000 1.0
C      1  0.4575040000000  0.5550180000000  0.5642260000000 1.0
C      1  0.4554950000000  0.4470500000000  0.4318690000000 1.0
C      1  0.5391360000000  0.4372280000000  0.5635790000000 1.0
C      1  0.5579390000000  0.5648700000000  0.4583860000000 1.0
C      1  0.5512490000000  0.4289490000000  0.5402970000000 1.0
C      1  0.4427200000000  0.4354480000000  0.4506300000000 1.0
C      1  0.4933760000000  0.5199290000000  0.5479010000000 1.0
C      1  0.5230240000000  0.5463680000000  0.4889560000000 1.0
C      1  0.5491010000000  0.4933200000000  0.5210090000000 1.0
C      1  0.5059220000000  0.5227620000000  0.4462290000000 1.0
C      1  0.5071110000000  0.4795270000000  0.5479640000000 1.0
C      1  0.4937700000000  0.4788690000000  0.4482820000000 1.0
C      1  0.4792290000000  0.5480800000000  0.5030030000000 1.0
C      1  0.4776860000000  0.4500800000000  0.4890890000000 1.0
C      1  0.5207740000000  0.4530910000000  0.5041320000000 1.0
C      1  0.4500210000000  0.4938310000000  0.4802170000000 1.0
C      1  0.4479560000000  0.5064730000000  0.5252790000000 1.0
C      1  0.5544580000000  0.5115750000000  0.4827030000000 1.0
C      1  0.4930460000000  0.4796910000000  0.5480180000000 1.0
C      1  0.5195040000000  0.4542520000000  0.4904110000000 1.0
C      1  0.5494730000000  0.5072090000000  0.5220340000000 1.0
C      1  0.5074920000000  0.4782990000000  0.4473730000000 1.0
C      1  0.5074760000000  0.5201030000000  0.5482780000000 1.0
C      1  0.4921420000000  0.5229460000000  0.4451360000000 1.0
C      1  0.4772150000000  0.4494960000000  0.5030650000000 1.0
C      1  0.4808580000000  0.5464790000000  0.4896170000000 1.0
C      1  0.5247170000000  0.5468320000000  0.5029270000000 1.0
C      1  0.4492130000000  0.5076040000000  0.4820270000000 1.0
C      1  0.4480520000000  0.4927680000000  0.5254180000000 1.0
C      1  0.5529810000000  0.4981040000000  0.4803750000000 1.0
C      1  0.4948870000000  0.5598160000000  0.4720970000000 1.0
C      1  0.5591010000000  0.4764770000000  0.4943680000000 1.0
C      1  0.4742030000000  0.4934170000000  0.5629020000000 1.0
C      1  0.5084240000000  0.5555590000000  0.5226560000000 1.0
C      1  0.5057430000000  0.4402410000000  0.4718050000000 1.0
C      1  0.4926730000000  0.4419440000000  0.5233730000000 1.0
C      1  0.4396710000000  0.4740900000000  0.5102230000000 1.0
C      1  0.4390020000000  0.5242620000000  0.4964560000000 1.0
C      1  0.5588110000000  0.5275990000000  0.5093810000000 1.0
C      1  0.5261890000000  0.4941350000000  0.4413830000000 1.0
C      1  0.5264990000000  0.5070670000000  0.5607390000000 1.0
C      1  0.4728190000000  0.5081720000000  0.4378010000000 1.0
C      1  0.4919020000000  0.4399100000000  0.4716450000000 1.0
C      1  0.5645380000000  0.5280720000000  0.4964070000000 1.0
C      1  0.4742420000000  0.5070080000000  0.5629150000000 1.0
C      1  0.5064810000000  0.4422200000000  0.5237730000000 1.0
C      1  0.5086070000000  0.5599580000000  0.4720750000000 1.0
C      1  0.4946420000000  0.5557110000000  0.5223550000000 1.0
C      1  0.4392420000000  0.5248830000000  0.5101350000000 1.0
C      1  0.4406030000000  0.4744290000000  0.4963790000000 1.0
C      1  0.5612170000000  0.4746270000000  0.5080250000000 1.0
C      1  0.5261120000000  0.5076500000000  0.4396420000000 1.0
C      1  0.5263840000000  0.4933160000000  0.5596350000000 1.0
C      1  0.4741930000000  0.4945080000000  0.4403520000000 1.0
C      1  0.4623390000000  0.5193900000000  0.4137470000000 1.0
C      1  0.5171580000000  0.4150580000000  0.4592040000000 1.0
C      1  0.4143560000000  0.4605330000000  0.5192500000000 1.0
C      1  0.5418010000000  0.5194760000000  0.5846700000000 1.0
C      1  0.5369470000000  0.4842300000000  0.4177760000000 1.0
C      1  0.4609150000000  0.4815450000000  0.5881070000000 1.0
C      1  0.4816050000000  0.4157430000000  0.5398450000000 1.0
C      1  0.4809670000000  0.5847470000000  0.4609770000000 1.0
C      1  0.5187840000000  0.5838020000000  0.5413120000000 1.0
C      1  0.5842380000000  0.4614660000000  0.4834100000000 1.0
C      1  0.5864840000000  0.5427600000000  0.5236310000000 1.0
C      1  0.4122120000000  0.5382710000000  0.4824210000000 1.0
C      1  0.4603320000000  0.4823910000000  0.4150030000000 1.0
C      1  0.5190050000000  0.5859620000000  0.4606890000000 1.0
C      1  0.4146470000000  0.5391060000000  0.5193460000000 1.0
C      1  0.5412830000000  0.4813520000000  0.5843050000000 1.0
C      1  0.5429870000000  0.5212330000000  0.4137290000000 1.0
C      1  0.4606530000000  0.5198860000000  0.5875330000000 1.0
C      1  0.4826710000000  0.5842780000000  0.5373350000000 1.0
C      1  0.4797740000000  0.4160050000000  0.4640070000000 1.0
C      1  0.5185700000000  0.4163470000000  0.5414480000000 1.0
C      1  0.5890430000000  0.5415100000000  0.4857380000000 1.0
C      1  0.5838670000000  0.4592360000000  0.5208000000000 1.0
C      1  0.4130770000000  0.4587280000000  0.4821260000000 1.0
C      1  0.5512600000000  0.4934020000000  0.5589400000000 1.0
C      1  0.4934900000000  0.5530430000000  0.5473950000000 1.0
C      1  0.5538500000000  0.5502830000000  0.4940160000000 1.0
C      1  0.4507390000000  0.4919390000000  0.4536110000000 1.0
C      1  0.4494310000000  0.5074160000000  0.5519650000000 1.0
C      1  0.5494410000000  0.5103400000000  0.4515590000000 1.0
C      1  0.5079860000000  0.5493400000000  0.4491260000000 1.0
C      1  0.5063300000000  0.4451580000000  0.5486260000000 1.0
C      1  0.4910520000000  0.4522560000000  0.4493430000000 1.0
C      1  0.4525780000000  0.5474910000000  0.5075080000000 1.0
C      1  0.4464750000000  0.4496260000000  0.4968880000000 1.0
C      1  0.5475450000000  0.4519530000000  0.5071050000000 1.0
C      1  0.5513260000000  0.5071470000000  0.5591480000000 1.0
C      1  0.4925960000000  0.4458370000000  0.5485930000000 1.0
C      1  0.5499370000000  0.4527470000000  0.4931020000000 1.0
C      1  0.4501620000000  0.5066960000000  0.4522970000000 1.0
C      1  0.4493740000000  0.4926300000000  0.5521800000000 1.0
C      1  0.5496880000000  0.4953620000000  0.4542550000000 1.0
C      1  0.5060190000000  0.4518660000000  0.4484660000000 1.0
C      1  0.5071830000000  0.5539880000000  0.5476850000000 1.0
C      1  0.4930580000000  0.5495000000000  0.4483340000000 1.0
C      1  0.4512470000000  0.4503020000000  0.5101560000000 1.0
C      1  0.4483430000000  0.5470460000000  0.4937500000000 1.0
C      1  0.5512290000000  0.5506290000000  0.5083920000000 1.0
C      1  0.5539130000000  0.5513000000000  0.5359460000000 1.0
C      1  0.5513850000000  0.5349790000000  0.5545010000000 1.0
C      1  0.5355430000000  0.5534250000000  0.5479930000000 1.0
C      1  0.4502010000000  0.5432950000000  0.4660420000000 1.0
C      1  0.4446050000000  0.4515920000000  0.5370020000000 1.0
C      1  0.5492630000000  0.4554600000000  0.4646570000000 1.0
C      1  0.4497680000000  0.5380840000000  0.4414820000000 1.0
C      1  0.4504650000000  0.4668060000000  0.5558560000000 1.0
C      1  0.5505040000000  0.4674720000000  0.4450250000000 1.0
C      1  0.4662920000000  0.5531650000000  0.4496980000000 1.0
C      1  0.4648170000000  0.4500810000000  0.5478650000000 1.0
C      1  0.5337650000000  0.4469750000000  0.4475170000000 1.0
C      1  0.5524920000000  0.4499320000000  0.5349280000000 1.0
C      1  0.5512080000000  0.4654680000000  0.5541880000000 1.0
C      1  0.5349530000000  0.4469640000000  0.5475060000000 1.0
C      1  0.4457170000000  0.4490190000000  0.4670960000000 1.0
C      1  0.4455090000000  0.5481300000000  0.5349750000000 1.0
C      1  0.5543770000000  0.5474350000000  0.4670880000000 1.0
C      1  0.4528780000000  0.4645720000000  0.4491940000000 1.0
C      1  0.4506080000000  0.5334430000000  0.5545350000000 1.0
C      1  0.5470300000000  0.5355490000000  0.4464070000000 1.0
C      1  0.4650220000000  0.4448110000000  0.4492220000000 1.0
C      1  0.4655710000000  0.5495970000000  0.5460880000000 1.0
C      1  0.5369080000000  0.5557930000000  0.4486210000000 1.0
C      1  0.4602260000000  0.4944160000000  0.5907750000000 1.0
C      1  0.4934620000000  0.5885680000000  0.4602200000000 1.0
C      1  0.5877960000000  0.4602890000000  0.4957560000000 1.0
C      1  0.5401690000000  0.4957650000000  0.4137660000000 1.0
C      1  0.5428520000000  0.5067750000000  0.5871930000000 1.0
C      1  0.4603060000000  0.5073580000000  0.4110680000000 1.0
C      1  0.5072610000000  0.5888600000000  0.5390000000000 1.0
C      1  0.5044700000000  0.4119490000000  0.4592770000000 1.0
C      1  0.4938720000000  0.4121350000000  0.5396270000000 1.0
C      1  0.4102440000000  0.4600650000000  0.5073430000000 1.0
C      1  0.4091660000000  0.5392260000000  0.4948440000000 1.0
C      1  0.5902070000000  0.5433360000000  0.5111220000000 1.0
C      1  0.4601820000000  0.5070780000000  0.5905870000000 1.0
C      1  0.4915710000000  0.4125620000000  0.4607980000000 1.0
C      1  0.5911170000000  0.5430070000000  0.4985290000000 1.0
C      1  0.5420260000000  0.5084320000000  0.4119130000000 1.0
C      1  0.5427130000000  0.4939800000000  0.5870240000000 1.0
C      1  0.4600020000000  0.4945940000000  0.4112320000000 1.0
C      1  0.5065950000000  0.4126870000000  0.5395540000000 1.0
C      1  0.5062470000000  0.5889670000000  0.4603480000000 1.0
C      1  0.4944890000000  0.5894300000000  0.5383770000000 1.0
C      1  0.4104610000000  0.5392700000000  0.5075210000000 1.0
C      1  0.4096090000000  0.4595380000000  0.4944970000000 1.0
C      1  0.5875270000000  0.4594980000000  0.5083580000000 1.0
C      1  0.4286500000000  0.4907880000000  0.4603910000000 1.0
C      1  0.4911340000000  0.4591060000000  0.4261510000000 1.0
C      1  0.4558100000000  0.4273040000000  0.4963090000000 1.0
C      1  0.5683000000000  0.4935110000000  0.5415280000000 1.0
C      1  0.5725020000000  0.5078050000000  0.4605570000000 1.0
C      1  0.4281500000000  0.5066840000000  0.5437030000000 1.0
C      1  0.5071360000000  0.4579040000000  0.5691320000000 1.0
C      1  0.5086880000000  0.5434600000000  0.4260160000000 1.0
C      1  0.4932160000000  0.5419780000000  0.5686500000000 1.0
C      1  0.5385740000000  0.4322890000000  0.5058380000000 1.0
C      1  0.5405370000000  0.5689140000000  0.4931360000000 1.0
C      1  0.4584660000000  0.5697130000000  0.5062110000000 1.0
C      1  0.4281830000000  0.5044990000000  0.4604670000000 1.0
C      1  0.4949850000000  0.5440450000000  0.4249800000000 1.0
C      1  0.4586820000000  0.5684110000000  0.4923960000000 1.0
C      1  0.5685400000000  0.5073490000000  0.5417190000000 1.0
C      1  0.5723930000000  0.4941140000000  0.4602480000000 1.0
C      1  0.4282320000000  0.4930360000000  0.5438730000000 1.0
C      1  0.5071130000000  0.5427540000000  0.5690360000000 1.0
C      1  0.5048930000000  0.4582790000000  0.4253770000000 1.0
C      1  0.4932040000000  0.4585240000000  0.5691830000000 1.0
C      1  0.5403290000000  0.5694760000000  0.5068230000000 1.0
C      1  0.5381440000000  0.4333230000000  0.4921990000000 1.0
C      1  0.4566560000000  0.4273740000000  0.5100550000000 1.0
C      1  0.4270460000000  0.4846470000000  0.5320910000000 1.0
C      1  0.4864320000000  0.5339440000000  0.4211020000000 1.0
C      1  0.5262940000000  0.4315260000000  0.4839370000000 1.0
C      1  0.5736080000000  0.4859460000000  0.4711680000000 1.0
C      1  0.5702210000000  0.5164450000000  0.5311400000000 1.0
C      1  0.4258320000000  0.5123260000000  0.4713080000000 1.0
C      1  0.5158670000000  0.5328070000000  0.5723410000000 1.0
C      1  0.5137060000000  0.4685460000000  0.4230630000000 1.0
C      1  0.4856300000000  0.4696510000000  0.5718940000000 1.0
C      1  0.4684610000000  0.4269010000000  0.5167710000000 1.0
C      1  0.4693910000000  0.5705440000000  0.4842260000000 1.0
C      1  0.5279630000000  0.5688180000000  0.5145260000000 1.0
C      1  0.4268070000000  0.5147510000000  0.5316940000000 1.0
C      1  0.4840660000000  0.4707030000000  0.4259720000000 1.0
C      1  0.5288100000000  0.5695340000000  0.4846630000000 1.0
C      1  0.5763400000000  0.5153620000000  0.4711500000000 1.0
C      1  0.5695730000000  0.4847650000000  0.5306890000000 1.0
C      1  0.4263140000000  0.4828020000000  0.4711660000000 1.0
C      1  0.5159060000000  0.4680630000000  0.5718070000000 1.0
C      1  0.5167670000000  0.5326590000000  0.4237250000000 1.0
C      1  0.4855280000000  0.5309110000000  0.5714110000000 1.0
C      1  0.4695810000000  0.5709150000000  0.5139610000000 1.0
C      1  0.4655340000000  0.4240710000000  0.4869690000000 1.0
C      1  0.5266390000000  0.4311950000000  0.5142020000000 1.0
C      1  0.4505020000000  0.5527210000000  0.4349360000000 1.0
C      1  0.5458760000000  0.4377260000000  0.4461660000000 1.0
C      1  0.4371110000000  0.4465800000000  0.5491370000000 1.0
C      1  0.5524320000000  0.5588310000000  0.5626510000000 1.0
C      1  0.5578260000000  0.4561500000000  0.4383440000000 1.0
C      1  0.4469970000000  0.4552800000000  0.5647310000000 1.0
C      1  0.4553160000000  0.4394260000000  0.5541040000000 1.0
C      1  0.4530660000000  0.5606060000000  0.4469480000000 1.0
C      1  0.5379650000000  0.5687400000000  0.5498120000000 1.0
C      1  0.5614750000000  0.4500320000000  0.4572540000000 1.0
C      1  0.5627070000000  0.5735740000000  0.5490730000000 1.0
C      1  0.4378170000000  0.5479810000000  0.4582450000000 1.0
C      1  0.4471480000000  0.4565130000000  0.4378390000000 1.0
C      1  0.5492080000000  0.5639350000000  0.4466650000000 1.0
C      1  0.4377240000000  0.5536470000000  0.5468640000000 1.0
C      1  0.5525900000000  0.4417300000000  0.5614260000000 1.0
C      1  0.5568420000000  0.5431240000000  0.4386590000000 1.0
C      1  0.4471690000000  0.5455020000000  0.5626840000000 1.0
C      1  0.4562570000000  0.5609080000000  0.5514920000000 1.0
C      1  0.4531500000000  0.4383590000000  0.4424910000000 1.0
C      1  0.5378620000000  0.4315910000000  0.5491790000000 1.0
C      1  0.5653140000000  0.5522550000000  0.4581930000000 1.0
C      1  0.5627760000000  0.4273530000000  0.5471020000000 1.0
C      1  0.4359880000000  0.4464730000000  0.4553340000000 1.0
C      1  0.5756730000000  0.4927090000000  0.4842650000000 1.0
C      1  0.4932770000000  0.4822600000000  0.5731990000000 1.0
C      1  0.4827030000000  0.5708660000000  0.4903090000000 1.0
C      1  0.4170860000000  0.4921280000000  0.5237710000000 1.0
C      1  0.4256410000000  0.5062850000000  0.4844950000000 1.0
C      1  0.5750700000000  0.5085750000000  0.5186300000000 1.0
C      1  0.5087580000000  0.4829020000000  0.4247830000000 1.0
C      1  0.5091590000000  0.5191540000000  0.5730990000000 1.0
C      1  0.4915470000000  0.5197590000000  0.4223420000000 1.0
C      1  0.5200170000000  0.5790810000000  0.5070760000000 1.0
C      1  0.5189120000000  0.4208270000000  0.4917750000000 1.0
C      1  0.4807860000000  0.4268730000000  0.5079570000000 1.0
C      1  0.5776210000000  0.5090350000000  0.4842470000000 1.0
C      1  0.4931850000000  0.5183840000000  0.5733170000000 1.0
C      1  0.4799440000000  0.4257570000000  0.4906940000000 1.0
C      1  0.4170200000000  0.5067820000000  0.5233730000000 1.0
C      1  0.4263690000000  0.4899480000000  0.4843720000000 1.0
C      1  0.5747820000000  0.4933040000000  0.5185260000000 1.0
C      1  0.5092400000000  0.5193350000000  0.4234910000000 1.0
C      1  0.5092110000000  0.4817610000000  0.5725200000000 1.0
C      1  0.4917910000000  0.4836980000000  0.4252680000000 1.0
C      1  0.5190850000000  0.4207770000000  0.5065100000000 1.0
C      1  0.5204420000000  0.5793780000000  0.4924030000000 1.0
C      1  0.4825030000000  0.5708110000000  0.5068110000000 1.0
C      1  0.4607720000000  0.4881700000000  0.5614210000000 1.0
C      1  0.4881940000000  0.5581210000000  0.4597370000000 1.0
C      1  0.5506460000000  0.4663540000000  0.4873720000000 1.0
C      1  0.5380020000000  0.4873230000000  0.4477440000000 1.0
C      1  0.5388500000000  0.5136500000000  0.5575530000000 1.0
C      1  0.4602280000000  0.5145500000000  0.4423370000000 1.0
C      1  0.5142460000000  0.5507930000000  0.5351230000000 1.0
C      1  0.5113650000000  0.4423110000000  0.4588410000000 1.0
C      1  0.4863640000000  0.4482130000000  0.5353980000000 1.0
C      1  0.4461170000000  0.4629390000000  0.5175860000000 1.0
C      1  0.4426710000000  0.5354530000000  0.4886020000000 1.0
C      1  0.5604170000000  0.5410890000000  0.5151160000000 1.0
C      1  0.4608020000000  0.5122020000000  0.5611090000000 1.0
C      1  0.4861590000000  0.4420110000000  0.4588240000000 1.0
C      1  0.5603210000000  0.5390760000000  0.4888140000000 1.0
C      1  0.5382930000000  0.5145940000000  0.4414630000000 1.0
C      1  0.5388760000000  0.4869650000000  0.5565870000000 1.0
C      1  0.4640570000000  0.4874700000000  0.4478170000000 1.0
C      1  0.5125790000000  0.4480490000000  0.5357420000000 1.0
C      1  0.5141550000000  0.5581080000000  0.4595250000000 1.0
C      1  0.4874680000000  0.5506550000000  0.5342240000000 1.0
C      1  0.4468450000000  0.5358880000000  0.5161700000000 1.0
C      1  0.4455610000000  0.4622450000000  0.4896300000000 1.0
C      1  0.5532180000000  0.4643020000000  0.5139390000000 1.0
C      1  0.4714230000000  0.4229890000000  0.5397090000000 1.0
C      1  0.4189730000000  0.5353940000000  0.4723310000000 1.0
C      1  0.5369740000000  0.4735390000000  0.4261200000000 1.0
C      1  0.5278330000000  0.4215710000000  0.4612170000000 1.0
C      1  0.5291000000000  0.5755970000000  0.5404730000000 1.0
C      1  0.4708300000000  0.5775050000000  0.4626770000000 1.0
C      1  0.5799650000000  0.5391730000000  0.5337210000000 1.0
C      1  0.5773700000000  0.4630540000000  0.4730820000000 1.0
C      1  0.4227130000000  0.4609260000000  0.5293850000000 1.0
C      1  0.4634640000000  0.4711230000000  0.5815630000000 1.0
C      1  0.4626250000000  0.5290970000000  0.4231040000000 1.0
C      1  0.5383550000000  0.5309800000000  0.5805350000000 1.0
C      1  0.4728360000000  0.5765960000000  0.5364590000000 1.0
C      1  0.4202510000000  0.4592860000000  0.4718060000000 1.0
C      1  0.5413590000000  0.5322610000000  0.4197890000000 1.0
C      1  0.5298350000000  0.5798200000000  0.4625010000000 1.0
C      1  0.5289960000000  0.4243170000000  0.5401840000000 1.0
C      1  0.4694610000000  0.4249850000000  0.4633120000000 1.0
C      1  0.5772080000000  0.4618040000000  0.5310500000000 1.0
C      1  0.5836190000000  0.5381890000000  0.4749570000000 1.0
C      1  0.4238650000000  0.5384940000000  0.5286690000000 1.0
C      1  0.4632190000000  0.5300050000000  0.5805530000000 1.0
C      1  0.4617710000000  0.4721050000000  0.4219610000000 1.0
C      1  0.5375900000000  0.4701220000000  0.5797430000000 1.0
C      1  0.4744360000000  0.5549050000000  0.4623410000000 1.0
C      1  0.5534890000000  0.4673830000000  0.4723860000000 1.0
C      1  0.4632160000000  0.4746180000000  0.5586670000000 1.0
C      1  0.5292240000000  0.5529660000000  0.5345090000000 1.0
C      1  0.5253140000000  0.4444330000000  0.4609000000000 1.0
C      1  0.4713100000000  0.4460180000000  0.5353690000000 1.0
C      1  0.4365710000000  0.4589420000000  0.5281540000000 1.0
C      1  0.4446520000000  0.5319260000000  0.4745320000000 1.0
C      1  0.5570460000000  0.5390890000000  0.5291110000000 1.0
C      1  0.5438730000000  0.4775390000000  0.4377930000000 1.0
C      1  0.5382200000000  0.5290990000000  0.5587610000000 1.0
C      1  0.4549860000000  0.5263990000000  0.4347070000000 1.0
C      1  0.4741250000000  0.4359620000000  0.4555040000000 1.0
C      1  0.5588980000000  0.5355140000000  0.4749230000000 1.0
C      1  0.4632930000000  0.5256180000000  0.5578690000000 1.0
C      1  0.5276650000000  0.4465690000000  0.5345540000000 1.0
C      1  0.5283430000000  0.5571360000000  0.4611160000000 1.0
C      1  0.4723430000000  0.5532240000000  0.5336310000000 1.0
C      1  0.4373730000000  0.5411230000000  0.5261540000000 1.0
C      1  0.4427710000000  0.4622760000000  0.4741990000000 1.0
C      1  0.5536840000000  0.4630760000000  0.5289440000000 1.0
C      1  0.5352350000000  0.5289230000000  0.4420750000000 1.0
C      1  0.5380390000000  0.4716750000000  0.5570620000000 1.0
C      1  0.4648920000000  0.4726500000000  0.4459020000000 1.0
C      1  0.4284900000000  0.4711790000000  0.5381200000000 1.0
C      1  0.4733760000000  0.5381510000000  0.4249870000000 1.0
C      1  0.5319560000000  0.4331660000000  0.4690780000000 1.0
C      1  0.5678720000000  0.4724290000000  0.4679210000000 1.0
C      1  0.5682920000000  0.5308370000000  0.5366560000000 1.0
C      1  0.4294280000000  0.5264060000000  0.4681780000000 1.0
C      1  0.5303480000000  0.5368980000000  0.5696000000000 1.0
C      1  0.5265780000000  0.4636120000000  0.4271330000000 1.0
C      1  0.4710270000000  0.4668880000000  0.5694490000000 1.0
C      1  0.4656280000000  0.4325140000000  0.5308300000000 1.0
C      1  0.4665040000000  0.5656740000000  0.4702530000000 1.0
C      1  0.5329300000000  0.5668440000000  0.5289350000000 1.0
C      1  0.4281250000000  0.5283140000000  0.5376320000000 1.0
C      1  0.4703520000000  0.4674830000000  0.4322490000000 1.0
C      1  0.5347690000000  0.5682160000000  0.4699610000000 1.0
C      1  0.5734970000000  0.5297630000000  0.4688110000000 1.0
C      1  0.5664110000000  0.4703050000000  0.5355240000000 1.0
C      1  0.4305200000000  0.4686400000000  0.4678330000000 1.0
C      1  0.5302770000000  0.4640550000000  0.5683000000000 1.0
C      1  0.5308070000000  0.5361540000000  0.4293920000000 1.0
C      1  0.4710070000000  0.5336860000000  0.5684220000000 1.0
C      1  0.4666480000000  0.5665880000000  0.5281420000000 1.0
C      1  0.4601620000000  0.4275010000000  0.4740760000000 1.0
C      1  0.5320110000000  0.4331500000000  0.5284960000000 1.0
C      1  0.4595070000000  0.5406460000000  0.4533580000000 1.0
C      1  0.5404170000000  0.4595110000000  0.4528380000000 1.0
C      1  0.5491830000000  0.4520190000000  0.5490830000000 1.0
C      1  0.4552200000000  0.5394640000000  0.5422550000000 1.0
C      1  0.5496420000000  0.5485180000000  0.5497630000000 1.0
C      1  0.4547060000000  0.4602530000000  0.5437530000000 1.0
C      1  0.4579810000000  0.4539940000000  0.4588070000000 1.0
C      1  0.5437330000000  0.5436980000000  0.4577490000000 1.0
END
