TITL C-1379265-1223-441 -1.40479319589195e-06 1000000 -2508.01506928169 0 0 360 (Td) n - 1
REM
REM in /nfs/bkarasulu/CARBON/AIRSS/Generating-Clusters/GAP-ML-2020/Higher-Symm/Selected-Sizes/TryA-Only_Ih-Symm/Larger-Clusters/Try2-MINAMP_6A
REM
REM
REM
REM
REM
REM ./C.cell (31579ac4e95a012ec27f3239692ae8a5)
REM
REM compiler GCC version 9.2.1 20190827 (Red Hat 9.2.1-1)
REM options -cpp -mtune=generic -march=x86-64 -g -O0 -fpre-include=/usr/include/finclude/math-vector-fortran.h
REM seed -109697460 1462902585 -54575669 1839117668 -1708069458 1532962904 1503633158 -156620288 1844153581 976761293 -1370299019 -1042107842 1062692722 1720558411 -652374832 -1662714901 -876036193 236272686 -1190520601 -1253470250 -1469556183 907380099 81641005 -371610515 -2037094442 -2114456624 1808814866 -788821250 -1891569626 -1544811780 -1792962697 209183934 1577930997
REM
CELL 1.54180  100.00000  100.00000  100.00000   90.00000   90.00000   90.00000
LATT -1
SFAC C  
C      1  0.4865530000000  0.5389450000000  0.4505250000000 1.0
C      1  0.5389450000000  0.4505250000000  0.4865530000000 1.0
C      1  0.4505250000000  0.4865530000000  0.5389450000000 1.0
C      1  0.4865530000000  0.4610550000000  0.5494750000000 1.0
C      1  0.5134470000000  0.5389450000000  0.5494750000000 1.0
C      1  0.5134470000000  0.4610550000000  0.4505250000000 1.0
C      1  0.5389450000000  0.5494750000000  0.5134470000000 1.0
C      1  0.4610550000000  0.4505250000000  0.5134470000000 1.0
C      1  0.4610550000000  0.5494750000000  0.4865530000000 1.0
C      1  0.4505250000000  0.5134470000000  0.4610550000000 1.0
C      1  0.5494750000000  0.4865530000000  0.4610550000000 1.0
C      1  0.5494750000000  0.5134470000000  0.5389450000000 1.0
C      1  0.4865530000000  0.4505250000000  0.5389450000000 1.0
C      1  0.5389450000000  0.4865530000000  0.4505250000000 1.0
C      1  0.4505250000000  0.5389450000000  0.4865530000000 1.0
C      1  0.4865530000000  0.5494750000000  0.4610550000000 1.0
C      1  0.5134470000000  0.5494750000000  0.5389450000000 1.0
C      1  0.5134470000000  0.4505250000000  0.4610550000000 1.0
C      1  0.5389450000000  0.5134470000000  0.5494750000000 1.0
C      1  0.4610550000000  0.5134470000000  0.4505250000000 1.0
C      1  0.4610550000000  0.4865530000000  0.5494750000000 1.0
C      1  0.4505250000000  0.4610550000000  0.5134470000000 1.0
C      1  0.5494750000000  0.4610550000000  0.4865530000000 1.0
C      1  0.5494750000000  0.5389450000000  0.5134470000000 1.0
C      1  0.4422800000000  0.4965630000000  0.5680400000000 1.0
C      1  0.4965630000000  0.5680400000000  0.4422800000000 1.0
C      1  0.5680400000000  0.4422800000000  0.4965630000000 1.0
C      1  0.4422800000000  0.5034370000000  0.4319600000000 1.0
C      1  0.5577200000000  0.4965630000000  0.4319600000000 1.0
C      1  0.5577200000000  0.5034370000000  0.5680400000000 1.0
C      1  0.4965630000000  0.4319600000000  0.5577200000000 1.0
C      1  0.5034370000000  0.5680400000000  0.5577200000000 1.0
C      1  0.5034370000000  0.4319600000000  0.4422800000000 1.0
C      1  0.5680400000000  0.5577200000000  0.5034370000000 1.0
C      1  0.4319600000000  0.4422800000000  0.5034370000000 1.0
C      1  0.4319600000000  0.5577200000000  0.4965630000000 1.0
C      1  0.4422800000000  0.5680400000000  0.4965630000000 1.0
C      1  0.4965630000000  0.4422800000000  0.5680400000000 1.0
C      1  0.5680400000000  0.4965630000000  0.4422800000000 1.0
C      1  0.4422800000000  0.4319600000000  0.5034370000000 1.0
C      1  0.5577200000000  0.4319600000000  0.4965630000000 1.0
C      1  0.5577200000000  0.5680400000000  0.5034370000000 1.0
C      1  0.4965630000000  0.5577200000000  0.4319600000000 1.0
C      1  0.5034370000000  0.5577200000000  0.5680400000000 1.0
C      1  0.5034370000000  0.4422800000000  0.4319600000000 1.0
C      1  0.5680400000000  0.5034370000000  0.5577200000000 1.0
C      1  0.4319600000000  0.5034370000000  0.4422800000000 1.0
C      1  0.4319600000000  0.4965630000000  0.5577200000000 1.0
C      1  0.4495030000000  0.5755910000000  0.4881160000000 1.0
C      1  0.5755910000000  0.4881160000000  0.4495030000000 1.0
C      1  0.4881160000000  0.4495030000000  0.5755910000000 1.0
C      1  0.4495030000000  0.4244090000000  0.5118840000000 1.0
C      1  0.5504970000000  0.5755910000000  0.5118840000000 1.0
C      1  0.5504970000000  0.4244090000000  0.4881160000000 1.0
C      1  0.5755910000000  0.5118840000000  0.5504970000000 1.0
C      1  0.4244090000000  0.4881160000000  0.5504970000000 1.0
C      1  0.4244090000000  0.5118840000000  0.4495030000000 1.0
C      1  0.4881160000000  0.5504970000000  0.4244090000000 1.0
C      1  0.5118840000000  0.4495030000000  0.4244090000000 1.0
C      1  0.5118840000000  0.5504970000000  0.5755910000000 1.0
C      1  0.4495030000000  0.4881160000000  0.5755910000000 1.0
C      1  0.5755910000000  0.4495030000000  0.4881160000000 1.0
C      1  0.4881160000000  0.5755910000000  0.4495030000000 1.0
C      1  0.4495030000000  0.5118840000000  0.4244090000000 1.0
C      1  0.5504970000000  0.5118840000000  0.5755910000000 1.0
C      1  0.5504970000000  0.4881160000000  0.4244090000000 1.0
C      1  0.5755910000000  0.5504970000000  0.5118840000000 1.0
C      1  0.4244090000000  0.5504970000000  0.4881160000000 1.0
C      1  0.4244090000000  0.4495030000000  0.5118840000000 1.0
C      1  0.4881160000000  0.4244090000000  0.5504970000000 1.0
C      1  0.5118840000000  0.4244090000000  0.4495030000000 1.0
C      1  0.5118840000000  0.5755910000000  0.5504970000000 1.0
C      1  0.5609830000000  0.5407300000000  0.4488260000000 1.0
C      1  0.5407300000000  0.4488260000000  0.5609830000000 1.0
C      1  0.4488260000000  0.5609830000000  0.5407300000000 1.0
C      1  0.5609830000000  0.4592700000000  0.5511740000000 1.0
C      1  0.4390170000000  0.5407300000000  0.5511740000000 1.0
C      1  0.4390170000000  0.4592700000000  0.4488260000000 1.0
C      1  0.5407300000000  0.5511740000000  0.4390170000000 1.0
C      1  0.4592700000000  0.4488260000000  0.4390170000000 1.0
C      1  0.4592700000000  0.5511740000000  0.5609830000000 1.0
C      1  0.4488260000000  0.4390170000000  0.4592700000000 1.0
C      1  0.5511740000000  0.5609830000000  0.4592700000000 1.0
C      1  0.5511740000000  0.4390170000000  0.5407300000000 1.0
C      1  0.5609830000000  0.4488260000000  0.5407300000000 1.0
C      1  0.5407300000000  0.5609830000000  0.4488260000000 1.0
C      1  0.4488260000000  0.5407300000000  0.5609830000000 1.0
C      1  0.5609830000000  0.5511740000000  0.4592700000000 1.0
C      1  0.4390170000000  0.5511740000000  0.5407300000000 1.0
C      1  0.4390170000000  0.4488260000000  0.4592700000000 1.0
C      1  0.5407300000000  0.4390170000000  0.5511740000000 1.0
C      1  0.4592700000000  0.4390170000000  0.4488260000000 1.0
C      1  0.4592700000000  0.5609830000000  0.5511740000000 1.0
C      1  0.4488260000000  0.4592700000000  0.4390170000000 1.0
C      1  0.5511740000000  0.4592700000000  0.5609830000000 1.0
C      1  0.5511740000000  0.5407300000000  0.4390170000000 1.0
C      1  0.4364690000000  0.5292030000000  0.5078320000000 1.0
C      1  0.5292030000000  0.5078320000000  0.4364690000000 1.0
C      1  0.5078320000000  0.4364690000000  0.5292030000000 1.0
C      1  0.4364690000000  0.4707970000000  0.4921680000000 1.0
C      1  0.5635310000000  0.5292030000000  0.4921680000000 1.0
C      1  0.5635310000000  0.4707970000000  0.5078320000000 1.0
C      1  0.5292030000000  0.4921680000000  0.5635310000000 1.0
C      1  0.4707970000000  0.5078320000000  0.5635310000000 1.0
C      1  0.4707970000000  0.4921680000000  0.4364690000000 1.0
C      1  0.5078320000000  0.5635310000000  0.4707970000000 1.0
C      1  0.4921680000000  0.4364690000000  0.4707970000000 1.0
C      1  0.4921680000000  0.5635310000000  0.5292030000000 1.0
C      1  0.4364690000000  0.5078320000000  0.5292030000000 1.0
C      1  0.5292030000000  0.4364690000000  0.5078320000000 1.0
C      1  0.5078320000000  0.5292030000000  0.4364690000000 1.0
C      1  0.4364690000000  0.4921680000000  0.4707970000000 1.0
C      1  0.5635310000000  0.4921680000000  0.5292030000000 1.0
C      1  0.5635310000000  0.5078320000000  0.4707970000000 1.0
C      1  0.5292030000000  0.5635310000000  0.4921680000000 1.0
C      1  0.4707970000000  0.5635310000000  0.5078320000000 1.0
C      1  0.4707970000000  0.4364690000000  0.4921680000000 1.0
C      1  0.5078320000000  0.4707970000000  0.5635310000000 1.0
C      1  0.4921680000000  0.4707970000000  0.4364690000000 1.0
C      1  0.4921680000000  0.5292030000000  0.5635310000000 1.0
C      1  0.4843070000000  0.5055630000000  0.4228330000000 1.0
C      1  0.5055630000000  0.4228330000000  0.4843070000000 1.0
C      1  0.4228330000000  0.4843070000000  0.5055630000000 1.0
C      1  0.4843070000000  0.4944370000000  0.5771670000000 1.0
C      1  0.5156930000000  0.5055630000000  0.5771670000000 1.0
C      1  0.5156930000000  0.4944370000000  0.4228330000000 1.0
C      1  0.5055630000000  0.5771670000000  0.5156930000000 1.0
C      1  0.4944370000000  0.4228330000000  0.5156930000000 1.0
C      1  0.4944370000000  0.5771670000000  0.4843070000000 1.0
C      1  0.4228330000000  0.5156930000000  0.4944370000000 1.0
C      1  0.5771670000000  0.4843070000000  0.4944370000000 1.0
C      1  0.5771670000000  0.5156930000000  0.5055630000000 1.0
C      1  0.4843070000000  0.4228330000000  0.5055630000000 1.0
C      1  0.5055630000000  0.4843070000000  0.4228330000000 1.0
C      1  0.4228330000000  0.5055630000000  0.4843070000000 1.0
C      1  0.4843070000000  0.5771670000000  0.4944370000000 1.0
C      1  0.5156930000000  0.5771670000000  0.5055630000000 1.0
C      1  0.5156930000000  0.4228330000000  0.4944370000000 1.0
C      1  0.5055630000000  0.5156930000000  0.5771670000000 1.0
C      1  0.4944370000000  0.5156930000000  0.4228330000000 1.0
C      1  0.4944370000000  0.4843070000000  0.5771670000000 1.0
C      1  0.4228330000000  0.4944370000000  0.5156930000000 1.0
C      1  0.5771670000000  0.4944370000000  0.4843070000000 1.0
C      1  0.5771670000000  0.5055630000000  0.5156930000000 1.0
C      1  0.5402630000000  0.4826340000000  0.5647720000000 1.0
C      1  0.4826340000000  0.5647720000000  0.5402630000000 1.0
C      1  0.5647720000000  0.5402630000000  0.4826340000000 1.0
C      1  0.5402630000000  0.5173660000000  0.4352280000000 1.0
C      1  0.4597370000000  0.4826340000000  0.4352280000000 1.0
C      1  0.4597370000000  0.5173660000000  0.5647720000000 1.0
C      1  0.4826340000000  0.4352280000000  0.4597370000000 1.0
C      1  0.5173660000000  0.5647720000000  0.4597370000000 1.0
C      1  0.5173660000000  0.4352280000000  0.5402630000000 1.0
C      1  0.5647720000000  0.4597370000000  0.5173660000000 1.0
C      1  0.4352280000000  0.5402630000000  0.5173660000000 1.0
C      1  0.4352280000000  0.4597370000000  0.4826340000000 1.0
C      1  0.5402630000000  0.5647720000000  0.4826340000000 1.0
C      1  0.4826340000000  0.5402630000000  0.5647720000000 1.0
C      1  0.5647720000000  0.4826340000000  0.5402630000000 1.0
C      1  0.5402630000000  0.4352280000000  0.5173660000000 1.0
C      1  0.4597370000000  0.4352280000000  0.4826340000000 1.0
C      1  0.4597370000000  0.5647720000000  0.5173660000000 1.0
C      1  0.4826340000000  0.4597370000000  0.4352280000000 1.0
C      1  0.5173660000000  0.4597370000000  0.5647720000000 1.0
C      1  0.5173660000000  0.5402630000000  0.4352280000000 1.0
C      1  0.5647720000000  0.5173660000000  0.4597370000000 1.0
C      1  0.4352280000000  0.5173660000000  0.5402630000000 1.0
C      1  0.4352280000000  0.4826340000000  0.4597370000000 1.0
C      1  0.5552770000000  0.5365740000000  0.5009420000000 1.0
C      1  0.5365740000000  0.5009420000000  0.5552770000000 1.0
C      1  0.5009420000000  0.5552770000000  0.5365740000000 1.0
C      1  0.5552770000000  0.4634260000000  0.4990580000000 1.0
C      1  0.4447230000000  0.5365740000000  0.4990580000000 1.0
C      1  0.4447230000000  0.4634260000000  0.5009420000000 1.0
C      1  0.5365740000000  0.4990580000000  0.4447230000000 1.0
C      1  0.4634260000000  0.5009420000000  0.4447230000000 1.0
C      1  0.4634260000000  0.4990580000000  0.5552770000000 1.0
C      1  0.5009420000000  0.4447230000000  0.4634260000000 1.0
C      1  0.4990580000000  0.5552770000000  0.4634260000000 1.0
C      1  0.4990580000000  0.4447230000000  0.5365740000000 1.0
C      1  0.5552770000000  0.5009420000000  0.5365740000000 1.0
C      1  0.5365740000000  0.5552770000000  0.5009420000000 1.0
C      1  0.5009420000000  0.5365740000000  0.5552770000000 1.0
C      1  0.5552770000000  0.4990580000000  0.4634260000000 1.0
C      1  0.4447230000000  0.4990580000000  0.5365740000000 1.0
C      1  0.4447230000000  0.5009420000000  0.4634260000000 1.0
C      1  0.5365740000000  0.4447230000000  0.4990580000000 1.0
C      1  0.4634260000000  0.4447230000000  0.5009420000000 1.0
C      1  0.4634260000000  0.5552770000000  0.4990580000000 1.0
C      1  0.5009420000000  0.4634260000000  0.4447230000000 1.0
C      1  0.4990580000000  0.4634260000000  0.5552770000000 1.0
C      1  0.4990580000000  0.5365740000000  0.4447230000000 1.0
C      1  0.5309830000000  0.5413310000000  0.4340720000000 1.0
C      1  0.5413310000000  0.4340720000000  0.5309830000000 1.0
C      1  0.4340720000000  0.5309830000000  0.5413310000000 1.0
C      1  0.5309830000000  0.4586690000000  0.5659280000000 1.0
C      1  0.4690170000000  0.5413310000000  0.5659280000000 1.0
C      1  0.4690170000000  0.4586690000000  0.4340720000000 1.0
C      1  0.5413310000000  0.5659280000000  0.4690170000000 1.0
C      1  0.4586690000000  0.4340720000000  0.4690170000000 1.0
C      1  0.4586690000000  0.5659280000000  0.5309830000000 1.0
C      1  0.4340720000000  0.4690170000000  0.4586690000000 1.0
C      1  0.5659280000000  0.5309830000000  0.4586690000000 1.0
C      1  0.5659280000000  0.4690170000000  0.5413310000000 1.0
C      1  0.5309830000000  0.4340720000000  0.5413310000000 1.0
C      1  0.5413310000000  0.5309830000000  0.4340720000000 1.0
C      1  0.4340720000000  0.5413310000000  0.5309830000000 1.0
C      1  0.5309830000000  0.5659280000000  0.4586690000000 1.0
C      1  0.4690170000000  0.5659280000000  0.5413310000000 1.0
C      1  0.4690170000000  0.4340720000000  0.4586690000000 1.0
C      1  0.5413310000000  0.4690170000000  0.5659280000000 1.0
C      1  0.4586690000000  0.4690170000000  0.4340720000000 1.0
C      1  0.4586690000000  0.5309830000000  0.5659280000000 1.0
C      1  0.4340720000000  0.4586690000000  0.4690170000000 1.0
C      1  0.5659280000000  0.4586690000000  0.5309830000000 1.0
C      1  0.5659280000000  0.5413310000000  0.4690170000000 1.0
C      1  0.4410330000000  0.5246550000000  0.4631370000000 1.0
C      1  0.5246550000000  0.4631370000000  0.4410330000000 1.0
C      1  0.4631370000000  0.4410330000000  0.5246550000000 1.0
C      1  0.4410330000000  0.4753450000000  0.5368630000000 1.0
C      1  0.5589670000000  0.5246550000000  0.5368630000000 1.0
C      1  0.5589670000000  0.4753450000000  0.4631370000000 1.0
C      1  0.5246550000000  0.5368630000000  0.5589670000000 1.0
C      1  0.4753450000000  0.4631370000000  0.5589670000000 1.0
C      1  0.4753450000000  0.5368630000000  0.4410330000000 1.0
C      1  0.4631370000000  0.5589670000000  0.4753450000000 1.0
C      1  0.5368630000000  0.4410330000000  0.4753450000000 1.0
C      1  0.5368630000000  0.5589670000000  0.5246550000000 1.0
C      1  0.4410330000000  0.4631370000000  0.5246550000000 1.0
C      1  0.5246550000000  0.4410330000000  0.4631370000000 1.0
C      1  0.4631370000000  0.5246550000000  0.4410330000000 1.0
C      1  0.4410330000000  0.5368630000000  0.4753450000000 1.0
C      1  0.5589670000000  0.5368630000000  0.5246550000000 1.0
C      1  0.5589670000000  0.4631370000000  0.4753450000000 1.0
C      1  0.5246550000000  0.5589670000000  0.5368630000000 1.0
C      1  0.4753450000000  0.5589670000000  0.4631370000000 1.0
C      1  0.4753450000000  0.4410330000000  0.5368630000000 1.0
C      1  0.4631370000000  0.4753450000000  0.5589670000000 1.0
C      1  0.5368630000000  0.4753450000000  0.4410330000000 1.0
C      1  0.5368630000000  0.5246550000000  0.5589670000000 1.0
C      1  0.4293030000000  0.4830970000000  0.4930090000000 1.0
C      1  0.4830970000000  0.4930090000000  0.4293030000000 1.0
C      1  0.4930090000000  0.4293030000000  0.4830970000000 1.0
C      1  0.4293030000000  0.5169030000000  0.5069910000000 1.0
C      1  0.5706970000000  0.4830970000000  0.5069910000000 1.0
C      1  0.5706970000000  0.5169030000000  0.4930090000000 1.0
C      1  0.4830970000000  0.5069910000000  0.5706970000000 1.0
C      1  0.5169030000000  0.4930090000000  0.5706970000000 1.0
C      1  0.5169030000000  0.5069910000000  0.4293030000000 1.0
C      1  0.4930090000000  0.5706970000000  0.5169030000000 1.0
C      1  0.5069910000000  0.4293030000000  0.5169030000000 1.0
C      1  0.5069910000000  0.5706970000000  0.4830970000000 1.0
C      1  0.4293030000000  0.4930090000000  0.4830970000000 1.0
C      1  0.4830970000000  0.4293030000000  0.4930090000000 1.0
C      1  0.4930090000000  0.4830970000000  0.4293030000000 1.0
C      1  0.4293030000000  0.5069910000000  0.5169030000000 1.0
C      1  0.5706970000000  0.5069910000000  0.4830970000000 1.0
C      1  0.5706970000000  0.4930090000000  0.5169030000000 1.0
C      1  0.4830970000000  0.5706970000000  0.5069910000000 1.0
C      1  0.5169030000000  0.5706970000000  0.4930090000000 1.0
C      1  0.5169030000000  0.4293030000000  0.5069910000000 1.0
C      1  0.4930090000000  0.5169030000000  0.5706970000000 1.0
C      1  0.5069910000000  0.5169030000000  0.4293030000000 1.0
C      1  0.5069910000000  0.4830970000000  0.5706970000000 1.0
C      1  0.5259720000000  0.4841550000000  0.4206370000000 1.0
C      1  0.4841550000000  0.4206370000000  0.5259720000000 1.0
C      1  0.4206370000000  0.5259720000000  0.4841550000000 1.0
C      1  0.5259720000000  0.5158450000000  0.5793630000000 1.0
C      1  0.4740280000000  0.4841550000000  0.5793630000000 1.0
C      1  0.4740280000000  0.5158450000000  0.4206370000000 1.0
C      1  0.4841550000000  0.5793630000000  0.4740280000000 1.0
C      1  0.5158450000000  0.4206370000000  0.4740280000000 1.0
C      1  0.5158450000000  0.5793630000000  0.5259720000000 1.0
C      1  0.4206370000000  0.4740280000000  0.5158450000000 1.0
C      1  0.5793630000000  0.5259720000000  0.5158450000000 1.0
C      1  0.5793630000000  0.4740280000000  0.4841550000000 1.0
C      1  0.5259720000000  0.4206370000000  0.4841550000000 1.0
C      1  0.4841550000000  0.5259720000000  0.4206370000000 1.0
C      1  0.4206370000000  0.4841550000000  0.5259720000000 1.0
C      1  0.5259720000000  0.5793630000000  0.5158450000000 1.0
C      1  0.4740280000000  0.5793630000000  0.4841550000000 1.0
C      1  0.4740280000000  0.4206370000000  0.5158450000000 1.0
C      1  0.4841550000000  0.4740280000000  0.5793630000000 1.0
C      1  0.5158450000000  0.4740280000000  0.4206370000000 1.0
C      1  0.5158450000000  0.5259720000000  0.5793630000000 1.0
C      1  0.4206370000000  0.5158450000000  0.4740280000000 1.0
C      1  0.5793630000000  0.5158450000000  0.5259720000000 1.0
C      1  0.5793630000000  0.4841550000000  0.4740280000000 1.0
C      1  0.5738770000000  0.5183020000000  0.5385090000000 1.0
C      1  0.5183020000000  0.5385090000000  0.5738770000000 1.0
C      1  0.5385090000000  0.5738770000000  0.5183020000000 1.0
C      1  0.5738770000000  0.4816980000000  0.4614910000000 1.0
C      1  0.4261230000000  0.5183020000000  0.4614910000000 1.0
C      1  0.4261230000000  0.4816980000000  0.5385090000000 1.0
C      1  0.5183020000000  0.4614910000000  0.4261230000000 1.0
C      1  0.4816980000000  0.5385090000000  0.4261230000000 1.0
C      1  0.4816980000000  0.4614910000000  0.5738770000000 1.0
C      1  0.5385090000000  0.4261230000000  0.4816980000000 1.0
C      1  0.4614910000000  0.5738770000000  0.4816980000000 1.0
C      1  0.4614910000000  0.4261230000000  0.5183020000000 1.0
C      1  0.5738770000000  0.5385090000000  0.5183020000000 1.0
C      1  0.5183020000000  0.5738770000000  0.5385090000000 1.0
C      1  0.5385090000000  0.5183020000000  0.5738770000000 1.0
C      1  0.5738770000000  0.4614910000000  0.4816980000000 1.0
C      1  0.4261230000000  0.4614910000000  0.5183020000000 1.0
C      1  0.4261230000000  0.5385090000000  0.4816980000000 1.0
C      1  0.5183020000000  0.4261230000000  0.4614910000000 1.0
C      1  0.4816980000000  0.4261230000000  0.5385090000000 1.0
C      1  0.4816980000000  0.5738770000000  0.4614910000000 1.0
C      1  0.5385090000000  0.4816980000000  0.4261230000000 1.0
C      1  0.4614910000000  0.4816980000000  0.5738770000000 1.0
C      1  0.4614910000000  0.5183020000000  0.4261230000000 1.0
C      1  0.5559130000000  0.5461470000000  0.5362820000000 1.0
C      1  0.5461470000000  0.5362820000000  0.5559130000000 1.0
C      1  0.5362820000000  0.5559130000000  0.5461470000000 1.0
C      1  0.5559130000000  0.4538530000000  0.4637180000000 1.0
C      1  0.4440870000000  0.5461470000000  0.4637180000000 1.0
C      1  0.4440870000000  0.4538530000000  0.5362820000000 1.0
C      1  0.5461470000000  0.4637180000000  0.4440870000000 1.0
C      1  0.4538530000000  0.5362820000000  0.4440870000000 1.0
C      1  0.4538530000000  0.4637180000000  0.5559130000000 1.0
C      1  0.5362820000000  0.4440870000000  0.4538530000000 1.0
C      1  0.4637180000000  0.5559130000000  0.4538530000000 1.0
C      1  0.4637180000000  0.4440870000000  0.5461470000000 1.0
C      1  0.5559130000000  0.5362820000000  0.5461470000000 1.0
C      1  0.5461470000000  0.5559130000000  0.5362820000000 1.0
C      1  0.5362820000000  0.5461470000000  0.5559130000000 1.0
C      1  0.5559130000000  0.4637180000000  0.4538530000000 1.0
C      1  0.4440870000000  0.4637180000000  0.5461470000000 1.0
C      1  0.4440870000000  0.5362820000000  0.4538530000000 1.0
C      1  0.5461470000000  0.4440870000000  0.4637180000000 1.0
C      1  0.4538530000000  0.4440870000000  0.5362820000000 1.0
C      1  0.4538530000000  0.5559130000000  0.4637180000000 1.0
C      1  0.5362820000000  0.4538530000000  0.4440870000000 1.0
C      1  0.4637180000000  0.4538530000000  0.5559130000000 1.0
C      1  0.4637180000000  0.5461470000000  0.4440870000000 1.0
C      1  0.4401760000000  0.5495500000000  0.5070110000000 1.0
C      1  0.5495500000000  0.5070110000000  0.4401760000000 1.0
C      1  0.5070110000000  0.4401760000000  0.5495500000000 1.0
C      1  0.4401760000000  0.4504500000000  0.4929890000000 1.0
C      1  0.5598240000000  0.5495500000000  0.4929890000000 1.0
C      1  0.5598240000000  0.4504500000000  0.5070110000000 1.0
C      1  0.5495500000000  0.4929890000000  0.5598240000000 1.0
C      1  0.4504500000000  0.5070110000000  0.5598240000000 1.0
C      1  0.4504500000000  0.4929890000000  0.4401760000000 1.0
C      1  0.5070110000000  0.5598240000000  0.4504500000000 1.0
C      1  0.4929890000000  0.4401760000000  0.4504500000000 1.0
C      1  0.4929890000000  0.5598240000000  0.5495500000000 1.0
C      1  0.4401760000000  0.5070110000000  0.5495500000000 1.0
C      1  0.5495500000000  0.4401760000000  0.5070110000000 1.0
C      1  0.5070110000000  0.5495500000000  0.4401760000000 1.0
C      1  0.4401760000000  0.4929890000000  0.4504500000000 1.0
C      1  0.5598240000000  0.4929890000000  0.5495500000000 1.0
C      1  0.5598240000000  0.5070110000000  0.4504500000000 1.0
C      1  0.5495500000000  0.5598240000000  0.4929890000000 1.0
C      1  0.4504500000000  0.5598240000000  0.5070110000000 1.0
C      1  0.4504500000000  0.4401760000000  0.4929890000000 1.0
C      1  0.5070110000000  0.4504500000000  0.5598240000000 1.0
C      1  0.4929890000000  0.4504500000000  0.4401760000000 1.0
C      1  0.4929890000000  0.5495500000000  0.5598240000000 1.0
END
