TITL C-1379265-1223-182 6.3726870550118e-07 1000000 -3431.42592639969 0 0 500 (Th) n - 1
REM
REM in /nfs/bkarasulu/CARBON/AIRSS/Generating-Clusters/GAP-ML-2020/Higher-Symm/Selected-Sizes/TryA-Only_Ih-Symm/Larger-Clusters/Try2-MINAMP_6A
REM
REM
REM
REM
REM
REM ./C.cell (31579ac4e95a012ec27f3239692ae8a5)
REM
REM compiler GCC version 9.2.1 20190827 (Red Hat 9.2.1-1)
REM options -cpp -mtune=generic -march=x86-64 -g -O0 -fpre-include=/usr/include/finclude/math-vector-fortran.h
REM seed -738777479 -2022021161 445881726 1274801664 -585757426 -832734707 2079277801 463048653 1133902729 -495429239 1791514179 -736011285 775434825 581180826 -867816600 108998839 -534574910 -2087443573 -937911026 1809053821 -1138767642 1981179916 -708467831 548501355 -2019794075 1888806971 267403488 -322273368 -1937043571 -1556393452 1285263151 -837052286 -1409352538
REM
CELL 1.54180  100.00000  100.00000  100.00000   90.00000   90.00000   90.00000
LATT -1
SFAC C  
C      1  0.5825270000000  0.5303290000000  0.5187010000000 1.0
C      1  0.5188550000000  0.5825320000000  0.5301740000000 1.0
C      1  0.5303270000000  0.5188570000000  0.5823750000000 1.0
C      1  0.5825270000000  0.4699780000000  0.4812950000000 1.0
C      1  0.4177760000000  0.4699780000000  0.5187010000000 1.0
C      1  0.4177760000000  0.5303290000000  0.4812950000000 1.0
C      1  0.5188550000000  0.4177760000000  0.4698220000000 1.0
C      1  0.4814490000000  0.4177760000000  0.5301740000000 1.0
C      1  0.4814480000000  0.5825310000000  0.4698220000000 1.0
C      1  0.5303270000000  0.4814510000000  0.4176210000000 1.0
C      1  0.4699760000000  0.4814500000000  0.5823750000000 1.0
C      1  0.4699760000000  0.5188570000000  0.4176210000000 1.0
C      1  0.4177760000000  0.5303290000000  0.5187010000000 1.0
C      1  0.4814480000000  0.5825320000000  0.5301740000000 1.0
C      1  0.4699760000000  0.5188570000000  0.5823750000000 1.0
C      1  0.4177760000000  0.4699780000000  0.4812950000000 1.0
C      1  0.5825270000000  0.4699780000000  0.5187010000000 1.0
C      1  0.5825270000000  0.5303290000000  0.4812950000000 1.0
C      1  0.4814490000000  0.4177760000000  0.4698220000000 1.0
C      1  0.5188550000000  0.4177760000000  0.5301740000000 1.0
C      1  0.5188550000000  0.5825310000000  0.4698220000000 1.0
C      1  0.4699760000000  0.4814510000000  0.4176210000000 1.0
C      1  0.5303270000000  0.4814500000000  0.5823750000000 1.0
C      1  0.5303270000000  0.5188570000000  0.4176210000000 1.0
C      1  0.4322940000000  0.5526640000000  0.4883140000000 1.0
C      1  0.4884680000000  0.4322940000000  0.5525090000000 1.0
C      1  0.5526620000000  0.4884700000000  0.4321400000000 1.0
C      1  0.4322940000000  0.4476430000000  0.5116820000000 1.0
C      1  0.5680090000000  0.4476430000000  0.4883140000000 1.0
C      1  0.5680090000000  0.5526640000000  0.5116820000000 1.0
C      1  0.4884680000000  0.5680130000000  0.4474870000000 1.0
C      1  0.5118350000000  0.5680130000000  0.5525090000000 1.0
C      1  0.5118350000000  0.4322950000000  0.4474860000000 1.0
C      1  0.5526610000000  0.5118370000000  0.5678560000000 1.0
C      1  0.4476420000000  0.5118370000000  0.4321400000000 1.0
C      1  0.4476420000000  0.4884700000000  0.5678560000000 1.0
C      1  0.5680090000000  0.5526640000000  0.4883140000000 1.0
C      1  0.5118350000000  0.4322940000000  0.5525090000000 1.0
C      1  0.4476420000000  0.4884700000000  0.4321400000000 1.0
C      1  0.5680090000000  0.4476430000000  0.5116820000000 1.0
C      1  0.4322940000000  0.4476430000000  0.4883140000000 1.0
C      1  0.4322940000000  0.5526640000000  0.5116820000000 1.0
C      1  0.5118350000000  0.5680130000000  0.4474870000000 1.0
C      1  0.4884680000000  0.5680130000000  0.5525090000000 1.0
C      1  0.4884680000000  0.4322950000000  0.4474860000000 1.0
C      1  0.4476420000000  0.5118370000000  0.5678560000000 1.0
C      1  0.5526620000000  0.5118370000000  0.4321400000000 1.0
C      1  0.5526610000000  0.4884700000000  0.5678560000000 1.0
C      1  0.5444950000000  0.4420680000000  0.4632230000000 1.0
C      1  0.4633770000000  0.5444980000000  0.4419120000000 1.0
C      1  0.4420670000000  0.4633790000000  0.5443410000000 1.0
C      1  0.5444950000000  0.5582400000000  0.5367730000000 1.0
C      1  0.4558080000000  0.5582390000000  0.4632230000000 1.0
C      1  0.4558080000000  0.4420680000000  0.5367730000000 1.0
C      1  0.4633770000000  0.4558090000000  0.5580840000000 1.0
C      1  0.5369260000000  0.4558100000000  0.4419120000000 1.0
C      1  0.5369260000000  0.5444980000000  0.5580840000000 1.0
C      1  0.4420670000000  0.5369290000000  0.4556540000000 1.0
C      1  0.5582360000000  0.5369290000000  0.5443410000000 1.0
C      1  0.5582360000000  0.4633790000000  0.4556540000000 1.0
C      1  0.4558080000000  0.4420680000000  0.4632230000000 1.0
C      1  0.5369260000000  0.5444980000000  0.4419120000000 1.0
C      1  0.5582360000000  0.4633790000000  0.5443410000000 1.0
C      1  0.4558080000000  0.5582390000000  0.5367730000000 1.0
C      1  0.5444950000000  0.5582390000000  0.4632230000000 1.0
C      1  0.5444950000000  0.4420680000000  0.5367730000000 1.0
C      1  0.5369260000000  0.4558090000000  0.5580840000000 1.0
C      1  0.4633770000000  0.4558100000000  0.4419120000000 1.0
C      1  0.4633770000000  0.5444980000000  0.5580840000000 1.0
C      1  0.5582360000000  0.5369290000000  0.4556540000000 1.0
C      1  0.4420670000000  0.5369290000000  0.5443410000000 1.0
C      1  0.4420670000000  0.4633790000000  0.4556540000000 1.0
C      1  0.5183730000000  0.4201760000000  0.4835950000000 1.0
C      1  0.4837490000000  0.5183760000000  0.4200210000000 1.0
C      1  0.4201770000000  0.4837510000000  0.5182190000000 1.0
C      1  0.5183730000000  0.5801310000000  0.5164000000000 1.0
C      1  0.4819300000000  0.5801310000000  0.4835950000000 1.0
C      1  0.4819300000000  0.4201760000000  0.5164000000000 1.0
C      1  0.4837500000000  0.4819310000000  0.5799750000000 1.0
C      1  0.5165540000000  0.4819320000000  0.4200210000000 1.0
C      1  0.5165540000000  0.5183760000000  0.5799750000000 1.0
C      1  0.4201770000000  0.5165560000000  0.4817770000000 1.0
C      1  0.5801260000000  0.5165560000000  0.5182190000000 1.0
C      1  0.5801260000000  0.4837510000000  0.4817770000000 1.0
C      1  0.4819300000000  0.4201760000000  0.4835950000000 1.0
C      1  0.5165540000000  0.5183760000000  0.4200210000000 1.0
C      1  0.5801260000000  0.4837510000000  0.5182190000000 1.0
C      1  0.4819300000000  0.5801310000000  0.5164000000000 1.0
C      1  0.5183730000000  0.5801310000000  0.4835950000000 1.0
C      1  0.5183730000000  0.4201760000000  0.5164000000000 1.0
C      1  0.5165540000000  0.4819310000000  0.5799750000000 1.0
C      1  0.4837490000000  0.4819320000000  0.4200210000000 1.0
C      1  0.4837500000000  0.5183760000000  0.5799750000000 1.0
C      1  0.5801270000000  0.5165560000000  0.4817770000000 1.0
C      1  0.4201770000000  0.5165560000000  0.5182190000000 1.0
C      1  0.4201770000000  0.4837510000000  0.4817770000000 1.0
C      1  0.5365950000000  0.5574770000000  0.4496520000000 1.0
C      1  0.4498060000000  0.5365970000000  0.5573210000000 1.0
C      1  0.5574740000000  0.4498080000000  0.5364410000000 1.0
C      1  0.5365950000000  0.4428300000000  0.5503440000000 1.0
C      1  0.4637080000000  0.4428300000000  0.4496520000000 1.0
C      1  0.4637080000000  0.5574770000000  0.5503440000000 1.0
C      1  0.4498060000000  0.4637100000000  0.4426750000000 1.0
C      1  0.5504970000000  0.4637100000000  0.5573210000000 1.0
C      1  0.5504970000000  0.5365970000000  0.4426750000000 1.0
C      1  0.5574740000000  0.5505000000000  0.4635550000000 1.0
C      1  0.4428290000000  0.5505000000000  0.5364410000000 1.0
C      1  0.4428290000000  0.4498080000000  0.4635550000000 1.0
C      1  0.4637080000000  0.5574770000000  0.4496520000000 1.0
C      1  0.5504970000000  0.5365970000000  0.5573210000000 1.0
C      1  0.4428290000000  0.4498080000000  0.5364410000000 1.0
C      1  0.4637090000000  0.4428300000000  0.5503440000000 1.0
C      1  0.5365950000000  0.4428300000000  0.4496520000000 1.0
C      1  0.5365950000000  0.5574770000000  0.5503440000000 1.0
C      1  0.5504970000000  0.4637100000000  0.4426750000000 1.0
C      1  0.4498060000000  0.4637100000000  0.5573210000000 1.0
C      1  0.4498060000000  0.5365970000000  0.4426750000000 1.0
C      1  0.4428290000000  0.5505000000000  0.4635550000000 1.0
C      1  0.5574740000000  0.5505000000000  0.5364410000000 1.0
C      1  0.5574740000000  0.4498080000000  0.4635550000000 1.0
C      1  0.5635620000000  0.5456890000000  0.4761270000000 1.0
C      1  0.4762800000000  0.5635670000000  0.5455340000000 1.0
C      1  0.5456860000000  0.4762820000000  0.5634100000000 1.0
C      1  0.5635620000000  0.4546180000000  0.5238690000000 1.0
C      1  0.4367410000000  0.4546180000000  0.4761270000000 1.0
C      1  0.4367410000000  0.5456890000000  0.5238690000000 1.0
C      1  0.4762800000000  0.4367410000000  0.4544620000000 1.0
C      1  0.5240230000000  0.4367410000000  0.5455340000000 1.0
C      1  0.5240230000000  0.5635660000000  0.4544620000000 1.0
C      1  0.5456860000000  0.5240250000000  0.4365860000000 1.0
C      1  0.4546170000000  0.5240250000000  0.5634100000000 1.0
C      1  0.4546170000000  0.4762820000000  0.4365860000000 1.0
C      1  0.4367410000000  0.5456890000000  0.4761270000000 1.0
C      1  0.5240230000000  0.5635670000000  0.5455340000000 1.0
C      1  0.4546170000000  0.4762820000000  0.5634100000000 1.0
C      1  0.4367410000000  0.4546180000000  0.5238690000000 1.0
C      1  0.5635620000000  0.4546180000000  0.4761270000000 1.0
C      1  0.5635620000000  0.5456890000000  0.5238690000000 1.0
C      1  0.5240230000000  0.4367410000000  0.4544620000000 1.0
C      1  0.4762800000000  0.4367410000000  0.5455340000000 1.0
C      1  0.4762800000000  0.5635660000000  0.4544620000000 1.0
C      1  0.4546170000000  0.5240250000000  0.4365860000000 1.0
C      1  0.5456860000000  0.5240250000000  0.5634100000000 1.0
C      1  0.5456860000000  0.4762820000000  0.4365860000000 1.0
C      1  0.5217390000000  0.4427320000000  0.5069420000000 1.0
C      1  0.5070960000000  0.5217420000000  0.4425760000000 1.0
C      1  0.4427330000000  0.5070980000000  0.5215860000000 1.0
C      1  0.5217390000000  0.5575760000000  0.4930540000000 1.0
C      1  0.4785640000000  0.5575760000000  0.5069420000000 1.0
C      1  0.4785640000000  0.4427320000000  0.4930540000000 1.0
C      1  0.5070960000000  0.4785650000000  0.5574200000000 1.0
C      1  0.4932070000000  0.4785650000000  0.4425760000000 1.0
C      1  0.4932070000000  0.5217430000000  0.5574200000000 1.0
C      1  0.4427320000000  0.4932100000000  0.4784100000000 1.0
C      1  0.5575700000000  0.4932100000000  0.5215860000000 1.0
C      1  0.5575710000000  0.5070980000000  0.4784100000000 1.0
C      1  0.4785640000000  0.4427320000000  0.5069420000000 1.0
C      1  0.4932070000000  0.5217420000000  0.4425760000000 1.0
C      1  0.5575700000000  0.5070980000000  0.5215860000000 1.0
C      1  0.4785640000000  0.5575750000000  0.4930540000000 1.0
C      1  0.5217390000000  0.5575760000000  0.5069420000000 1.0
C      1  0.5217390000000  0.4427320000000  0.4930540000000 1.0
C      1  0.4932070000000  0.4785650000000  0.5574200000000 1.0
C      1  0.5070960000000  0.4785650000000  0.4425760000000 1.0
C      1  0.5070960000000  0.5217430000000  0.5574200000000 1.0
C      1  0.5575710000000  0.4932100000000  0.4784100000000 1.0
C      1  0.4427330000000  0.4932100000000  0.5215860000000 1.0
C      1  0.4427320000000  0.5070980000000  0.4784100000000 1.0
C      1  0.5074990000000  0.4427780000000  0.4739000000000 1.0
C      1  0.4740540000000  0.5075010000000  0.4426230000000 1.0
C      1  0.4427790000000  0.4740560000000  0.5073450000000 1.0
C      1  0.5074990000000  0.5575300000000  0.5260960000000 1.0
C      1  0.4928040000000  0.5575290000000  0.4739000000000 1.0
C      1  0.4928040000000  0.4427780000000  0.5260960000000 1.0
C      1  0.4740550000000  0.4928060000000  0.5573730000000 1.0
C      1  0.5262490000000  0.4928060000000  0.4426230000000 1.0
C      1  0.5262490000000  0.5075010000000  0.5573730000000 1.0
C      1  0.4427790000000  0.5262510000000  0.4926510000000 1.0
C      1  0.5575240000000  0.5262510000000  0.5073450000000 1.0
C      1  0.5575240000000  0.4740560000000  0.4926510000000 1.0
C      1  0.4928040000000  0.4427780000000  0.4739000000000 1.0
C      1  0.5262490000000  0.5075010000000  0.4426230000000 1.0
C      1  0.5575240000000  0.4740560000000  0.5073450000000 1.0
C      1  0.4928040000000  0.5575300000000  0.5260960000000 1.0
C      1  0.5074990000000  0.5575290000000  0.4739000000000 1.0
C      1  0.5074990000000  0.4427780000000  0.5260960000000 1.0
C      1  0.5262490000000  0.4928060000000  0.5573730000000 1.0
C      1  0.4740540000000  0.4928060000000  0.4426230000000 1.0
C      1  0.4740550000000  0.5075010000000  0.5573730000000 1.0
C      1  0.5575240000000  0.5262510000000  0.4926510000000 1.0
C      1  0.4427790000000  0.5262510000000  0.5073450000000 1.0
C      1  0.4427790000000  0.4740560000000  0.4926510000000 1.0
C      1  0.4597500000000  0.4250020000000  0.5154620000000 1.0
C      1  0.5156160000000  0.4597510000000  0.4248460000000 1.0
C      1  0.4250020000000  0.5156180000000  0.4595960000000 1.0
C      1  0.4597500000000  0.5753050000000  0.4845330000000 1.0
C      1  0.5405530000000  0.5753050000000  0.5154620000000 1.0
C      1  0.5405530000000  0.4250020000000  0.4845330000000 1.0
C      1  0.5156160000000  0.5405570000000  0.5751500000000 1.0
C      1  0.4846870000000  0.5405570000000  0.4248460000000 1.0
C      1  0.4846870000000  0.4597500000000  0.5751500000000 1.0
C      1  0.4250020000000  0.4846890000000  0.5404000000000 1.0
C      1  0.5753010000000  0.4846890000000  0.4595960000000 1.0
C      1  0.5753010000000  0.5156180000000  0.5404000000000 1.0
C      1  0.5405530000000  0.4250020000000  0.5154620000000 1.0
C      1  0.4846870000000  0.4597510000000  0.4248460000000 1.0
C      1  0.5753010000000  0.5156180000000  0.4595960000000 1.0
C      1  0.5405530000000  0.5753050000000  0.4845330000000 1.0
C      1  0.4597500000000  0.5753050000000  0.5154620000000 1.0
C      1  0.4597500000000  0.4250020000000  0.4845330000000 1.0
C      1  0.4846870000000  0.5405570000000  0.5751500000000 1.0
C      1  0.5156160000000  0.5405570000000  0.4248460000000 1.0
C      1  0.5156160000000  0.4597500000000  0.5751500000000 1.0
C      1  0.5753010000000  0.4846890000000  0.5404000000000 1.0
C      1  0.4250020000000  0.4846890000000  0.4595960000000 1.0
C      1  0.4250020000000  0.5156180000000  0.5404000000000 1.0
C      1  0.5746320000000  0.4635990000000  0.4720770000000 1.0
C      1  0.4722310000000  0.5746360000000  0.4634420000000 1.0
C      1  0.4635970000000  0.4722320000000  0.5744800000000 1.0
C      1  0.5746320000000  0.5367090000000  0.5279190000000 1.0
C      1  0.4256710000000  0.5367090000000  0.4720770000000 1.0
C      1  0.4256710000000  0.4635990000000  0.5279190000000 1.0
C      1  0.4722310000000  0.4256710000000  0.5365530000000 1.0
C      1  0.5280720000000  0.4256710000000  0.4634420000000 1.0
C      1  0.5280720000000  0.5746370000000  0.5365530000000 1.0
C      1  0.4635970000000  0.5280750000000  0.4255160000000 1.0
C      1  0.5367060000000  0.5280750000000  0.5744800000000 1.0
C      1  0.5367060000000  0.4722330000000  0.4255160000000 1.0
C      1  0.4256710000000  0.4635990000000  0.4720770000000 1.0
C      1  0.5280720000000  0.5746360000000  0.4634420000000 1.0
C      1  0.5367060000000  0.4722320000000  0.5744800000000 1.0
C      1  0.4256710000000  0.5367090000000  0.5279190000000 1.0
C      1  0.5746320000000  0.5367090000000  0.4720770000000 1.0
C      1  0.5746320000000  0.4635990000000  0.5279190000000 1.0
C      1  0.5280720000000  0.4256710000000  0.5365530000000 1.0
C      1  0.4722310000000  0.4256710000000  0.4634420000000 1.0
C      1  0.4722310000000  0.5746370000000  0.5365530000000 1.0
C      1  0.5367060000000  0.5280750000000  0.4255160000000 1.0
C      1  0.4635970000000  0.5280750000000  0.5744800000000 1.0
C      1  0.4635970000000  0.4722330000000  0.4255160000000 1.0
C      1  0.4813180000000  0.4729150000000  0.4706010000000 1.0
C      1  0.4707560000000  0.4813180000000  0.4727600000000 1.0
C      1  0.4729150000000  0.4707560000000  0.4811630000000 1.0
C      1  0.4813180000000  0.5273930000000  0.5293950000000 1.0
C      1  0.5189850000000  0.5273930000000  0.4706010000000 1.0
C      1  0.5189850000000  0.4729140000000  0.5293950000000 1.0
C      1  0.4707570000000  0.5189890000000  0.5272360000000 1.0
C      1  0.5295470000000  0.5189890000000  0.4727600000000 1.0
C      1  0.5295460000000  0.4813180000000  0.5272360000000 1.0
C      1  0.4729150000000  0.5295510000000  0.5188330000000 1.0
C      1  0.5273880000000  0.5295510000000  0.4811630000000 1.0
C      1  0.5273880000000  0.4707560000000  0.5188330000000 1.0
C      1  0.5189850000000  0.4729150000000  0.4706010000000 1.0
C      1  0.5295470000000  0.4813180000000  0.4727600000000 1.0
C      1  0.5273880000000  0.4707560000000  0.4811630000000 1.0
C      1  0.5189850000000  0.5273930000000  0.5293950000000 1.0
C      1  0.4813180000000  0.5273930000000  0.4706010000000 1.0
C      1  0.4813180000000  0.4729140000000  0.5293950000000 1.0
C      1  0.5295460000000  0.5189890000000  0.5272360000000 1.0
C      1  0.4707560000000  0.5189890000000  0.4727600000000 1.0
C      1  0.4707570000000  0.4813180000000  0.5272360000000 1.0
C      1  0.5273880000000  0.5295510000000  0.5188330000000 1.0
C      1  0.4729150000000  0.5295510000000  0.4811630000000 1.0
C      1  0.4729150000000  0.4707560000000  0.5188330000000 1.0
C      1  0.5410300000000  0.5168890000000  0.5372540000000 1.0
C      1  0.5374060000000  0.5410350000000  0.5167330000000 1.0
C      1  0.5168860000000  0.5374110000000  0.5408790000000 1.0
C      1  0.5410310000000  0.4834190000000  0.4627420000000 1.0
C      1  0.4592730000000  0.4834190000000  0.5372540000000 1.0
C      1  0.4592730000000  0.5168890000000  0.4627420000000 1.0
C      1  0.5374060000000  0.4592730000000  0.4832630000000 1.0
C      1  0.4628970000000  0.4592730000000  0.5167330000000 1.0
C      1  0.4628970000000  0.5410350000000  0.4832630000000 1.0
C      1  0.5168860000000  0.4628970000000  0.4591170000000 1.0
C      1  0.4834170000000  0.4628960000000  0.5408790000000 1.0
C      1  0.4834170000000  0.5374110000000  0.4591170000000 1.0
C      1  0.4592730000000  0.5168890000000  0.5372540000000 1.0
C      1  0.4628970000000  0.5410350000000  0.5167330000000 1.0
C      1  0.4834170000000  0.5374110000000  0.5408790000000 1.0
C      1  0.4592730000000  0.4834190000000  0.4627420000000 1.0
C      1  0.5410300000000  0.4834190000000  0.5372540000000 1.0
C      1  0.5410310000000  0.5168890000000  0.4627420000000 1.0
C      1  0.4628970000000  0.4592730000000  0.4832630000000 1.0
C      1  0.5374060000000  0.4592730000000  0.5167330000000 1.0
C      1  0.5374060000000  0.5410350000000  0.4832630000000 1.0
C      1  0.4834170000000  0.4628970000000  0.4591170000000 1.0
C      1  0.5168860000000  0.4628960000000  0.5408790000000 1.0
C      1  0.5168860000000  0.5374110000000  0.4591170000000 1.0
C      1  0.4482960000000  0.5077010000000  0.5359390000000 1.0
C      1  0.5360910000000  0.4482950000000  0.5075450000000 1.0
C      1  0.5076990000000  0.5360950000000  0.4481390000000 1.0
C      1  0.4482950000000  0.4926060000000  0.4640570000000 1.0
C      1  0.5520070000000  0.4926060000000  0.5359390000000 1.0
C      1  0.5520080000000  0.5077010000000  0.4640570000000 1.0
C      1  0.5360910000000  0.5520120000000  0.4924510000000 1.0
C      1  0.4642120000000  0.5520120000000  0.5075450000000 1.0
C      1  0.4642120000000  0.4482950000000  0.4924510000000 1.0
C      1  0.5076990000000  0.4642120000000  0.5518570000000 1.0
C      1  0.4926040000000  0.4642120000000  0.4481390000000 1.0
C      1  0.4926040000000  0.5360960000000  0.5518570000000 1.0
C      1  0.5520070000000  0.5077010000000  0.5359390000000 1.0
C      1  0.4642120000000  0.4482950000000  0.5075450000000 1.0
C      1  0.4926040000000  0.5360950000000  0.4481390000000 1.0
C      1  0.5520080000000  0.4926060000000  0.4640570000000 1.0
C      1  0.4482960000000  0.4926060000000  0.5359390000000 1.0
C      1  0.4482950000000  0.5077010000000  0.4640570000000 1.0
C      1  0.4642120000000  0.5520120000000  0.4924510000000 1.0
C      1  0.5360910000000  0.5520120000000  0.5075450000000 1.0
C      1  0.5360910000000  0.4482950000000  0.4924510000000 1.0
C      1  0.4926040000000  0.4642120000000  0.5518570000000 1.0
C      1  0.5076990000000  0.4642120000000  0.4481390000000 1.0
C      1  0.5076990000000  0.5360960000000  0.5518570000000 1.0
C      1  0.4860630000000  0.4351590000000  0.4843420000000 1.0
C      1  0.4844970000000  0.4860650000000  0.4350030000000 1.0
C      1  0.4351590000000  0.4844980000000  0.4859090000000 1.0
C      1  0.4860630000000  0.5651490000000  0.5156530000000 1.0
C      1  0.5142400000000  0.5651490000000  0.4843420000000 1.0
C      1  0.5142400000000  0.4351590000000  0.5156530000000 1.0
C      1  0.4844970000000  0.5142430000000  0.5649930000000 1.0
C      1  0.5158060000000  0.5142430000000  0.4350030000000 1.0
C      1  0.5158060000000  0.4860650000000  0.5649930000000 1.0
C      1  0.4351600000000  0.5158090000000  0.5140860000000 1.0
C      1  0.5651440000000  0.5158090000000  0.4859100000000 1.0
C      1  0.5651430000000  0.4844980000000  0.5140860000000 1.0
C      1  0.5142400000000  0.4351590000000  0.4843420000000 1.0
C      1  0.5158060000000  0.4860650000000  0.4350030000000 1.0
C      1  0.5651440000000  0.4844980000000  0.4859100000000 1.0
C      1  0.5142400000000  0.5651490000000  0.5156530000000 1.0
C      1  0.4860630000000  0.5651490000000  0.4843420000000 1.0
C      1  0.4860630000000  0.4351590000000  0.5156530000000 1.0
C      1  0.5158060000000  0.5142430000000  0.5649930000000 1.0
C      1  0.4844970000000  0.5142420000000  0.4350030000000 1.0
C      1  0.4844970000000  0.4860650000000  0.5649930000000 1.0
C      1  0.5651430000000  0.5158090000000  0.5140860000000 1.0
C      1  0.4351590000000  0.5158090000000  0.4859090000000 1.0
C      1  0.4351600000000  0.4844990000000  0.5140860000000 1.0
C      1  0.4487210000000  0.4655380000000  0.5190580000000 1.0
C      1  0.5192110000000  0.4487210000000  0.4653810000000 1.0
C      1  0.4655370000000  0.5192140000000  0.4485660000000 1.0
C      1  0.4487210000000  0.5347700000000  0.4809380000000 1.0
C      1  0.5515820000000  0.5347700000000  0.5190570000000 1.0
C      1  0.5515820000000  0.4655380000000  0.4809380000000 1.0
C      1  0.5192110000000  0.5515870000000  0.5346140000000 1.0
C      1  0.4810920000000  0.5515860000000  0.4653810000000 1.0
C      1  0.4810920000000  0.4487210000000  0.5346140000000 1.0
C      1  0.4655370000000  0.4810940000000  0.5514300000000 1.0
C      1  0.5347660000000  0.4810940000000  0.4485660000000 1.0
C      1  0.5347660000000  0.5192140000000  0.5514300000000 1.0
C      1  0.5515820000000  0.4655380000000  0.5190570000000 1.0
C      1  0.4810920000000  0.4487210000000  0.4653810000000 1.0
C      1  0.5347660000000  0.5192140000000  0.4485660000000 1.0
C      1  0.5515820000000  0.5347700000000  0.4809380000000 1.0
C      1  0.4487210000000  0.5347700000000  0.5190580000000 1.0
C      1  0.4487210000000  0.4655380000000  0.4809380000000 1.0
C      1  0.4810920000000  0.5515870000000  0.5346140000000 1.0
C      1  0.5192110000000  0.5515860000000  0.4653810000000 1.0
C      1  0.5192110000000  0.4487210000000  0.5346140000000 1.0
C      1  0.5347660000000  0.4810940000000  0.5514300000000 1.0
C      1  0.4655370000000  0.4810940000000  0.4485660000000 1.0
C      1  0.4655370000000  0.5192140000000  0.5514300000000 1.0
C      1  0.5297480000000  0.4662490000000  0.5487480000000 1.0
C      1  0.5489000000000  0.5297510000000  0.4660940000000 1.0
C      1  0.4662490000000  0.5489040000000  0.5295950000000 1.0
C      1  0.5297480000000  0.5340580000000  0.4512480000000 1.0
C      1  0.4705560000000  0.5340580000000  0.5487480000000 1.0
C      1  0.4705550000000  0.4662490000000  0.4512480000000 1.0
C      1  0.5489000000000  0.4705570000000  0.5339020000000 1.0
C      1  0.4514030000000  0.4705570000000  0.4660940000000 1.0
C      1  0.4514030000000  0.5297510000000  0.5339020000000 1.0
C      1  0.4662480000000  0.4514040000000  0.4704010000000 1.0
C      1  0.5340550000000  0.4514030000000  0.5295950000000 1.0
C      1  0.5340550000000  0.5489040000000  0.4704010000000 1.0
C      1  0.4705560000000  0.4662490000000  0.5487480000000 1.0
C      1  0.4514030000000  0.5297500000000  0.4660940000000 1.0
C      1  0.5340550000000  0.5489040000000  0.5295950000000 1.0
C      1  0.4705550000000  0.5340580000000  0.4512480000000 1.0
C      1  0.5297480000000  0.5340580000000  0.5487480000000 1.0
C      1  0.5297480000000  0.4662490000000  0.4512480000000 1.0
C      1  0.4514030000000  0.4705570000000  0.5339020000000 1.0
C      1  0.5489000000000  0.4705570000000  0.4660940000000 1.0
C      1  0.5489000000000  0.5297510000000  0.5339020000000 1.0
C      1  0.5340550000000  0.4514030000000  0.4704010000000 1.0
C      1  0.4662490000000  0.4514030000000  0.5295950000000 1.0
C      1  0.4662480000000  0.5489040000000  0.4704010000000 1.0
C      1  0.4922550000000  0.5462890000000  0.5645040000000 1.0
C      1  0.5646550000000  0.4922570000000  0.5461320000000 1.0
C      1  0.5462850000000  0.5646590000000  0.4921010000000 1.0
C      1  0.4922550000000  0.4540190000000  0.4354920000000 1.0
C      1  0.5080480000000  0.4540180000000  0.5645040000000 1.0
C      1  0.5080480000000  0.5462890000000  0.4354920000000 1.0
C      1  0.5646550000000  0.5080500000000  0.4538640000000 1.0
C      1  0.4356480000000  0.5080500000000  0.5461320000000 1.0
C      1  0.4356480000000  0.4922570000000  0.4538640000000 1.0
C      1  0.5462850000000  0.4356480000000  0.5078940000000 1.0
C      1  0.4540180000000  0.4356490000000  0.4921010000000 1.0
C      1  0.4540180000000  0.5646590000000  0.5078940000000 1.0
C      1  0.5080480000000  0.5462890000000  0.5645040000000 1.0
C      1  0.4356480000000  0.4922570000000  0.5461320000000 1.0
C      1  0.4540180000000  0.5646590000000  0.4921010000000 1.0
C      1  0.5080480000000  0.4540190000000  0.4354920000000 1.0
C      1  0.4922550000000  0.4540180000000  0.5645040000000 1.0
C      1  0.4922550000000  0.5462890000000  0.4354920000000 1.0
C      1  0.4356480000000  0.5080500000000  0.4538640000000 1.0
C      1  0.5646550000000  0.5080500000000  0.5461320000000 1.0
C      1  0.5646550000000  0.4922570000000  0.4538640000000 1.0
C      1  0.4540180000000  0.4356490000000  0.5078940000000 1.0
C      1  0.5462850000000  0.4356490000000  0.4921010000000 1.0
C      1  0.5462850000000  0.5646590000000  0.5078940000000 1.0
C      1  0.5300380000000  0.5820910000000  0.5072130000000 1.0
C      1  0.5073670000000  0.5300410000000  0.5819360000000 1.0
C      1  0.5820870000000  0.5073690000000  0.5298840000000 1.0
C      1  0.5300370000000  0.4182160000000  0.4927830000000 1.0
C      1  0.4702660000000  0.4182160000000  0.5072130000000 1.0
C      1  0.4702660000000  0.5820910000000  0.4927830000000 1.0
C      1  0.5073670000000  0.4702670000000  0.4180600000000 1.0
C      1  0.4929370000000  0.4702660000000  0.5819360000000 1.0
C      1  0.4929370000000  0.5300400000000  0.4180600000000 1.0
C      1  0.5820870000000  0.4929390000000  0.4701120000000 1.0
C      1  0.4182160000000  0.4929390000000  0.5298840000000 1.0
C      1  0.4182160000000  0.5073690000000  0.4701120000000 1.0
C      1  0.4702650000000  0.5820910000000  0.5072130000000 1.0
C      1  0.4929370000000  0.5300410000000  0.5819360000000 1.0
C      1  0.4182160000000  0.5073690000000  0.5298840000000 1.0
C      1  0.4702660000000  0.4182160000000  0.4927830000000 1.0
C      1  0.5300370000000  0.4182160000000  0.5072130000000 1.0
C      1  0.5300380000000  0.5820910000000  0.4927830000000 1.0
C      1  0.4929370000000  0.4702670000000  0.4180600000000 1.0
C      1  0.5073670000000  0.4702660000000  0.5819360000000 1.0
C      1  0.5073670000000  0.5300400000000  0.4180600000000 1.0
C      1  0.4182160000000  0.4929390000000  0.4701120000000 1.0
C      1  0.5820870000000  0.4929390000000  0.5298840000000 1.0
C      1  0.5820870000000  0.5073690000000  0.4701120000000 1.0
C      1  0.4603460000000  0.4287240000000  0.5295860000000 1.0
C      1  0.5297400000000  0.4603480000000  0.4285680000000 1.0
C      1  0.4287230000000  0.5297420000000  0.4601930000000 1.0
C      1  0.4603460000000  0.5715830000000  0.4704090000000 1.0
C      1  0.5399570000000  0.5715830000000  0.5295860000000 1.0
C      1  0.5399570000000  0.4287240000000  0.4704090000000 1.0
C      1  0.5297400000000  0.5399600000000  0.5714280000000 1.0
C      1  0.4705630000000  0.5399590000000  0.4285680000000 1.0
C      1  0.4705630000000  0.4603470000000  0.5714280000000 1.0
C      1  0.4287240000000  0.4705650000000  0.5398030000000 1.0
C      1  0.5715800000000  0.4705650000000  0.4601930000000 1.0
C      1  0.5715790000000  0.5297420000000  0.5398030000000 1.0
C      1  0.5399570000000  0.4287240000000  0.5295860000000 1.0
C      1  0.4705630000000  0.4603480000000  0.4285680000000 1.0
C      1  0.5715800000000  0.5297420000000  0.4601930000000 1.0
C      1  0.5399570000000  0.5715830000000  0.4704090000000 1.0
C      1  0.4603460000000  0.5715830000000  0.5295860000000 1.0
C      1  0.4603460000000  0.4287240000000  0.4704090000000 1.0
C      1  0.4705630000000  0.5399600000000  0.5714280000000 1.0
C      1  0.5297400000000  0.5399590000000  0.4285680000000 1.0
C      1  0.5297400000000  0.4603470000000  0.5714280000000 1.0
C      1  0.5715790000000  0.4705650000000  0.5398030000000 1.0
C      1  0.4287230000000  0.4705650000000  0.4601930000000 1.0
C      1  0.4287240000000  0.5297420000000  0.5398030000000 1.0
C      1  0.5072390000000  0.4391090000000  0.5639090000000 1.0
C      1  0.5640610000000  0.5072410000000  0.4389550000000 1.0
C      1  0.4391090000000  0.5640640000000  0.5070850000000 1.0
C      1  0.5072390000000  0.5611980000000  0.4360870000000 1.0
C      1  0.4930640000000  0.5611980000000  0.5639090000000 1.0
C      1  0.4930640000000  0.4391100000000  0.4360870000000 1.0
C      1  0.5640610000000  0.4930670000000  0.5610410000000 1.0
C      1  0.4362420000000  0.4930670000000  0.4389550000000 1.0
C      1  0.4362420000000  0.5072410000000  0.5610410000000 1.0
C      1  0.4391090000000  0.4362430000000  0.4929110000000 1.0
C      1  0.5611940000000  0.4362430000000  0.5070850000000 1.0
C      1  0.5611940000000  0.5640640000000  0.4929110000000 1.0
C      1  0.4930640000000  0.4391090000000  0.5639090000000 1.0
C      1  0.4362420000000  0.5072410000000  0.4389550000000 1.0
C      1  0.5611940000000  0.5640640000000  0.5070850000000 1.0
C      1  0.4930640000000  0.5611980000000  0.4360870000000 1.0
C      1  0.5072390000000  0.5611980000000  0.5639090000000 1.0
C      1  0.5072390000000  0.4391100000000  0.4360870000000 1.0
C      1  0.4362420000000  0.4930670000000  0.5610410000000 1.0
C      1  0.5640610000000  0.4930670000000  0.4389550000000 1.0
C      1  0.5640610000000  0.5072410000000  0.5610410000000 1.0
C      1  0.5611940000000  0.4362430000000  0.4929110000000 1.0
C      1  0.4391090000000  0.4362430000000  0.5070850000000 1.0
C      1  0.4391090000000  0.5640640000000  0.4929110000000 1.0
C      1  0.4297070000000  0.4552780000000  0.4999980000000 1.0
C      1  0.5001520000000  0.4297080000000  0.4551220000000 1.0
C      1  0.4552770000000  0.5001540000000  0.4295530000000 1.0
C      1  0.4297070000000  0.5450290000000  0.4999980000000 1.0
C      1  0.5705960000000  0.5450290000000  0.4999980000000 1.0
C      1  0.5705960000000  0.4552780000000  0.4999980000000 1.0
C      1  0.5001520000000  0.5706000000000  0.5448730000000 1.0
C      1  0.5001520000000  0.5705990000000  0.4551220000000 1.0
C      1  0.5001520000000  0.4297080000000  0.5448740000000 1.0
C      1  0.4552780000000  0.5001540000000  0.5704420000000 1.0
C      1  0.5450260000000  0.5001540000000  0.4295530000000 1.0
C      1  0.5450250000000  0.5001540000000  0.5704420000000 1.0
C      1  0.4623880000000  0.5379190000000  0.5377630000000 1.0
C      1  0.5379150000000  0.5379190000000  0.4622330000000 1.0
C      1  0.5379150000000  0.4623890000000  0.5377630000000 1.0
C      1  0.4623880000000  0.4623890000000  0.4622330000000 1.0
C      1  0.4623880000000  0.5379190000000  0.4622330000000 1.0
C      1  0.5379150000000  0.4623890000000  0.4622330000000 1.0
C      1  0.4623880000000  0.4623890000000  0.5377630000000 1.0
C      1  0.5379150000000  0.5379190000000  0.5377630000000 1.0
END
