TITL C-1379266-1300-61 -2.78989362507957e-06 1000000 -2517.21227714093 0 0 380 (Th) n - 1
REM
REM in /nfs/bkarasulu/CARBON/AIRSS/Generating-Clusters/GAP-ML-2020/Higher-Symm/Selected-Sizes/TryA-Only_Ih-Symm/Larger-Clusters/Try2-MINAMP_6A
REM
REM
REM
REM
REM
REM ./C.cell (31579ac4e95a012ec27f3239692ae8a5)
REM
REM compiler GCC version 9.2.1 20190827 (Red Hat 9.2.1-1)
REM options -cpp -mtune=generic -march=x86-64 -g -O0 -fpre-include=/usr/include/finclude/math-vector-fortran.h
REM seed -807192534 -1659854234 -189104267 -1703262687 -330264209 -1261250558 -524139034 -1928297860 2098734321 1747845807 -633450117 -1965159670 -276598472 1953302667 327069456 832150643 -1321755485 -837063817 -1302039571 -720717048 -2066237285 -329482627 810355061 -1567292157 491213392 -326483988 1640273604 2093231224 311273305 496551553 -1474276136 1094327226 -84536753
REM
CELL 1.54180  100.00000  100.00000  100.00000   90.00000   90.00000   90.00000
LATT -1
SFAC C  
C      1  0.4662170000000  0.4664860000000  0.5640890000000 1.0
C      1  0.5640550000000  0.4662230000000  0.4665150000000 1.0
C      1  0.4664810000000  0.5640610000000  0.4662510000000 1.0
C      1  0.5338400000000  0.5335830000000  0.5640890000000 1.0
C      1  0.5338400000000  0.4664860000000  0.4360370000000 1.0
C      1  0.4662170000000  0.5335830000000  0.4360370000000 1.0
C      1  0.4360020000000  0.5338460000000  0.4665150000000 1.0
C      1  0.4360020000000  0.4662230000000  0.5336110000000 1.0
C      1  0.5640550000000  0.5338460000000  0.5336110000000 1.0
C      1  0.5335770000000  0.4360080000000  0.4662510000000 1.0
C      1  0.5335770000000  0.5640610000000  0.5338750000000 1.0
C      1  0.4664810000000  0.4360080000000  0.5338750000000 1.0
C      1  0.4662170000000  0.4664860000000  0.4360370000000 1.0
C      1  0.5640550000000  0.4662230000000  0.5336110000000 1.0
C      1  0.4664810000000  0.5640610000000  0.5338750000000 1.0
C      1  0.5338400000000  0.5335830000000  0.4360370000000 1.0
C      1  0.5338400000000  0.4664860000000  0.5640890000000 1.0
C      1  0.4662170000000  0.5335830000000  0.5640890000000 1.0
C      1  0.4360020000000  0.5338460000000  0.5336110000000 1.0
C      1  0.4360020000000  0.4662230000000  0.4665150000000 1.0
C      1  0.5640550000000  0.5338460000000  0.4665150000000 1.0
C      1  0.5335770000000  0.4360080000000  0.5338750000000 1.0
C      1  0.5335770000000  0.5640610000000  0.4662510000000 1.0
C      1  0.4664810000000  0.4360080000000  0.4662510000000 1.0
C      1  0.4639510000000  0.4857080000000  0.5775760000000 1.0
C      1  0.5775420000000  0.4639570000000  0.4857370000000 1.0
C      1  0.4857020000000  0.5775480000000  0.4639860000000 1.0
C      1  0.5361060000000  0.5143610000000  0.5775770000000 1.0
C      1  0.5361060000000  0.4857080000000  0.4225500000000 1.0
C      1  0.4639510000000  0.5143610000000  0.4225500000000 1.0
C      1  0.4225150000000  0.5361120000000  0.4857370000000 1.0
C      1  0.4225150000000  0.4639570000000  0.5143890000000 1.0
C      1  0.5775420000000  0.5361120000000  0.5143890000000 1.0
C      1  0.5143550000000  0.4225210000000  0.4639860000000 1.0
C      1  0.5143550000000  0.5775480000000  0.5361410000000 1.0
C      1  0.4857020000000  0.4225210000000  0.5361410000000 1.0
C      1  0.4639510000000  0.4857080000000  0.4225500000000 1.0
C      1  0.5775420000000  0.4639570000000  0.5143890000000 1.0
C      1  0.4857020000000  0.5775480000000  0.5361410000000 1.0
C      1  0.5361060000000  0.5143610000000  0.4225500000000 1.0
C      1  0.5361060000000  0.4857080000000  0.5775760000000 1.0
C      1  0.4639510000000  0.5143610000000  0.5775770000000 1.0
C      1  0.4225150000000  0.5361120000000  0.5143890000000 1.0
C      1  0.4225150000000  0.4639570000000  0.4857370000000 1.0
C      1  0.5775420000000  0.5361120000000  0.4857370000000 1.0
C      1  0.5143550000000  0.4225210000000  0.5361410000000 1.0
C      1  0.5143550000000  0.5775480000000  0.4639860000000 1.0
C      1  0.4857020000000  0.4225210000000  0.4639860000000 1.0
C      1  0.4595490000000  0.4366850000000  0.4928460000000 1.0
C      1  0.4928120000000  0.4595550000000  0.4367140000000 1.0
C      1  0.4366790000000  0.4928180000000  0.4595840000000 1.0
C      1  0.5405080000000  0.5633840000000  0.4928460000000 1.0
C      1  0.5405080000000  0.4366850000000  0.5072800000000 1.0
C      1  0.4595490000000  0.5633840000000  0.5072800000000 1.0
C      1  0.5072460000000  0.5405140000000  0.4367140000000 1.0
C      1  0.5072460000000  0.4595550000000  0.5634130000000 1.0
C      1  0.4928120000000  0.5405140000000  0.5634130000000 1.0
C      1  0.5633780000000  0.5072510000000  0.4595840000000 1.0
C      1  0.5633780000000  0.4928180000000  0.5405430000000 1.0
C      1  0.4366790000000  0.5072510000000  0.5405430000000 1.0
C      1  0.4595490000000  0.4366850000000  0.5072800000000 1.0
C      1  0.4928120000000  0.4595550000000  0.5634130000000 1.0
C      1  0.4366790000000  0.4928180000000  0.5405430000000 1.0
C      1  0.5405080000000  0.5633840000000  0.5072800000000 1.0
C      1  0.5405080000000  0.4366850000000  0.4928460000000 1.0
C      1  0.4595490000000  0.5633840000000  0.4928460000000 1.0
C      1  0.5072460000000  0.5405140000000  0.5634130000000 1.0
C      1  0.5072460000000  0.4595550000000  0.4367140000000 1.0
C      1  0.4928120000000  0.5405140000000  0.4367140000000 1.0
C      1  0.5633780000000  0.5072510000000  0.5405430000000 1.0
C      1  0.5633780000000  0.4928180000000  0.4595840000000 1.0
C      1  0.4366790000000  0.5072510000000  0.4595840000000 1.0
C      1  0.5271700000000  0.4419450000000  0.4925140000000 1.0
C      1  0.4924790000000  0.5271760000000  0.4419730000000 1.0
C      1  0.4419390000000  0.4924850000000  0.5272040000000 1.0
C      1  0.4728880000000  0.5581240000000  0.4925140000000 1.0
C      1  0.4728880000000  0.4419450000000  0.5076130000000 1.0
C      1  0.5271700000000  0.5581240000000  0.5076130000000 1.0
C      1  0.5075780000000  0.4728930000000  0.4419730000000 1.0
C      1  0.5075780000000  0.5271760000000  0.5581530000000 1.0
C      1  0.4924790000000  0.4728930000000  0.5581530000000 1.0
C      1  0.5581180000000  0.5075840000000  0.5272040000000 1.0
C      1  0.5581180000000  0.4924850000000  0.4729220000000 1.0
C      1  0.4419390000000  0.5075840000000  0.4729220000000 1.0
C      1  0.5271700000000  0.4419450000000  0.5076130000000 1.0
C      1  0.4924790000000  0.5271760000000  0.5581530000000 1.0
C      1  0.4419390000000  0.4924850000000  0.4729220000000 1.0
C      1  0.4728880000000  0.5581240000000  0.5076130000000 1.0
C      1  0.4728880000000  0.4419450000000  0.4925140000000 1.0
C      1  0.5271700000000  0.5581240000000  0.4925140000000 1.0
C      1  0.5075780000000  0.4728930000000  0.5581530000000 1.0
C      1  0.5075780000000  0.5271760000000  0.4419730000000 1.0
C      1  0.4924790000000  0.4728930000000  0.4419730000000 1.0
C      1  0.5581180000000  0.5075840000000  0.4729220000000 1.0
C      1  0.5581180000000  0.4924850000000  0.5272040000000 1.0
C      1  0.4419390000000  0.5075840000000  0.5272040000000 1.0
C      1  0.5226370000000  0.5709530000000  0.4723720000000 1.0
C      1  0.4723370000000  0.5226420000000  0.5709820000000 1.0
C      1  0.5709470000000  0.4723430000000  0.5226710000000 1.0
C      1  0.4774210000000  0.4291160000000  0.4723720000000 1.0
C      1  0.4774210000000  0.5709530000000  0.5277540000000 1.0
C      1  0.5226370000000  0.4291160000000  0.5277540000000 1.0
C      1  0.5277200000000  0.4774270000000  0.5709820000000 1.0
C      1  0.5277200000000  0.5226420000000  0.4291440000000 1.0
C      1  0.4723370000000  0.4774270000000  0.4291450000000 1.0
C      1  0.4291100000000  0.5277260000000  0.5226710000000 1.0
C      1  0.4291100000000  0.4723430000000  0.4774550000000 1.0
C      1  0.5709470000000  0.5277260000000  0.4774550000000 1.0
C      1  0.5226370000000  0.5709530000000  0.5277540000000 1.0
C      1  0.4723370000000  0.5226420000000  0.4291440000000 1.0
C      1  0.5709470000000  0.4723430000000  0.4774550000000 1.0
C      1  0.4774210000000  0.4291160000000  0.5277540000000 1.0
C      1  0.4774210000000  0.5709530000000  0.4723720000000 1.0
C      1  0.5226370000000  0.4291160000000  0.4723720000000 1.0
C      1  0.5277200000000  0.4774270000000  0.4291440000000 1.0
C      1  0.5277200000000  0.5226420000000  0.5709820000000 1.0
C      1  0.4723370000000  0.4774270000000  0.5709820000000 1.0
C      1  0.4291100000000  0.5277260000000  0.4774550000000 1.0
C      1  0.4291100000000  0.4723430000000  0.5226710000000 1.0
C      1  0.5709470000000  0.5277260000000  0.5226710000000 1.0
C      1  0.5703390000000  0.5456150000000  0.5396260000000 1.0
C      1  0.5395910000000  0.5703450000000  0.5456440000000 1.0
C      1  0.5456090000000  0.5395970000000  0.5703740000000 1.0
C      1  0.4297180000000  0.4544540000000  0.5396260000000 1.0
C      1  0.4297180000000  0.5456150000000  0.4605000000000 1.0
C      1  0.5703390000000  0.4544540000000  0.4605000000000 1.0
C      1  0.4604660000000  0.4297240000000  0.5456440000000 1.0
C      1  0.4604660000000  0.5703450000000  0.4544820000000 1.0
C      1  0.5395910000000  0.4297240000000  0.4544820000000 1.0
C      1  0.4544480000000  0.4604720000000  0.5703730000000 1.0
C      1  0.4544480000000  0.5395970000000  0.4297530000000 1.0
C      1  0.5456090000000  0.4604720000000  0.4297530000000 1.0
C      1  0.5703390000000  0.5456150000000  0.4605000000000 1.0
C      1  0.5395910000000  0.5703450000000  0.4544820000000 1.0
C      1  0.5456090000000  0.5395970000000  0.4297530000000 1.0
C      1  0.4297180000000  0.4544540000000  0.4605000000000 1.0
C      1  0.4297180000000  0.5456150000000  0.5396260000000 1.0
C      1  0.5703390000000  0.4544540000000  0.5396260000000 1.0
C      1  0.4604660000000  0.4297240000000  0.4544820000000 1.0
C      1  0.4604660000000  0.5703450000000  0.5456440000000 1.0
C      1  0.5395910000000  0.4297240000000  0.5456440000000 1.0
C      1  0.4544480000000  0.4604720000000  0.4297530000000 1.0
C      1  0.4544480000000  0.5395970000000  0.5703730000000 1.0
C      1  0.5456090000000  0.4604720000000  0.5703740000000 1.0
C      1  0.4710510000000  0.5698230000000  0.4475240000000 1.0
C      1  0.4474890000000  0.4710570000000  0.5698520000000 1.0
C      1  0.5698170000000  0.4474950000000  0.4710850000000 1.0
C      1  0.5290070000000  0.4302460000000  0.4475240000000 1.0
C      1  0.5290070000000  0.5698230000000  0.5526030000000 1.0
C      1  0.4710510000000  0.4302460000000  0.5526030000000 1.0
C      1  0.5525680000000  0.5290120000000  0.5698520000000 1.0
C      1  0.5525680000000  0.4710570000000  0.4302740000000 1.0
C      1  0.4474890000000  0.5290120000000  0.4302740000000 1.0
C      1  0.4302400000000  0.5525740000000  0.4710850000000 1.0
C      1  0.4302400000000  0.4474950000000  0.5290410000000 1.0
C      1  0.5698170000000  0.5525740000000  0.5290410000000 1.0
C      1  0.4710510000000  0.5698230000000  0.5526030000000 1.0
C      1  0.4474890000000  0.4710570000000  0.4302740000000 1.0
C      1  0.5698170000000  0.4474950000000  0.5290410000000 1.0
C      1  0.5290070000000  0.4302460000000  0.5526030000000 1.0
C      1  0.5290070000000  0.5698230000000  0.4475240000000 1.0
C      1  0.4710510000000  0.4302460000000  0.4475240000000 1.0
C      1  0.5525680000000  0.5290120000000  0.4302740000000 1.0
C      1  0.5525680000000  0.4710570000000  0.5698520000000 1.0
C      1  0.4474890000000  0.5290120000000  0.5698520000000 1.0
C      1  0.4302400000000  0.5525740000000  0.5290410000000 1.0
C      1  0.4302400000000  0.4474950000000  0.4710850000000 1.0
C      1  0.5698170000000  0.5525740000000  0.4710850000000 1.0
C      1  0.5613400000000  0.4477980000000  0.5163730000000 1.0
C      1  0.5163390000000  0.5613460000000  0.4478270000000 1.0
C      1  0.4477920000000  0.5163450000000  0.5613740000000 1.0
C      1  0.4387180000000  0.5522710000000  0.5163730000000 1.0
C      1  0.4387180000000  0.4477980000000  0.4837530000000 1.0
C      1  0.5613400000000  0.5522710000000  0.4837530000000 1.0
C      1  0.4837180000000  0.4387230000000  0.4478270000000 1.0
C      1  0.4837180000000  0.5613460000000  0.5523000000000 1.0
C      1  0.5163390000000  0.4387240000000  0.5523000000000 1.0
C      1  0.5522650000000  0.4837240000000  0.5613740000000 1.0
C      1  0.5522650000000  0.5163450000000  0.4387520000000 1.0
C      1  0.4477920000000  0.4837240000000  0.4387520000000 1.0
C      1  0.5613400000000  0.4477980000000  0.4837530000000 1.0
C      1  0.5163390000000  0.5613460000000  0.5523000000000 1.0
C      1  0.4477920000000  0.5163450000000  0.4387520000000 1.0
C      1  0.4387180000000  0.5522710000000  0.4837530000000 1.0
C      1  0.4387180000000  0.4477980000000  0.5163730000000 1.0
C      1  0.5613400000000  0.5522710000000  0.5163730000000 1.0
C      1  0.4837180000000  0.4387230000000  0.5523000000000 1.0
C      1  0.4837180000000  0.5613460000000  0.4478270000000 1.0
C      1  0.5163390000000  0.4387240000000  0.4478270000000 1.0
C      1  0.5522650000000  0.4837240000000  0.4387520000000 1.0
C      1  0.5522650000000  0.5163450000000  0.5613740000000 1.0
C      1  0.4477920000000  0.4837240000000  0.5613740000000 1.0
C      1  0.5544180000000  0.4358080000000  0.4886960000000 1.0
C      1  0.4886610000000  0.5544230000000  0.4358370000000 1.0
C      1  0.4358020000000  0.4886670000000  0.5544520000000 1.0
C      1  0.4456400000000  0.5642610000000  0.4886960000000 1.0
C      1  0.4456400000000  0.4358080000000  0.5114300000000 1.0
C      1  0.5544180000000  0.5642610000000  0.5114300000000 1.0
C      1  0.5113960000000  0.4456460000000  0.4358370000000 1.0
C      1  0.5113960000000  0.5544230000000  0.5642900000000 1.0
C      1  0.4886610000000  0.4456460000000  0.5642900000000 1.0
C      1  0.5642550000000  0.5114020000000  0.5544520000000 1.0
C      1  0.5642550000000  0.4886670000000  0.4456740000000 1.0
C      1  0.4358020000000  0.5114020000000  0.4456740000000 1.0
C      1  0.5544180000000  0.4358080000000  0.5114300000000 1.0
C      1  0.4886610000000  0.5544230000000  0.5642900000000 1.0
C      1  0.4358020000000  0.4886670000000  0.4456740000000 1.0
C      1  0.4456400000000  0.5642610000000  0.5114300000000 1.0
C      1  0.4456400000000  0.4358080000000  0.4886960000000 1.0
C      1  0.5544180000000  0.5642610000000  0.4886960000000 1.0
C      1  0.5113960000000  0.4456460000000  0.5642900000000 1.0
C      1  0.5113960000000  0.5544230000000  0.4358370000000 1.0
C      1  0.4886610000000  0.4456460000000  0.4358370000000 1.0
C      1  0.5642550000000  0.5114020000000  0.4456740000000 1.0
C      1  0.5642550000000  0.4886670000000  0.5544520000000 1.0
C      1  0.4358020000000  0.5114020000000  0.5544520000000 1.0
C      1  0.4613720000000  0.4837740000000  0.4496430000000 1.0
C      1  0.4496090000000  0.4613780000000  0.4838030000000 1.0
C      1  0.4837680000000  0.4496140000000  0.4614070000000 1.0
C      1  0.5386850000000  0.5162950000000  0.4496430000000 1.0
C      1  0.5386850000000  0.4837740000000  0.5504830000000 1.0
C      1  0.4613720000000  0.5162950000000  0.5504830000000 1.0
C      1  0.5504490000000  0.5386910000000  0.4838030000000 1.0
C      1  0.5504490000000  0.4613780000000  0.5163230000000 1.0
C      1  0.4496090000000  0.5386910000000  0.5163230000000 1.0
C      1  0.5162890000000  0.5504550000000  0.4614070000000 1.0
C      1  0.5162890000000  0.4496140000000  0.5387190000000 1.0
C      1  0.4837680000000  0.5504550000000  0.5387190000000 1.0
C      1  0.4613720000000  0.4837740000000  0.5504830000000 1.0
C      1  0.4496090000000  0.4613780000000  0.5163230000000 1.0
C      1  0.4837680000000  0.4496140000000  0.5387190000000 1.0
C      1  0.5386850000000  0.5162950000000  0.5504830000000 1.0
C      1  0.5386850000000  0.4837740000000  0.4496430000000 1.0
C      1  0.4613720000000  0.5162950000000  0.4496430000000 1.0
C      1  0.5504490000000  0.5386910000000  0.5163230000000 1.0
C      1  0.5504490000000  0.4613780000000  0.4838030000000 1.0
C      1  0.4496090000000  0.5386910000000  0.4838030000000 1.0
C      1  0.5162890000000  0.5504550000000  0.5387190000000 1.0
C      1  0.5162890000000  0.4496140000000  0.4614070000000 1.0
C      1  0.4837680000000  0.5504550000000  0.4614070000000 1.0
C      1  0.4476960000000  0.4722010000000  0.4931900000000 1.0
C      1  0.4931550000000  0.4477020000000  0.4722300000000 1.0
C      1  0.4721950000000  0.4931610000000  0.4477300000000 1.0
C      1  0.5523610000000  0.5278680000000  0.4931900000000 1.0
C      1  0.5523610000000  0.4722010000000  0.5069360000000 1.0
C      1  0.4476960000000  0.5278680000000  0.5069360000000 1.0
C      1  0.5069020000000  0.5523670000000  0.4722300000000 1.0
C      1  0.5069020000000  0.4477020000000  0.5278960000000 1.0
C      1  0.4931550000000  0.5523670000000  0.5278960000000 1.0
C      1  0.5278620000000  0.5069080000000  0.4477300000000 1.0
C      1  0.5278620000000  0.4931610000000  0.5523960000000 1.0
C      1  0.4721950000000  0.5069080000000  0.5523960000000 1.0
C      1  0.4476960000000  0.4722010000000  0.5069360000000 1.0
C      1  0.4931550000000  0.4477020000000  0.5278960000000 1.0
C      1  0.4721950000000  0.4931610000000  0.5523960000000 1.0
C      1  0.5523610000000  0.5278680000000  0.5069360000000 1.0
C      1  0.5523610000000  0.4722010000000  0.4931900000000 1.0
C      1  0.4476960000000  0.5278680000000  0.4931900000000 1.0
C      1  0.5069020000000  0.5523670000000  0.5278960000000 1.0
C      1  0.5069020000000  0.4477020000000  0.4722300000000 1.0
C      1  0.4931550000000  0.5523670000000  0.4722300000000 1.0
C      1  0.5278620000000  0.5069080000000  0.5523960000000 1.0
C      1  0.5278620000000  0.4931610000000  0.4477300000000 1.0
C      1  0.4721950000000  0.5069080000000  0.4477300000000 1.0
C      1  0.5160600000000  0.4380530000000  0.4832410000000 1.0
C      1  0.4832060000000  0.5160660000000  0.4380820000000 1.0
C      1  0.4380480000000  0.4832120000000  0.5160950000000 1.0
C      1  0.4839970000000  0.5620160000000  0.4832410000000 1.0
C      1  0.4839970000000  0.4380530000000  0.5168850000000 1.0
C      1  0.5160600000000  0.5620160000000  0.5168850000000 1.0
C      1  0.5168510000000  0.4840030000000  0.4380820000000 1.0
C      1  0.5168510000000  0.5160660000000  0.5620440000000 1.0
C      1  0.4832060000000  0.4840030000000  0.5620440000000 1.0
C      1  0.5620100000000  0.5168570000000  0.5160950000000 1.0
C      1  0.5620100000000  0.4832120000000  0.4840320000000 1.0
C      1  0.4380470000000  0.5168570000000  0.4840320000000 1.0
C      1  0.5160600000000  0.4380530000000  0.5168850000000 1.0
C      1  0.4832060000000  0.5160660000000  0.5620440000000 1.0
C      1  0.4380470000000  0.4832120000000  0.4840320000000 1.0
C      1  0.4839970000000  0.5620160000000  0.5168850000000 1.0
C      1  0.4839970000000  0.4380530000000  0.4832410000000 1.0
C      1  0.5160600000000  0.5620160000000  0.4832410000000 1.0
C      1  0.5168510000000  0.4840030000000  0.5620440000000 1.0
C      1  0.5168510000000  0.5160660000000  0.4380820000000 1.0
C      1  0.4832060000000  0.4840030000000  0.4380820000000 1.0
C      1  0.5620100000000  0.5168570000000  0.4840320000000 1.0
C      1  0.5620100000000  0.4832120000000  0.5160950000000 1.0
C      1  0.4380480000000  0.5168570000000  0.5160950000000 1.0
C      1  0.4505610000000  0.5344460000000  0.5302660000000 1.0
C      1  0.5302310000000  0.4505670000000  0.5344750000000 1.0
C      1  0.5344400000000  0.5302370000000  0.4505960000000 1.0
C      1  0.5494960000000  0.4656230000000  0.5302660000000 1.0
C      1  0.5494960000000  0.5344460000000  0.4698600000000 1.0
C      1  0.4505610000000  0.4656230000000  0.4698600000000 1.0
C      1  0.4698260000000  0.5495020000000  0.5344750000000 1.0
C      1  0.4698260000000  0.4505670000000  0.4656520000000 1.0
C      1  0.5302320000000  0.5495020000000  0.4656520000000 1.0
C      1  0.4656170000000  0.4698320000000  0.4505960000000 1.0
C      1  0.4656170000000  0.5302370000000  0.5495310000000 1.0
C      1  0.5344400000000  0.4698320000000  0.5495310000000 1.0
C      1  0.4505610000000  0.5344460000000  0.4698600000000 1.0
C      1  0.5302320000000  0.4505670000000  0.4656520000000 1.0
C      1  0.5344400000000  0.5302370000000  0.5495310000000 1.0
C      1  0.5494960000000  0.4656230000000  0.4698600000000 1.0
C      1  0.5494960000000  0.5344460000000  0.5302660000000 1.0
C      1  0.4505610000000  0.4656230000000  0.5302660000000 1.0
C      1  0.4698260000000  0.5495020000000  0.4656520000000 1.0
C      1  0.4698260000000  0.4505670000000  0.5344750000000 1.0
C      1  0.5302320000000  0.5495020000000  0.5344750000000 1.0
C      1  0.4656170000000  0.4698320000000  0.5495310000000 1.0
C      1  0.4656170000000  0.5302370000000  0.4505960000000 1.0
C      1  0.5344400000000  0.4698320000000  0.4505960000000 1.0
C      1  0.4928760000000  0.4314780000000  0.5073710000000 1.0
C      1  0.5073370000000  0.4928820000000  0.4315060000000 1.0
C      1  0.4314720000000  0.5073430000000  0.4929110000000 1.0
C      1  0.5071810000000  0.5685910000000  0.5073710000000 1.0
C      1  0.5071810000000  0.4314780000000  0.4927550000000 1.0
C      1  0.4928760000000  0.5685910000000  0.4927550000000 1.0
C      1  0.4927210000000  0.5071870000000  0.4315060000000 1.0
C      1  0.4927210000000  0.4928820000000  0.5686200000000 1.0
C      1  0.5073370000000  0.5071870000000  0.5686200000000 1.0
C      1  0.5685860000000  0.4927260000000  0.4929110000000 1.0
C      1  0.5685860000000  0.5073430000000  0.5072160000000 1.0
C      1  0.4314720000000  0.4927260000000  0.5072160000000 1.0
C      1  0.4928760000000  0.4314780000000  0.4927550000000 1.0
C      1  0.5073370000000  0.4928820000000  0.5686200000000 1.0
C      1  0.4314720000000  0.5073430000000  0.5072160000000 1.0
C      1  0.5071810000000  0.5685910000000  0.4927550000000 1.0
C      1  0.5071810000000  0.4314780000000  0.5073710000000 1.0
C      1  0.4928760000000  0.5685910000000  0.5073710000000 1.0
C      1  0.4927210000000  0.5071870000000  0.5686200000000 1.0
C      1  0.4927210000000  0.4928820000000  0.4315060000000 1.0
C      1  0.5073370000000  0.5071870000000  0.4315060000000 1.0
C      1  0.5685860000000  0.4927260000000  0.5072160000000 1.0
C      1  0.5685860000000  0.5073430000000  0.4929110000000 1.0
C      1  0.4314720000000  0.4927260000000  0.4929110000000 1.0
C      1  0.5466890000000  0.4930280000000  0.5729140000000 1.0
C      1  0.5728800000000  0.5466940000000  0.4930570000000 1.0
C      1  0.4930220000000  0.5728860000000  0.5467230000000 1.0
C      1  0.4533690000000  0.5070410000000  0.5729140000000 1.0
C      1  0.4533690000000  0.4930280000000  0.4272120000000 1.0
C      1  0.5466880000000  0.5070410000000  0.4272120000000 1.0
C      1  0.4271770000000  0.4533750000000  0.4930570000000 1.0
C      1  0.4271770000000  0.5466940000000  0.5070700000000 1.0
C      1  0.5728800000000  0.4533750000000  0.5070700000000 1.0
C      1  0.5070350000000  0.4271830000000  0.5467230000000 1.0
C      1  0.5070350000000  0.5728860000000  0.4534030000000 1.0
C      1  0.4930220000000  0.4271830000000  0.4534030000000 1.0
C      1  0.5466880000000  0.4930280000000  0.4272120000000 1.0
C      1  0.5728800000000  0.5466940000000  0.5070700000000 1.0
C      1  0.4930220000000  0.5728860000000  0.4534030000000 1.0
C      1  0.4533690000000  0.5070410000000  0.4272120000000 1.0
C      1  0.4533690000000  0.4930280000000  0.5729140000000 1.0
C      1  0.5466890000000  0.5070410000000  0.5729150000000 1.0
C      1  0.4271770000000  0.4533750000000  0.5070700000000 1.0
C      1  0.4271770000000  0.5466940000000  0.4930570000000 1.0
C      1  0.5728800000000  0.4533750000000  0.4930570000000 1.0
C      1  0.5070350000000  0.4271830000000  0.4534030000000 1.0
C      1  0.5070350000000  0.5728860000000  0.5467230000000 1.0
C      1  0.4930220000000  0.4271830000000  0.5467230000000 1.0
C      1  0.5597780000000  0.4289050000000  0.5000630000000 1.0
C      1  0.4402790000000  0.5711640000000  0.5000630000000 1.0
C      1  0.5000290000000  0.5597840000000  0.4289340000000 1.0
C      1  0.5000290000000  0.4402850000000  0.5711930000000 1.0
C      1  0.5000290000000  0.5597840000000  0.5711930000000 1.0
C      1  0.5711580000000  0.5000350000000  0.4403140000000 1.0
C      1  0.5711580000000  0.5000350000000  0.5598130000000 1.0
C      1  0.4288990000000  0.5000350000000  0.5598130000000 1.0
C      1  0.5000290000000  0.4402850000000  0.4289340000000 1.0
C      1  0.4288990000000  0.5000350000000  0.4403140000000 1.0
C      1  0.4402790000000  0.4289050000000  0.5000630000000 1.0
C      1  0.5597780000000  0.5711640000000  0.5000630000000 1.0
C      1  0.5383350000000  0.4617280000000  0.4617560000000 1.0
C      1  0.4617220000000  0.5383410000000  0.5383700000000 1.0
C      1  0.4617220000000  0.5383410000000  0.4617560000000 1.0
C      1  0.4617220000000  0.4617280000000  0.5383700000000 1.0
C      1  0.5383350000000  0.5383410000000  0.4617560000000 1.0
C      1  0.5383350000000  0.4617280000000  0.5383700000000 1.0
C      1  0.5383350000000  0.5383410000000  0.5383700000000 1.0
C      1  0.4617220000000  0.4617280000000  0.4617560000000 1.0
END
