TITL C-1379267-1329-306 8.13550170248955e-07 1000000 -3047.95403669885 0 0 440 (Th) n - 1
REM
REM in /nfs/bkarasulu/CARBON/AIRSS/Generating-Clusters/GAP-ML-2020/Higher-Symm/Selected-Sizes/TryA-Only_Ih-Symm/Larger-Clusters/Try2-MINAMP_6A
REM
REM
REM
REM
REM
REM ./C.cell (31579ac4e95a012ec27f3239692ae8a5)
REM
REM compiler GCC version 9.2.1 20190827 (Red Hat 9.2.1-1)
REM options -cpp -mtune=generic -march=x86-64 -g -O0 -fpre-include=/usr/include/finclude/math-vector-fortran.h
REM seed -684701128 291183568 -1029802025 -1022082981 1878533400 968129271 -200951766 -1096826778 1207540521 570319383 1955397248 -1553600586 2120922718 -1786777564 50007590 -185814756 894231550 -1610120104 -2144719356 1275432506 1859198644 -255775103 251814359 -1046497901 217562346 -1545448331 1804731181 224442978 774686635 -13241858 1888357549 -479756443 475095492
REM
CELL 1.54180  100.00000  100.00000  100.00000   90.00000   90.00000   90.00000
LATT -1
SFAC C  
C      1  0.5185050000000  0.4377700000000  0.5632840000000 1.0
C      1  0.5632330000000  0.5182770000000  0.4380500000000 1.0
C      1  0.4379980000000  0.5630050000000  0.5185570000000 1.0
C      1  0.5185050000000  0.5621260000000  0.4371710000000 1.0
C      1  0.4818470000000  0.5621260000000  0.5632840000000 1.0
C      1  0.4818470000000  0.4377700000000  0.4371710000000 1.0
C      1  0.5632330000000  0.4816190000000  0.5624050000000 1.0
C      1  0.4371190000000  0.4816190000000  0.4380500000000 1.0
C      1  0.4371190000000  0.5182770000000  0.5624050000000 1.0
C      1  0.4379980000000  0.4368910000000  0.4818990000000 1.0
C      1  0.5623530000000  0.4368910000000  0.5185570000000 1.0
C      1  0.5623530000000  0.5630050000000  0.4818990000000 1.0
C      1  0.4818470000000  0.4377700000000  0.5632840000000 1.0
C      1  0.4371190000000  0.5182770000000  0.4380500000000 1.0
C      1  0.5623530000000  0.5630050000000  0.5185570000000 1.0
C      1  0.4818470000000  0.5621260000000  0.4371710000000 1.0
C      1  0.5185050000000  0.5621260000000  0.5632840000000 1.0
C      1  0.5185050000000  0.4377700000000  0.4371710000000 1.0
C      1  0.4371190000000  0.4816190000000  0.5624050000000 1.0
C      1  0.5632330000000  0.4816190000000  0.4380500000000 1.0
C      1  0.5632330000000  0.5182770000000  0.5624050000000 1.0
C      1  0.5623530000000  0.4368910000000  0.4818990000000 1.0
C      1  0.4379980000000  0.4368910000000  0.5185570000000 1.0
C      1  0.4379980000000  0.5630050000000  0.4818990000000 1.0
C      1  0.4362920000000  0.4934300000000  0.4329400000000 1.0
C      1  0.4328880000000  0.4360640000000  0.4937100000000 1.0
C      1  0.4936580000000  0.4326600000000  0.4363440000000 1.0
C      1  0.4362920000000  0.5064660000000  0.5675160000000 1.0
C      1  0.5640590000000  0.5064660000000  0.4329400000000 1.0
C      1  0.5640590000000  0.4934300000000  0.5675160000000 1.0
C      1  0.4328880000000  0.5638320000000  0.5067450000000 1.0
C      1  0.5674640000000  0.5638320000000  0.4937100000000 1.0
C      1  0.5674640000000  0.4360640000000  0.5067450000000 1.0
C      1  0.4936580000000  0.5672360000000  0.5641110000000 1.0
C      1  0.5066930000000  0.5672360000000  0.4363440000000 1.0
C      1  0.5066930000000  0.4326600000000  0.5641110000000 1.0
C      1  0.5640590000000  0.4934300000000  0.4329400000000 1.0
C      1  0.5674640000000  0.4360640000000  0.4937100000000 1.0
C      1  0.5066930000000  0.4326600000000  0.4363440000000 1.0
C      1  0.5640590000000  0.5064660000000  0.5675160000000 1.0
C      1  0.4362920000000  0.5064660000000  0.4329400000000 1.0
C      1  0.4362920000000  0.4934300000000  0.5675160000000 1.0
C      1  0.5674640000000  0.5638320000000  0.5067450000000 1.0
C      1  0.4328880000000  0.5638320000000  0.4937100000000 1.0
C      1  0.4328880000000  0.4360640000000  0.5067450000000 1.0
C      1  0.5066930000000  0.5672360000000  0.5641110000000 1.0
C      1  0.4936580000000  0.5672360000000  0.4363440000000 1.0
C      1  0.4936580000000  0.4326600000000  0.5641110000000 1.0
C      1  0.4726530000000  0.4466580000000  0.4860630000000 1.0
C      1  0.4860110000000  0.4724250000000  0.4469380000000 1.0
C      1  0.4468860000000  0.4857830000000  0.4727050000000 1.0
C      1  0.4726530000000  0.5532380000000  0.5143920000000 1.0
C      1  0.5276990000000  0.5532380000000  0.4860630000000 1.0
C      1  0.5276990000000  0.4466580000000  0.5143920000000 1.0
C      1  0.4860110000000  0.5274710000000  0.5535170000000 1.0
C      1  0.5143400000000  0.5274710000000  0.4469380000000 1.0
C      1  0.5143400000000  0.4724250000000  0.5535170000000 1.0
C      1  0.4468860000000  0.5141130000000  0.5277510000000 1.0
C      1  0.5534660000000  0.5141130000000  0.4727050000000 1.0
C      1  0.5534660000000  0.4857830000000  0.5277510000000 1.0
C      1  0.5276990000000  0.4466580000000  0.4860630000000 1.0
C      1  0.5143400000000  0.4724250000000  0.4469380000000 1.0
C      1  0.5534660000000  0.4857830000000  0.4727050000000 1.0
C      1  0.5276990000000  0.5532380000000  0.5143920000000 1.0
C      1  0.4726530000000  0.5532380000000  0.4860630000000 1.0
C      1  0.4726530000000  0.4466580000000  0.5143920000000 1.0
C      1  0.5143400000000  0.5274710000000  0.5535170000000 1.0
C      1  0.4860110000000  0.5274710000000  0.4469380000000 1.0
C      1  0.4860110000000  0.4724250000000  0.5535170000000 1.0
C      1  0.5534660000000  0.5141130000000  0.5277510000000 1.0
C      1  0.4468860000000  0.5141130000000  0.4727050000000 1.0
C      1  0.4468860000000  0.4857830000000  0.5277510000000 1.0
C      1  0.5074720000000  0.4511110000000  0.4598700000000 1.0
C      1  0.4598180000000  0.5072440000000  0.4513900000000 1.0
C      1  0.4513380000000  0.4595900000000  0.5075240000000 1.0
C      1  0.5074720000000  0.5487850000000  0.5405860000000 1.0
C      1  0.4928790000000  0.5487850000000  0.4598700000000 1.0
C      1  0.4928790000000  0.4511110000000  0.5405860000000 1.0
C      1  0.4598180000000  0.4926520000000  0.5490650000000 1.0
C      1  0.5405340000000  0.4926520000000  0.4513900000000 1.0
C      1  0.5405340000000  0.5072440000000  0.5490650000000 1.0
C      1  0.4513380000000  0.5403060000000  0.4929310000000 1.0
C      1  0.5490130000000  0.5403060000000  0.5075240000000 1.0
C      1  0.5490130000000  0.4595900000000  0.4929310000000 1.0
C      1  0.4928790000000  0.4511110000000  0.4598700000000 1.0
C      1  0.5405340000000  0.5072440000000  0.4513900000000 1.0
C      1  0.5490130000000  0.4595900000000  0.5075240000000 1.0
C      1  0.4928790000000  0.5487850000000  0.5405860000000 1.0
C      1  0.5074720000000  0.5487850000000  0.4598700000000 1.0
C      1  0.5074720000000  0.4511110000000  0.5405860000000 1.0
C      1  0.5405340000000  0.4926520000000  0.5490650000000 1.0
C      1  0.4598180000000  0.4926520000000  0.4513900000000 1.0
C      1  0.4598180000000  0.5072440000000  0.5490650000000 1.0
C      1  0.5490130000000  0.5403060000000  0.4929310000000 1.0
C      1  0.4513380000000  0.5403060000000  0.5075240000000 1.0
C      1  0.4513380000000  0.4595900000000  0.4929310000000 1.0
C      1  0.4840200000000  0.4391980000000  0.5082050000000 1.0
C      1  0.5081530000000  0.4837920000000  0.4394770000000 1.0
C      1  0.4394250000000  0.5079250000000  0.4840720000000 1.0
C      1  0.4840200000000  0.5606980000000  0.4922500000000 1.0
C      1  0.5163320000000  0.5606980000000  0.5082050000000 1.0
C      1  0.5163320000000  0.4391980000000  0.4922500000000 1.0
C      1  0.5081530000000  0.5161040000000  0.5609780000000 1.0
C      1  0.4921980000000  0.5161040000000  0.4394770000000 1.0
C      1  0.4921980000000  0.4837920000000  0.5609780000000 1.0
C      1  0.4394250000000  0.4919710000000  0.5163840000000 1.0
C      1  0.5609260000000  0.4919710000000  0.4840720000000 1.0
C      1  0.5609260000000  0.5079250000000  0.5163840000000 1.0
C      1  0.5163320000000  0.4391980000000  0.5082050000000 1.0
C      1  0.4921980000000  0.4837920000000  0.4394770000000 1.0
C      1  0.5609260000000  0.5079250000000  0.4840720000000 1.0
C      1  0.5163320000000  0.5606980000000  0.4922500000000 1.0
C      1  0.4840200000000  0.5606980000000  0.5082050000000 1.0
C      1  0.4840200000000  0.4391980000000  0.4922500000000 1.0
C      1  0.4921980000000  0.5161040000000  0.5609780000000 1.0
C      1  0.5081530000000  0.5161040000000  0.4394770000000 1.0
C      1  0.5081530000000  0.4837920000000  0.5609780000000 1.0
C      1  0.5609260000000  0.4919710000000  0.5163840000000 1.0
C      1  0.4394250000000  0.4919710000000  0.4840720000000 1.0
C      1  0.4394250000000  0.5079250000000  0.5163840000000 1.0
C      1  0.5074350000000  0.4646080000000  0.4551180000000 1.0
C      1  0.4550660000000  0.5072080000000  0.4648880000000 1.0
C      1  0.4648360000000  0.4548380000000  0.5074870000000 1.0
C      1  0.5074350000000  0.5352880000000  0.5453380000000 1.0
C      1  0.4929160000000  0.5352880000000  0.4551180000000 1.0
C      1  0.4929160000000  0.4646080000000  0.5453380000000 1.0
C      1  0.4550660000000  0.4926880000000  0.5355670000000 1.0
C      1  0.5452860000000  0.4926880000000  0.4648880000000 1.0
C      1  0.5452860000000  0.5072080000000  0.5355670000000 1.0
C      1  0.4648360000000  0.5450580000000  0.4929680000000 1.0
C      1  0.5355150000000  0.5450580000000  0.5074870000000 1.0
C      1  0.5355150000000  0.4548380000000  0.4929680000000 1.0
C      1  0.4929160000000  0.4646080000000  0.4551180000000 1.0
C      1  0.5452860000000  0.5072080000000  0.4648880000000 1.0
C      1  0.5355150000000  0.4548380000000  0.5074870000000 1.0
C      1  0.4929160000000  0.5352880000000  0.5453380000000 1.0
C      1  0.5074350000000  0.5352880000000  0.4551180000000 1.0
C      1  0.5074350000000  0.4646080000000  0.5453380000000 1.0
C      1  0.5452860000000  0.4926880000000  0.5355670000000 1.0
C      1  0.4550660000000  0.4926880000000  0.4648880000000 1.0
C      1  0.4550660000000  0.5072080000000  0.5355670000000 1.0
C      1  0.5355150000000  0.5450580000000  0.4929680000000 1.0
C      1  0.4648360000000  0.5450580000000  0.5074870000000 1.0
C      1  0.4648360000000  0.4548380000000  0.4929680000000 1.0
C      1  0.4663880000000  0.5791460000000  0.5073390000000 1.0
C      1  0.5072870000000  0.4661610000000  0.5794250000000 1.0
C      1  0.5793730000000  0.5070590000000  0.4664400000000 1.0
C      1  0.4663880000000  0.4207500000000  0.4931160000000 1.0
C      1  0.5339630000000  0.4207500000000  0.5073390000000 1.0
C      1  0.5339630000000  0.5791460000000  0.4931160000000 1.0
C      1  0.5072870000000  0.5337350000000  0.4210300000000 1.0
C      1  0.4930640000000  0.5337350000000  0.5794250000000 1.0
C      1  0.4930640000000  0.4661610000000  0.4210300000000 1.0
C      1  0.5793730000000  0.4928370000000  0.5340150000000 1.0
C      1  0.4209780000000  0.4928370000000  0.4664400000000 1.0
C      1  0.4209780000000  0.5070590000000  0.5340150000000 1.0
C      1  0.5339630000000  0.5791460000000  0.5073390000000 1.0
C      1  0.4930640000000  0.4661610000000  0.5794250000000 1.0
C      1  0.4209780000000  0.5070590000000  0.4664400000000 1.0
C      1  0.5339630000000  0.4207500000000  0.4931160000000 1.0
C      1  0.4663880000000  0.4207500000000  0.5073390000000 1.0
C      1  0.4663880000000  0.5791460000000  0.4931160000000 1.0
C      1  0.4930640000000  0.5337350000000  0.4210300000000 1.0
C      1  0.5072870000000  0.5337350000000  0.5794250000000 1.0
C      1  0.5072870000000  0.4661610000000  0.4210300000000 1.0
C      1  0.4209780000000  0.4928370000000  0.5340150000000 1.0
C      1  0.5793730000000  0.4928370000000  0.4664400000000 1.0
C      1  0.5793730000000  0.5070590000000  0.5340150000000 1.0
C      1  0.4926660000000  0.5176030000000  0.5782170000000 1.0
C      1  0.5781650000000  0.4924380000000  0.5178830000000 1.0
C      1  0.5178310000000  0.5779370000000  0.4927180000000 1.0
C      1  0.4926660000000  0.4822930000000  0.4222380000000 1.0
C      1  0.5076860000000  0.4822930000000  0.5782170000000 1.0
C      1  0.5076860000000  0.5176030000000  0.4222380000000 1.0
C      1  0.5781650000000  0.5074580000000  0.4825730000000 1.0
C      1  0.4221860000000  0.5074580000000  0.5178830000000 1.0
C      1  0.4221860000000  0.4924380000000  0.4825730000000 1.0
C      1  0.5178310000000  0.4219590000000  0.5077380000000 1.0
C      1  0.4825210000000  0.4219590000000  0.4927180000000 1.0
C      1  0.4825210000000  0.5779370000000  0.5077380000000 1.0
C      1  0.5076860000000  0.5176030000000  0.5782170000000 1.0
C      1  0.4221860000000  0.4924380000000  0.5178830000000 1.0
C      1  0.4825210000000  0.5779370000000  0.4927180000000 1.0
C      1  0.5076860000000  0.4822930000000  0.4222380000000 1.0
C      1  0.4926660000000  0.4822930000000  0.5782170000000 1.0
C      1  0.4926660000000  0.5176030000000  0.4222380000000 1.0
C      1  0.4221860000000  0.5074580000000  0.4825730000000 1.0
C      1  0.5781650000000  0.5074580000000  0.5178830000000 1.0
C      1  0.5781650000000  0.4924380000000  0.4825730000000 1.0
C      1  0.4825210000000  0.4219590000000  0.5077380000000 1.0
C      1  0.5178310000000  0.4219590000000  0.4927180000000 1.0
C      1  0.5178310000000  0.5779370000000  0.5077380000000 1.0
C      1  0.4439680000000  0.4717660000000  0.5293680000000 1.0
C      1  0.5293160000000  0.4437410000000  0.4720460000000 1.0
C      1  0.4719940000000  0.5290880000000  0.4440200000000 1.0
C      1  0.4439680000000  0.5281300000000  0.4710870000000 1.0
C      1  0.5563830000000  0.5281300000000  0.5293680000000 1.0
C      1  0.5563830000000  0.4717660000000  0.4710870000000 1.0
C      1  0.5293160000000  0.5561550000000  0.5284100000000 1.0
C      1  0.4710350000000  0.5561550000000  0.4720460000000 1.0
C      1  0.4710350000000  0.4437410000000  0.5284100000000 1.0
C      1  0.4719940000000  0.4708080000000  0.5564350000000 1.0
C      1  0.5283580000000  0.4708080000000  0.4440200000000 1.0
C      1  0.5283580000000  0.5290880000000  0.5564350000000 1.0
C      1  0.5563830000000  0.4717660000000  0.5293680000000 1.0
C      1  0.4710350000000  0.4437410000000  0.4720460000000 1.0
C      1  0.5283580000000  0.5290880000000  0.4440200000000 1.0
C      1  0.5563830000000  0.5281300000000  0.4710870000000 1.0
C      1  0.4439680000000  0.5281300000000  0.5293680000000 1.0
C      1  0.4439680000000  0.4717660000000  0.4710870000000 1.0
C      1  0.4710350000000  0.5561550000000  0.5284100000000 1.0
C      1  0.5293160000000  0.5561550000000  0.4720460000000 1.0
C      1  0.5293160000000  0.4437410000000  0.5284100000000 1.0
C      1  0.5283580000000  0.4708080000000  0.5564350000000 1.0
C      1  0.4719940000000  0.4708080000000  0.4440200000000 1.0
C      1  0.4719940000000  0.5290880000000  0.5564350000000 1.0
C      1  0.4709790000000  0.4699540000000  0.5722410000000 1.0
C      1  0.5721890000000  0.4707520000000  0.4702330000000 1.0
C      1  0.4701820000000  0.5719620000000  0.4710310000000 1.0
C      1  0.4709790000000  0.5299420000000  0.4282140000000 1.0
C      1  0.5293720000000  0.5299420000000  0.5722410000000 1.0
C      1  0.5293720000000  0.4699540000000  0.4282140000000 1.0
C      1  0.5721890000000  0.5291450000000  0.5302220000000 1.0
C      1  0.4281620000000  0.5291450000000  0.4702330000000 1.0
C      1  0.4281620000000  0.4707520000000  0.5302220000000 1.0
C      1  0.4701820000000  0.4279340000000  0.5294240000000 1.0
C      1  0.5301700000000  0.4279340000000  0.4710310000000 1.0
C      1  0.5301700000000  0.5719620000000  0.5294240000000 1.0
C      1  0.5293720000000  0.4699540000000  0.5722410000000 1.0
C      1  0.4281620000000  0.4707520000000  0.4702330000000 1.0
C      1  0.5301700000000  0.5719620000000  0.4710310000000 1.0
C      1  0.5293720000000  0.5299420000000  0.4282140000000 1.0
C      1  0.4709790000000  0.5299420000000  0.5722410000000 1.0
C      1  0.4709790000000  0.4699540000000  0.4282140000000 1.0
C      1  0.4281620000000  0.5291450000000  0.5302220000000 1.0
C      1  0.5721890000000  0.5291450000000  0.4702330000000 1.0
C      1  0.5721890000000  0.4707520000000  0.5302220000000 1.0
C      1  0.5301700000000  0.4279340000000  0.5294240000000 1.0
C      1  0.4701820000000  0.4279340000000  0.4710310000000 1.0
C      1  0.4701820000000  0.5719620000000  0.5294240000000 1.0
C      1  0.4574230000000  0.4457480000000  0.4666980000000 1.0
C      1  0.4666460000000  0.4571950000000  0.4460280000000 1.0
C      1  0.4459760000000  0.4664180000000  0.4574750000000 1.0
C      1  0.4574230000000  0.5541480000000  0.5337570000000 1.0
C      1  0.5429290000000  0.5541480000000  0.4666980000000 1.0
C      1  0.5429290000000  0.4457480000000  0.5337570000000 1.0
C      1  0.4666460000000  0.5427010000000  0.5544280000000 1.0
C      1  0.5337050000000  0.5427010000000  0.4460280000000 1.0
C      1  0.5337050000000  0.4571950000000  0.5544280000000 1.0
C      1  0.4459760000000  0.5334780000000  0.5429810000000 1.0
C      1  0.5543760000000  0.5334780000000  0.4574750000000 1.0
C      1  0.5543760000000  0.4664180000000  0.5429810000000 1.0
C      1  0.5429290000000  0.4457480000000  0.4666980000000 1.0
C      1  0.5337050000000  0.4571950000000  0.4460280000000 1.0
C      1  0.5543760000000  0.4664180000000  0.4574750000000 1.0
C      1  0.5429290000000  0.5541480000000  0.5337570000000 1.0
C      1  0.4574230000000  0.5541480000000  0.4666980000000 1.0
C      1  0.4574230000000  0.4457480000000  0.5337570000000 1.0
C      1  0.5337050000000  0.5427010000000  0.5544280000000 1.0
C      1  0.4666460000000  0.5427010000000  0.4460280000000 1.0
C      1  0.4666460000000  0.4571950000000  0.5544280000000 1.0
C      1  0.5543760000000  0.5334780000000  0.5429810000000 1.0
C      1  0.4459760000000  0.5334780000000  0.4574750000000 1.0
C      1  0.4459760000000  0.4664180000000  0.5429810000000 1.0
C      1  0.5311640000000  0.4926320000000  0.4172370000000 1.0
C      1  0.4171860000000  0.5309360000000  0.4929110000000 1.0
C      1  0.4928590000000  0.4169580000000  0.5312160000000 1.0
C      1  0.5311640000000  0.5072640000000  0.5832180000000 1.0
C      1  0.4691880000000  0.5072640000000  0.4172370000000 1.0
C      1  0.4691880000000  0.4926320000000  0.5832180000000 1.0
C      1  0.4171860000000  0.4689600000000  0.5075440000000 1.0
C      1  0.5831660000000  0.4689600000000  0.4929110000000 1.0
C      1  0.5831660000000  0.5309360000000  0.5075440000000 1.0
C      1  0.4928590000000  0.5829380000000  0.4692400000000 1.0
C      1  0.5074920000000  0.5829380000000  0.5312160000000 1.0
C      1  0.5074920000000  0.4169580000000  0.4692400000000 1.0
C      1  0.4691880000000  0.4926320000000  0.4172370000000 1.0
C      1  0.5831660000000  0.5309360000000  0.4929110000000 1.0
C      1  0.5074920000000  0.4169580000000  0.5312160000000 1.0
C      1  0.4691880000000  0.5072640000000  0.5832180000000 1.0
C      1  0.5311640000000  0.5072640000000  0.4172370000000 1.0
C      1  0.5311640000000  0.4926320000000  0.5832180000000 1.0
C      1  0.5831660000000  0.4689600000000  0.5075440000000 1.0
C      1  0.4171860000000  0.4689600000000  0.4929110000000 1.0
C      1  0.4171860000000  0.5309360000000  0.5075440000000 1.0
C      1  0.5074920000000  0.5829380000000  0.4692400000000 1.0
C      1  0.4928590000000  0.5829380000000  0.5312160000000 1.0
C      1  0.4928590000000  0.4169580000000  0.4692400000000 1.0
C      1  0.5345090000000  0.5171940000000  0.5737060000000 1.0
C      1  0.5736540000000  0.5342820000000  0.5174740000000 1.0
C      1  0.5174220000000  0.5734260000000  0.5345610000000 1.0
C      1  0.5345090000000  0.4827020000000  0.4267490000000 1.0
C      1  0.4658420000000  0.4827020000000  0.5737060000000 1.0
C      1  0.4658420000000  0.5171940000000  0.4267490000000 1.0
C      1  0.5736540000000  0.4656150000000  0.4829810000000 1.0
C      1  0.4266970000000  0.4656150000000  0.5174740000000 1.0
C      1  0.4266970000000  0.5342820000000  0.4829810000000 1.0
C      1  0.5174220000000  0.4264700000000  0.4658940000000 1.0
C      1  0.4829290000000  0.4264700000000  0.5345610000000 1.0
C      1  0.4829290000000  0.5734260000000  0.4658940000000 1.0
C      1  0.4658420000000  0.5171940000000  0.5737060000000 1.0
C      1  0.4266970000000  0.5342820000000  0.5174740000000 1.0
C      1  0.4829290000000  0.5734260000000  0.5345610000000 1.0
C      1  0.4658420000000  0.4827020000000  0.4267490000000 1.0
C      1  0.5345090000000  0.4827020000000  0.5737060000000 1.0
C      1  0.5345090000000  0.5171940000000  0.4267490000000 1.0
C      1  0.4266970000000  0.4656150000000  0.4829810000000 1.0
C      1  0.5736540000000  0.4656150000000  0.5174740000000 1.0
C      1  0.5736540000000  0.5342820000000  0.4829810000000 1.0
C      1  0.4829290000000  0.4264700000000  0.4658940000000 1.0
C      1  0.5174220000000  0.4264700000000  0.5345610000000 1.0
C      1  0.5174220000000  0.5734260000000  0.4658940000000 1.0
C      1  0.4426270000000  0.4679900000000  0.5145190000000 1.0
C      1  0.5144670000000  0.4423990000000  0.4682690000000 1.0
C      1  0.4682170000000  0.5142390000000  0.4426790000000 1.0
C      1  0.4426270000000  0.5319070000000  0.4859360000000 1.0
C      1  0.5577250000000  0.5319070000000  0.5145190000000 1.0
C      1  0.5577250000000  0.4679900000000  0.4859360000000 1.0
C      1  0.5144670000000  0.5574970000000  0.5321860000000 1.0
C      1  0.4858840000000  0.5574970000000  0.4682690000000 1.0
C      1  0.4858840000000  0.4423990000000  0.5321860000000 1.0
C      1  0.4682170000000  0.4856570000000  0.5577770000000 1.0
C      1  0.5321340000000  0.4856570000000  0.4426790000000 1.0
C      1  0.5321340000000  0.5142390000000  0.5577770000000 1.0
C      1  0.5577250000000  0.4679900000000  0.5145190000000 1.0
C      1  0.4858840000000  0.4423990000000  0.4682690000000 1.0
C      1  0.5321340000000  0.5142390000000  0.4426790000000 1.0
C      1  0.5577250000000  0.5319070000000  0.4859360000000 1.0
C      1  0.4426270000000  0.5319070000000  0.5145190000000 1.0
C      1  0.4426270000000  0.4679900000000  0.4859360000000 1.0
C      1  0.4858840000000  0.5574970000000  0.5321860000000 1.0
C      1  0.5144670000000  0.5574970000000  0.4682690000000 1.0
C      1  0.5144670000000  0.4423990000000  0.5321860000000 1.0
C      1  0.5321340000000  0.4856570000000  0.5577770000000 1.0
C      1  0.4682170000000  0.4856570000000  0.4426790000000 1.0
C      1  0.4682170000000  0.5142390000000  0.5577770000000 1.0
C      1  0.5068990000000  0.4428140000000  0.4818160000000 1.0
C      1  0.4817640000000  0.5066720000000  0.4430930000000 1.0
C      1  0.4430410000000  0.4815360000000  0.5069510000000 1.0
C      1  0.5068990000000  0.5570820000000  0.5186390000000 1.0
C      1  0.4934520000000  0.5570820000000  0.4818160000000 1.0
C      1  0.4934520000000  0.4428140000000  0.5186390000000 1.0
C      1  0.4817640000000  0.4932240000000  0.5573620000000 1.0
C      1  0.5185870000000  0.4932240000000  0.4430930000000 1.0
C      1  0.5185870000000  0.5066720000000  0.5573620000000 1.0
C      1  0.4430410000000  0.5183600000000  0.4935040000000 1.0
C      1  0.5573100000000  0.5183600000000  0.5069510000000 1.0
C      1  0.5573100000000  0.4815360000000  0.4935040000000 1.0
C      1  0.4934520000000  0.4428140000000  0.4818160000000 1.0
C      1  0.5185870000000  0.5066720000000  0.4430930000000 1.0
C      1  0.5573100000000  0.4815360000000  0.5069510000000 1.0
C      1  0.4934520000000  0.5570820000000  0.5186390000000 1.0
C      1  0.5068990000000  0.5570820000000  0.4818160000000 1.0
C      1  0.5068990000000  0.4428140000000  0.5186390000000 1.0
C      1  0.5185870000000  0.4932240000000  0.5573620000000 1.0
C      1  0.4817640000000  0.4932240000000  0.4430930000000 1.0
C      1  0.4817640000000  0.5066720000000  0.5573620000000 1.0
C      1  0.5573100000000  0.5183600000000  0.4935040000000 1.0
C      1  0.4430410000000  0.5183600000000  0.5069510000000 1.0
C      1  0.4430410000000  0.4815360000000  0.4935040000000 1.0
C      1  0.5853540000000  0.4836610000000  0.5074850000000 1.0
C      1  0.5074330000000  0.5851260000000  0.4839410000000 1.0
C      1  0.4838890000000  0.5072050000000  0.5854060000000 1.0
C      1  0.5853540000000  0.5162350000000  0.4929710000000 1.0
C      1  0.4149970000000  0.5162350000000  0.5074850000000 1.0
C      1  0.4149970000000  0.4836610000000  0.4929710000000 1.0
C      1  0.5074330000000  0.4147700000000  0.5165140000000 1.0
C      1  0.4929190000000  0.4147700000000  0.4839410000000 1.0
C      1  0.4929190000000  0.5851260000000  0.5165140000000 1.0
C      1  0.4838890000000  0.4926910000000  0.4150490000000 1.0
C      1  0.5164630000000  0.4926910000000  0.5854060000000 1.0
C      1  0.5164630000000  0.5072050000000  0.4150490000000 1.0
C      1  0.4149970000000  0.4836610000000  0.5074850000000 1.0
C      1  0.4929190000000  0.5851260000000  0.4839410000000 1.0
C      1  0.5164630000000  0.5072050000000  0.5854060000000 1.0
C      1  0.4149970000000  0.5162350000000  0.4929710000000 1.0
C      1  0.5853540000000  0.5162350000000  0.5074850000000 1.0
C      1  0.5853540000000  0.4836610000000  0.4929710000000 1.0
C      1  0.4929190000000  0.4147700000000  0.5165140000000 1.0
C      1  0.5074330000000  0.4147700000000  0.4839410000000 1.0
C      1  0.5074330000000  0.5851260000000  0.5165140000000 1.0
C      1  0.5164630000000  0.4926910000000  0.4150490000000 1.0
C      1  0.4838890000000  0.4926910000000  0.5854060000000 1.0
C      1  0.4838890000000  0.5072050000000  0.4150490000000 1.0
C      1  0.5198400000000  0.4598310000000  0.5751820000000 1.0
C      1  0.5751300000000  0.5196120000000  0.4601110000000 1.0
C      1  0.4600590000000  0.5749020000000  0.5198920000000 1.0
C      1  0.5198400000000  0.5400650000000  0.4252740000000 1.0
C      1  0.4805110000000  0.5400650000000  0.5751820000000 1.0
C      1  0.4805110000000  0.4598310000000  0.4252740000000 1.0
C      1  0.5751300000000  0.4802840000000  0.5403440000000 1.0
C      1  0.4252220000000  0.4802840000000  0.4601110000000 1.0
C      1  0.4252220000000  0.5196120000000  0.5403440000000 1.0
C      1  0.4600590000000  0.4249940000000  0.4805630000000 1.0
C      1  0.5402920000000  0.4249940000000  0.5198920000000 1.0
C      1  0.5402920000000  0.5749020000000  0.4805630000000 1.0
C      1  0.4805110000000  0.4598310000000  0.5751820000000 1.0
C      1  0.4252220000000  0.5196120000000  0.4601110000000 1.0
C      1  0.5402920000000  0.5749020000000  0.5198920000000 1.0
C      1  0.4805110000000  0.5400650000000  0.4252740000000 1.0
C      1  0.5198400000000  0.5400650000000  0.5751820000000 1.0
C      1  0.5198400000000  0.4598310000000  0.4252740000000 1.0
C      1  0.4252220000000  0.4802840000000  0.5403440000000 1.0
C      1  0.5751300000000  0.4802840000000  0.4601110000000 1.0
C      1  0.5751300000000  0.5196120000000  0.5403440000000 1.0
C      1  0.5402920000000  0.4249940000000  0.4805630000000 1.0
C      1  0.4600590000000  0.4249940000000  0.5198920000000 1.0
C      1  0.4600590000000  0.5749020000000  0.4805630000000 1.0
C      1  0.5503070000000  0.4357860000000  0.5249240000000 1.0
C      1  0.5248720000000  0.5500800000000  0.4360660000000 1.0
C      1  0.4360140000000  0.5246440000000  0.5503590000000 1.0
C      1  0.5503070000000  0.5641100000000  0.4755310000000 1.0
C      1  0.4500440000000  0.5641100000000  0.5249240000000 1.0
C      1  0.4500440000000  0.4357860000000  0.4755310000000 1.0
C      1  0.5248720000000  0.4498170000000  0.5643900000000 1.0
C      1  0.4754790000000  0.4498170000000  0.4360660000000 1.0
C      1  0.4754790000000  0.5500800000000  0.5643900000000 1.0
C      1  0.4360140000000  0.4752520000000  0.4500960000000 1.0
C      1  0.5643380000000  0.4752520000000  0.5503590000000 1.0
C      1  0.5643380000000  0.5246440000000  0.4500960000000 1.0
C      1  0.4500440000000  0.4357860000000  0.5249240000000 1.0
C      1  0.4754790000000  0.5500800000000  0.4360660000000 1.0
C      1  0.5643380000000  0.5246440000000  0.5503590000000 1.0
C      1  0.4500440000000  0.5641100000000  0.4755310000000 1.0
C      1  0.5503070000000  0.5641100000000  0.5249240000000 1.0
C      1  0.5503070000000  0.4357860000000  0.4755310000000 1.0
C      1  0.4754790000000  0.4498170000000  0.5643900000000 1.0
C      1  0.5248720000000  0.4498170000000  0.4360660000000 1.0
C      1  0.5248720000000  0.5500800000000  0.5643900000000 1.0
C      1  0.5643380000000  0.4752520000000  0.4500960000000 1.0
C      1  0.4360140000000  0.4752520000000  0.5503590000000 1.0
C      1  0.4360140000000  0.5246440000000  0.4500960000000 1.0
C      1  0.4555910000000  0.4553640000000  0.5448120000000 1.0
C      1  0.4555910000000  0.5445330000000  0.4556430000000 1.0
C      1  0.5447600000000  0.4553640000000  0.5448120000000 1.0
C      1  0.5447600000000  0.5445330000000  0.4556430000000 1.0
C      1  0.5447600000000  0.5445330000000  0.5448120000000 1.0
C      1  0.5447600000000  0.4553640000000  0.4556430000000 1.0
C      1  0.4555910000000  0.5445330000000  0.5448120000000 1.0
C      1  0.4555910000000  0.4553640000000  0.4556430000000 1.0
END
