TITL C-1379265-1223-81 -9.22483337919784e-07 1000000 -1251.07046197183 0 0 180 (Td) n - 1
REM
REM in /nfs/bkarasulu/CARBON/AIRSS/Generating-Clusters/GAP-ML-2020/Higher-Symm/Selected-Sizes/TryA-Only_Ih-Symm/Larger-Clusters/Try2-MINAMP_6A
REM
REM
REM
REM
REM
REM ./C.cell (31579ac4e95a012ec27f3239692ae8a5)
REM
REM compiler GCC version 9.2.1 20190827 (Red Hat 9.2.1-1)
REM options -cpp -mtune=generic -march=x86-64 -g -O0 -fpre-include=/usr/include/finclude/math-vector-fortran.h
REM seed 1661722120 185918765 -1026172526 -1780028695 -1234752567 -166848891 -1104304424 291813097 -656171403 359605370 -1259077430 -1246450443 -425669194 -583047271 -1645998353 -1825126326 1880776916 -138159720 492369912 -525527106 883381730 -286237157 1959343026 -269363843 366801697 1567798892 -671100372 537499316 -1808952911 -175697526 -103435259 1892013677 -679657951
REM
CELL 1.54180  100.00000  100.00000  100.00000   90.00000   90.00000   90.00000
LATT -1
SFAC C  
C      1  0.4937890000000  0.4344810000000  0.4564630000000 1.0
C      1  0.4564630000000  0.4937890000000  0.4344810000000 1.0
C      1  0.4344810000000  0.4564630000000  0.4937890000000 1.0
C      1  0.4937890000000  0.5655190000000  0.5435370000000 1.0
C      1  0.5062110000000  0.5655190000000  0.4564630000000 1.0
C      1  0.5062110000000  0.4344810000000  0.5435370000000 1.0
C      1  0.4564630000000  0.5062110000000  0.5655190000000 1.0
C      1  0.5435370000000  0.5062110000000  0.4344810000000 1.0
C      1  0.5435370000000  0.4937890000000  0.5655190000000 1.0
C      1  0.4344810000000  0.5435370000000  0.5062110000000 1.0
C      1  0.5655190000000  0.5435370000000  0.4937890000000 1.0
C      1  0.5655190000000  0.4564630000000  0.5062110000000 1.0
C      1  0.4937890000000  0.4564630000000  0.4344810000000 1.0
C      1  0.4564630000000  0.4344810000000  0.4937890000000 1.0
C      1  0.4344810000000  0.4937890000000  0.4564630000000 1.0
C      1  0.4937890000000  0.5435370000000  0.5655190000000 1.0
C      1  0.5062110000000  0.4564630000000  0.5655190000000 1.0
C      1  0.5062110000000  0.5435370000000  0.4344810000000 1.0
C      1  0.4564630000000  0.5655190000000  0.5062110000000 1.0
C      1  0.5435370000000  0.4344810000000  0.5062110000000 1.0
C      1  0.5435370000000  0.5655190000000  0.4937890000000 1.0
C      1  0.4344810000000  0.5062110000000  0.5435370000000 1.0
C      1  0.5655190000000  0.4937890000000  0.5435370000000 1.0
C      1  0.5655190000000  0.5062110000000  0.4564630000000 1.0
C      1  0.4942790000000  0.4856200000000  0.5726470000000 1.0
C      1  0.5726470000000  0.4942790000000  0.4856200000000 1.0
C      1  0.4856200000000  0.5726470000000  0.4942790000000 1.0
C      1  0.4942790000000  0.5143800000000  0.4273530000000 1.0
C      1  0.5057210000000  0.5143800000000  0.5726470000000 1.0
C      1  0.5057210000000  0.4856200000000  0.4273530000000 1.0
C      1  0.5726470000000  0.5057210000000  0.5143800000000 1.0
C      1  0.4273530000000  0.5057210000000  0.4856200000000 1.0
C      1  0.4273530000000  0.4942790000000  0.5143800000000 1.0
C      1  0.4856200000000  0.4273530000000  0.5057210000000 1.0
C      1  0.5143800000000  0.4273530000000  0.4942790000000 1.0
C      1  0.5143800000000  0.5726470000000  0.5057210000000 1.0
C      1  0.4942790000000  0.5726470000000  0.4856200000000 1.0
C      1  0.5726470000000  0.4856200000000  0.4942790000000 1.0
C      1  0.4856200000000  0.4942790000000  0.5726470000000 1.0
C      1  0.4942790000000  0.4273530000000  0.5143800000000 1.0
C      1  0.5057210000000  0.5726470000000  0.5143800000000 1.0
C      1  0.5057210000000  0.4273530000000  0.4856200000000 1.0
C      1  0.5726470000000  0.5143800000000  0.5057210000000 1.0
C      1  0.4273530000000  0.4856200000000  0.5057210000000 1.0
C      1  0.4273530000000  0.5143800000000  0.4942790000000 1.0
C      1  0.4856200000000  0.5057210000000  0.4273530000000 1.0
C      1  0.5143800000000  0.4942790000000  0.4273530000000 1.0
C      1  0.5143800000000  0.5057210000000  0.5726470000000 1.0
C      1  0.4433160000000  0.5470400000000  0.5184670000000 1.0
C      1  0.5184670000000  0.4433160000000  0.5470400000000 1.0
C      1  0.5470400000000  0.5184670000000  0.4433160000000 1.0
C      1  0.4433160000000  0.4529600000000  0.4815330000000 1.0
C      1  0.5566840000000  0.4529600000000  0.5184670000000 1.0
C      1  0.5566840000000  0.5470400000000  0.4815330000000 1.0
C      1  0.5184670000000  0.5566840000000  0.4529600000000 1.0
C      1  0.4815330000000  0.5566840000000  0.5470400000000 1.0
C      1  0.4815330000000  0.4433160000000  0.4529600000000 1.0
C      1  0.5470400000000  0.4815330000000  0.5566840000000 1.0
C      1  0.4529600000000  0.4815330000000  0.4433160000000 1.0
C      1  0.4529600000000  0.5184670000000  0.5566840000000 1.0
C      1  0.4433160000000  0.5184670000000  0.5470400000000 1.0
C      1  0.5184670000000  0.5470400000000  0.4433160000000 1.0
C      1  0.5470400000000  0.4433160000000  0.5184670000000 1.0
C      1  0.4433160000000  0.4815330000000  0.4529600000000 1.0
C      1  0.5566840000000  0.5184670000000  0.4529600000000 1.0
C      1  0.5566840000000  0.4815330000000  0.5470400000000 1.0
C      1  0.5184670000000  0.4529600000000  0.5566840000000 1.0
C      1  0.4815330000000  0.5470400000000  0.5566840000000 1.0
C      1  0.4815330000000  0.4529600000000  0.4433160000000 1.0
C      1  0.5470400000000  0.5566840000000  0.4815330000000 1.0
C      1  0.4529600000000  0.4433160000000  0.4815330000000 1.0
C      1  0.4529600000000  0.5566840000000  0.5184670000000 1.0
C      1  0.5717820000000  0.4920330000000  0.5181880000000 1.0
C      1  0.5181880000000  0.5717820000000  0.4920330000000 1.0
C      1  0.4920330000000  0.5181880000000  0.5717820000000 1.0
C      1  0.5717820000000  0.5079670000000  0.4818120000000 1.0
C      1  0.4282180000000  0.5079670000000  0.5181880000000 1.0
C      1  0.4282180000000  0.4920330000000  0.4818120000000 1.0
C      1  0.5181880000000  0.4282180000000  0.5079670000000 1.0
C      1  0.4818120000000  0.4282180000000  0.4920330000000 1.0
C      1  0.4818120000000  0.5717820000000  0.5079670000000 1.0
C      1  0.4920330000000  0.4818120000000  0.4282180000000 1.0
C      1  0.5079670000000  0.4818120000000  0.5717820000000 1.0
C      1  0.5079670000000  0.5181880000000  0.4282180000000 1.0
C      1  0.5717820000000  0.5181880000000  0.4920330000000 1.0
C      1  0.5181880000000  0.4920330000000  0.5717820000000 1.0
C      1  0.4920330000000  0.5717820000000  0.5181880000000 1.0
C      1  0.5717820000000  0.4818120000000  0.5079670000000 1.0
C      1  0.4282180000000  0.5181880000000  0.5079670000000 1.0
C      1  0.4282180000000  0.4818120000000  0.4920330000000 1.0
C      1  0.5181880000000  0.5079670000000  0.4282180000000 1.0
C      1  0.4818120000000  0.4920330000000  0.4282180000000 1.0
C      1  0.4818120000000  0.5079670000000  0.5717820000000 1.0
C      1  0.4920330000000  0.4282180000000  0.4818120000000 1.0
C      1  0.5079670000000  0.5717820000000  0.4818120000000 1.0
C      1  0.5079670000000  0.4282180000000  0.5181880000000 1.0
C      1  0.5343330000000  0.5246290000000  0.4386630000000 1.0
C      1  0.4386630000000  0.5343330000000  0.5246290000000 1.0
C      1  0.5246290000000  0.4386630000000  0.5343330000000 1.0
C      1  0.5343330000000  0.4753710000000  0.5613370000000 1.0
C      1  0.4656670000000  0.4753710000000  0.4386630000000 1.0
C      1  0.4656670000000  0.5246290000000  0.5613370000000 1.0
C      1  0.4386630000000  0.4656670000000  0.4753710000000 1.0
C      1  0.5613370000000  0.4656670000000  0.5246290000000 1.0
C      1  0.5613370000000  0.5343330000000  0.4753710000000 1.0
C      1  0.5246290000000  0.5613370000000  0.4656670000000 1.0
C      1  0.4753710000000  0.5613370000000  0.5343330000000 1.0
C      1  0.4753710000000  0.4386630000000  0.4656670000000 1.0
C      1  0.5343330000000  0.4386630000000  0.5246290000000 1.0
C      1  0.4386630000000  0.5246290000000  0.5343330000000 1.0
C      1  0.5246290000000  0.5343330000000  0.4386630000000 1.0
C      1  0.5343330000000  0.5613370000000  0.4753710000000 1.0
C      1  0.4656670000000  0.4386630000000  0.4753710000000 1.0
C      1  0.4656670000000  0.5613370000000  0.5246290000000 1.0
C      1  0.4386630000000  0.4753710000000  0.4656670000000 1.0
C      1  0.5613370000000  0.5246290000000  0.4656670000000 1.0
C      1  0.5613370000000  0.4753710000000  0.5343330000000 1.0
C      1  0.5246290000000  0.4656670000000  0.5613370000000 1.0
C      1  0.4753710000000  0.5343330000000  0.5613370000000 1.0
C      1  0.4753710000000  0.4656670000000  0.4386630000000 1.0
C      1  0.4498990000000  0.4945420000000  0.5671970000000 1.0
C      1  0.5671970000000  0.4498990000000  0.4945420000000 1.0
C      1  0.4945420000000  0.5671970000000  0.4498990000000 1.0
C      1  0.4498990000000  0.5054580000000  0.4328030000000 1.0
C      1  0.5501010000000  0.5054580000000  0.5671970000000 1.0
C      1  0.5501010000000  0.4945420000000  0.4328030000000 1.0
C      1  0.5671970000000  0.5501010000000  0.5054580000000 1.0
C      1  0.4328030000000  0.5501010000000  0.4945420000000 1.0
C      1  0.4328030000000  0.4498990000000  0.5054580000000 1.0
C      1  0.4945420000000  0.4328030000000  0.5501010000000 1.0
C      1  0.5054580000000  0.4328030000000  0.4498990000000 1.0
C      1  0.5054580000000  0.5671970000000  0.5501010000000 1.0
C      1  0.4498990000000  0.5671970000000  0.4945420000000 1.0
C      1  0.5671970000000  0.4945420000000  0.4498990000000 1.0
C      1  0.4945420000000  0.4498990000000  0.5671970000000 1.0
C      1  0.4498990000000  0.4328030000000  0.5054580000000 1.0
C      1  0.5501010000000  0.5671970000000  0.5054580000000 1.0
C      1  0.5501010000000  0.4328030000000  0.4945420000000 1.0
C      1  0.5671970000000  0.5054580000000  0.5501010000000 1.0
C      1  0.4328030000000  0.4945420000000  0.5501010000000 1.0
C      1  0.4328030000000  0.5054580000000  0.4498990000000 1.0
C      1  0.4945420000000  0.5501010000000  0.4328030000000 1.0
C      1  0.5054580000000  0.4498990000000  0.4328030000000 1.0
C      1  0.5054580000000  0.5501010000000  0.5671970000000 1.0
C      1  0.4315260000000  0.4876180000000  0.4691210000000 1.0
C      1  0.4691210000000  0.4315260000000  0.4876180000000 1.0
C      1  0.4876180000000  0.4691210000000  0.4315260000000 1.0
C      1  0.4315260000000  0.5123820000000  0.5308790000000 1.0
C      1  0.5684740000000  0.5123820000000  0.4691210000000 1.0
C      1  0.5684740000000  0.4876180000000  0.5308790000000 1.0
C      1  0.4691210000000  0.5684740000000  0.5123820000000 1.0
C      1  0.5308790000000  0.5684740000000  0.4876180000000 1.0
C      1  0.5308790000000  0.4315260000000  0.5123820000000 1.0
C      1  0.4876180000000  0.5308790000000  0.5684740000000 1.0
C      1  0.5123820000000  0.5308790000000  0.4315260000000 1.0
C      1  0.5123820000000  0.4691210000000  0.5684740000000 1.0
C      1  0.4315260000000  0.4691210000000  0.4876180000000 1.0
C      1  0.4691210000000  0.4876180000000  0.4315260000000 1.0
C      1  0.4876180000000  0.4315260000000  0.4691210000000 1.0
C      1  0.4315260000000  0.5308790000000  0.5123820000000 1.0
C      1  0.5684740000000  0.4691210000000  0.5123820000000 1.0
C      1  0.5684740000000  0.5308790000000  0.4876180000000 1.0
C      1  0.4691210000000  0.5123820000000  0.5684740000000 1.0
C      1  0.5308790000000  0.4876180000000  0.5684740000000 1.0
C      1  0.5308790000000  0.5123820000000  0.4315260000000 1.0
C      1  0.4876180000000  0.5684740000000  0.5308790000000 1.0
C      1  0.5123820000000  0.4315260000000  0.5308790000000 1.0
C      1  0.5123820000000  0.5684740000000  0.4691210000000 1.0
C      1  0.4400010000000  0.4901210000000  0.5599990000000 1.0
C      1  0.5599990000000  0.4901210000000  0.4400010000000 1.0
C      1  0.4400010000000  0.5599990000000  0.4901210000000 1.0
C      1  0.5599990000000  0.4400010000000  0.4901210000000 1.0
C      1  0.4901210000000  0.4400010000000  0.5599990000000 1.0
C      1  0.4901210000000  0.5599990000000  0.4400010000000 1.0
C      1  0.4400010000000  0.5098790000000  0.4400010000000 1.0
C      1  0.4400010000000  0.4400010000000  0.5098790000000 1.0
C      1  0.5098790000000  0.4400010000000  0.4400010000000 1.0
C      1  0.5599990000000  0.5098790000000  0.5599990000000 1.0
C      1  0.5599990000000  0.5599990000000  0.5098790000000 1.0
C      1  0.5098790000000  0.5599990000000  0.5599990000000 1.0
END
