TITL C-1379266-1300-147 -1.5992135989451e-06 1000000 -3023.43320069703 0 0 440 (Th) n - 1
REM
REM in /nfs/bkarasulu/CARBON/AIRSS/Generating-Clusters/GAP-ML-2020/Higher-Symm/Selected-Sizes/TryA-Only_Ih-Symm/Larger-Clusters/Try2-MINAMP_6A
REM
REM
REM
REM
REM
REM ./C.cell (31579ac4e95a012ec27f3239692ae8a5)
REM
REM compiler GCC version 9.2.1 20190827 (Red Hat 9.2.1-1)
REM options -cpp -mtune=generic -march=x86-64 -g -O0 -fpre-include=/usr/include/finclude/math-vector-fortran.h
REM seed 1825455611 -270721841 1095168672 -307554382 1046817277 -258735719 -998677442 -1604865477 -206135853 -1869906747 677733223 -40304143 -1794045786 1837829148 1411226025 -954803570 1867273722 2083648639 -1038590753 -876164235 -707154241 -709281769 492439568 -821130988 -548706257 1493635056 -928248564 -1937632972 -89047926 -461487859 1744516723 978275830 1096345411
REM
CELL 1.54180  100.00000  100.00000  100.00000   90.00000   90.00000   90.00000
LATT -1
SFAC C  
C      1  0.4751230000000  0.4857110000000  0.4767440000000 1.0
C      1  0.4854950000000  0.4765760000000  0.4755060000000 1.0
C      1  0.4763610000000  0.4753380000000  0.4858790000000 1.0
C      1  0.5245410000000  0.4857110000000  0.5236870000000 1.0
C      1  0.5245410000000  0.5143840000000  0.4767440000000 1.0
C      1  0.4751230000000  0.5143840000000  0.5236870000000 1.0
C      1  0.5141680000000  0.4765760000000  0.5249240000000 1.0
C      1  0.5141680000000  0.5235180000000  0.4755060000000 1.0
C      1  0.4854950000000  0.5235180000000  0.5249240000000 1.0
C      1  0.5233030000000  0.4753380000000  0.5145520000000 1.0
C      1  0.5233030000000  0.5247560000000  0.4858790000000 1.0
C      1  0.4763610000000  0.5247560000000  0.5145520000000 1.0
C      1  0.4751230000000  0.5143840000000  0.4767440000000 1.0
C      1  0.4854950000000  0.5235180000000  0.4755060000000 1.0
C      1  0.4763610000000  0.5247560000000  0.4858790000000 1.0
C      1  0.5245410000000  0.5143840000000  0.5236870000000 1.0
C      1  0.5245410000000  0.4857110000000  0.4767440000000 1.0
C      1  0.4751230000000  0.4857110000000  0.5236870000000 1.0
C      1  0.5141680000000  0.5235180000000  0.5249240000000 1.0
C      1  0.5141680000000  0.4765760000000  0.4755060000000 1.0
C      1  0.4854950000000  0.4765760000000  0.5249240000000 1.0
C      1  0.5233030000000  0.5247560000000  0.5145520000000 1.0
C      1  0.5233030000000  0.4753380000000  0.4858790000000 1.0
C      1  0.4763610000000  0.4753380000000  0.5145520000000 1.0
C      1  0.4507430000000  0.4733630000000  0.5259000000000 1.0
C      1  0.4731470000000  0.5257320000000  0.4511260000000 1.0
C      1  0.5255160000000  0.4509580000000  0.4735310000000 1.0
C      1  0.5489210000000  0.4733630000000  0.4745310000000 1.0
C      1  0.5489210000000  0.5267320000000  0.5259000000000 1.0
C      1  0.4507430000000  0.5267320000000  0.4745310000000 1.0
C      1  0.5265170000000  0.5257320000000  0.5493050000000 1.0
C      1  0.5265170000000  0.4743630000000  0.4511260000000 1.0
C      1  0.4731470000000  0.4743630000000  0.5493050000000 1.0
C      1  0.4741480000000  0.4509580000000  0.5269000000000 1.0
C      1  0.4741480000000  0.5491370000000  0.4735310000000 1.0
C      1  0.5255160000000  0.5491360000000  0.5269000000000 1.0
C      1  0.4507430000000  0.5267320000000  0.5259000000000 1.0
C      1  0.4731470000000  0.4743630000000  0.4511260000000 1.0
C      1  0.5255160000000  0.5491360000000  0.4735310000000 1.0
C      1  0.5489210000000  0.5267320000000  0.4745310000000 1.0
C      1  0.5489210000000  0.4733630000000  0.5259000000000 1.0
C      1  0.4507430000000  0.4733630000000  0.4745310000000 1.0
C      1  0.5265170000000  0.4743630000000  0.5493050000000 1.0
C      1  0.5265170000000  0.5257320000000  0.4511260000000 1.0
C      1  0.4731470000000  0.5257320000000  0.5493050000000 1.0
C      1  0.4741480000000  0.5491370000000  0.5269000000000 1.0
C      1  0.4741480000000  0.4509580000000  0.4735310000000 1.0
C      1  0.5255160000000  0.4509580000000  0.5269000000000 1.0
C      1  0.4651250000000  0.4857260000000  0.5467100000000 1.0
C      1  0.4855110000000  0.5465420000000  0.4655080000000 1.0
C      1  0.5463270000000  0.4653400000000  0.4858940000000 1.0
C      1  0.5345390000000  0.4857260000000  0.4537210000000 1.0
C      1  0.5345390000000  0.5143690000000  0.5467100000000 1.0
C      1  0.4651250000000  0.5143690000000  0.4537210000000 1.0
C      1  0.5141530000000  0.5465420000000  0.5349230000000 1.0
C      1  0.5141530000000  0.4535530000000  0.4655080000000 1.0
C      1  0.4855110000000  0.4535530000000  0.5349230000000 1.0
C      1  0.4533370000000  0.4653400000000  0.5145370000000 1.0
C      1  0.4533370000000  0.5347550000000  0.4858940000000 1.0
C      1  0.5463270000000  0.5347550000000  0.5145370000000 1.0
C      1  0.4651250000000  0.5143690000000  0.5467100000000 1.0
C      1  0.4855110000000  0.4535530000000  0.4655080000000 1.0
C      1  0.5463270000000  0.5347550000000  0.4858940000000 1.0
C      1  0.5345390000000  0.5143690000000  0.4537210000000 1.0
C      1  0.5345390000000  0.4857260000000  0.5467100000000 1.0
C      1  0.4651250000000  0.4857260000000  0.4537210000000 1.0
C      1  0.5141530000000  0.4535530000000  0.5349230000000 1.0
C      1  0.5141530000000  0.5465420000000  0.4655080000000 1.0
C      1  0.4855110000000  0.5465420000000  0.5349230000000 1.0
C      1  0.4533370000000  0.5347550000000  0.5145370000000 1.0
C      1  0.4533370000000  0.4653400000000  0.4858940000000 1.0
C      1  0.5463270000000  0.4653400000000  0.5145370000000 1.0
C      1  0.5243140000000  0.5443200000000  0.4866970000000 1.0
C      1  0.5441040000000  0.4865290000000  0.5246980000000 1.0
C      1  0.4863130000000  0.5245290000000  0.5444880000000 1.0
C      1  0.4753500000000  0.5443200000000  0.5137340000000 1.0
C      1  0.4753500000000  0.4557750000000  0.4866970000000 1.0
C      1  0.5243140000000  0.4557750000000  0.5137340000000 1.0
C      1  0.4555590000000  0.4865290000000  0.4757330000000 1.0
C      1  0.4555590000000  0.5135660000000  0.5246980000000 1.0
C      1  0.5441040000000  0.5135660000000  0.4757330000000 1.0
C      1  0.5133510000000  0.5245290000000  0.4559430000000 1.0
C      1  0.5133510000000  0.4755650000000  0.5444880000000 1.0
C      1  0.4863130000000  0.4755650000000  0.4559430000000 1.0
C      1  0.5243140000000  0.4557750000000  0.4866970000000 1.0
C      1  0.5441040000000  0.5135660000000  0.5246980000000 1.0
C      1  0.4863130000000  0.4755650000000  0.5444880000000 1.0
C      1  0.4753500000000  0.4557750000000  0.5137340000000 1.0
C      1  0.4753500000000  0.5443200000000  0.4866970000000 1.0
C      1  0.5243140000000  0.5443200000000  0.5137340000000 1.0
C      1  0.4555590000000  0.5135660000000  0.4757330000000 1.0
C      1  0.4555590000000  0.4865290000000  0.5246980000000 1.0
C      1  0.5441040000000  0.4865290000000  0.4757330000000 1.0
C      1  0.5133510000000  0.4755650000000  0.4559430000000 1.0
C      1  0.5133510000000  0.5245290000000  0.5444880000000 1.0
C      1  0.4863130000000  0.5245290000000  0.4559430000000 1.0
C      1  0.4599850000000  0.4849740000000  0.4310740000000 1.0
C      1  0.4847590000000  0.4309060000000  0.4603690000000 1.0
C      1  0.4306910000000  0.4602010000000  0.4851420000000 1.0
C      1  0.5396790000000  0.4849740000000  0.5693570000000 1.0
C      1  0.5396790000000  0.5151210000000  0.4310740000000 1.0
C      1  0.4599850000000  0.5151210000000  0.5693570000000 1.0
C      1  0.5149050000000  0.4309060000000  0.5400620000000 1.0
C      1  0.5149050000000  0.5691890000000  0.4603690000000 1.0
C      1  0.4847590000000  0.5691890000000  0.5400620000000 1.0
C      1  0.5689730000000  0.4602010000000  0.5152890000000 1.0
C      1  0.5689730000000  0.5398940000000  0.4851420000000 1.0
C      1  0.4306910000000  0.5398940000000  0.5152890000000 1.0
C      1  0.4599850000000  0.5151210000000  0.4310740000000 1.0
C      1  0.4847590000000  0.5691890000000  0.4603690000000 1.0
C      1  0.4306910000000  0.5398940000000  0.4851420000000 1.0
C      1  0.5396790000000  0.5151210000000  0.5693570000000 1.0
C      1  0.5396790000000  0.4849740000000  0.4310740000000 1.0
C      1  0.4599850000000  0.4849740000000  0.5693570000000 1.0
C      1  0.5149050000000  0.5691890000000  0.5400620000000 1.0
C      1  0.5149050000000  0.4309060000000  0.4603690000000 1.0
C      1  0.4847590000000  0.4309060000000  0.5400620000000 1.0
C      1  0.5689730000000  0.5398940000000  0.5152890000000 1.0
C      1  0.5689730000000  0.4602010000000  0.4851420000000 1.0
C      1  0.4306910000000  0.4602010000000  0.5152890000000 1.0
C      1  0.4871910000000  0.5762340000000  0.4848570000000 1.0
C      1  0.5760190000000  0.4846890000000  0.4875740000000 1.0
C      1  0.4844740000000  0.4874060000000  0.5764020000000 1.0
C      1  0.5124730000000  0.5762340000000  0.5155730000000 1.0
C      1  0.5124730000000  0.4238600000000  0.4848570000000 1.0
C      1  0.4871910000000  0.4238600000000  0.5155730000000 1.0
C      1  0.4236450000000  0.4846890000000  0.5128570000000 1.0
C      1  0.4236450000000  0.5154050000000  0.4875740000000 1.0
C      1  0.5760190000000  0.5154050000000  0.5128570000000 1.0
C      1  0.5151900000000  0.4874060000000  0.4240280000000 1.0
C      1  0.5151900000000  0.5126890000000  0.5764020000000 1.0
C      1  0.4844740000000  0.5126890000000  0.4240280000000 1.0
C      1  0.4871910000000  0.4238600000000  0.4848570000000 1.0
C      1  0.5760190000000  0.5154050000000  0.4875740000000 1.0
C      1  0.4844740000000  0.5126890000000  0.5764020000000 1.0
C      1  0.5124730000000  0.4238600000000  0.5155730000000 1.0
C      1  0.5124730000000  0.5762340000000  0.4848570000000 1.0
C      1  0.4871910000000  0.5762340000000  0.5155730000000 1.0
C      1  0.4236450000000  0.5154050000000  0.5128570000000 1.0
C      1  0.4236450000000  0.4846890000000  0.4875740000000 1.0
C      1  0.5760190000000  0.4846890000000  0.5128570000000 1.0
C      1  0.5151900000000  0.5126890000000  0.4240280000000 1.0
C      1  0.5151900000000  0.4874060000000  0.5764020000000 1.0
C      1  0.4844740000000  0.4874060000000  0.4240280000000 1.0
C      1  0.4619300000000  0.5477640000000  0.4440600000000 1.0
C      1  0.5475480000000  0.4438920000000  0.4623130000000 1.0
C      1  0.4436770000000  0.4621450000000  0.5479320000000 1.0
C      1  0.5377340000000  0.5477640000000  0.5563700000000 1.0
C      1  0.5377340000000  0.4523310000000  0.4440600000000 1.0
C      1  0.4619300000000  0.4523310000000  0.5563700000000 1.0
C      1  0.4521150000000  0.4438920000000  0.5381180000000 1.0
C      1  0.4521150000000  0.5562020000000  0.4623130000000 1.0
C      1  0.5475480000000  0.5562020000000  0.5381180000000 1.0
C      1  0.5559870000000  0.4621450000000  0.4524990000000 1.0
C      1  0.5559870000000  0.5379500000000  0.5479320000000 1.0
C      1  0.4436770000000  0.5379500000000  0.4524990000000 1.0
C      1  0.4619300000000  0.4523310000000  0.4440600000000 1.0
C      1  0.5475480000000  0.5562020000000  0.4623130000000 1.0
C      1  0.4436770000000  0.5379500000000  0.5479320000000 1.0
C      1  0.5377340000000  0.4523310000000  0.5563700000000 1.0
C      1  0.5377340000000  0.5477640000000  0.4440600000000 1.0
C      1  0.4619300000000  0.5477640000000  0.5563700000000 1.0
C      1  0.4521150000000  0.5562020000000  0.5381180000000 1.0
C      1  0.4521150000000  0.4438920000000  0.4623130000000 1.0
C      1  0.5475480000000  0.4438920000000  0.5381180000000 1.0
C      1  0.5559870000000  0.5379500000000  0.4524990000000 1.0
C      1  0.5559870000000  0.4621450000000  0.5479320000000 1.0
C      1  0.4436770000000  0.4621450000000  0.4524990000000 1.0
C      1  0.5290630000000  0.5072880000000  0.5752430000000 1.0
C      1  0.5070720000000  0.5750750000000  0.5294460000000 1.0
C      1  0.5748590000000  0.5292780000000  0.5074560000000 1.0
C      1  0.4706010000000  0.5072880000000  0.4251880000000 1.0
C      1  0.4706010000000  0.4928070000000  0.5752430000000 1.0
C      1  0.5290630000000  0.4928070000000  0.4251880000000 1.0
C      1  0.4925920000000  0.5750750000000  0.4709840000000 1.0
C      1  0.4925920000000  0.4250200000000  0.5294460000000 1.0
C      1  0.5070720000000  0.4250200000000  0.4709840000000 1.0
C      1  0.4248050000000  0.5292780000000  0.4929750000000 1.0
C      1  0.4248050000000  0.4708160000000  0.5074560000000 1.0
C      1  0.5748590000000  0.4708160000000  0.4929750000000 1.0
C      1  0.5290630000000  0.4928070000000  0.5752430000000 1.0
C      1  0.5070720000000  0.4250200000000  0.5294460000000 1.0
C      1  0.5748590000000  0.4708160000000  0.5074560000000 1.0
C      1  0.4706010000000  0.4928070000000  0.4251880000000 1.0
C      1  0.4706010000000  0.5072880000000  0.5752430000000 1.0
C      1  0.5290630000000  0.5072880000000  0.4251880000000 1.0
C      1  0.4925920000000  0.4250200000000  0.4709840000000 1.0
C      1  0.4925920000000  0.5750750000000  0.5294460000000 1.0
C      1  0.5070720000000  0.5750750000000  0.4709840000000 1.0
C      1  0.4248050000000  0.4708160000000  0.4929750000000 1.0
C      1  0.4248050000000  0.5292780000000  0.5074560000000 1.0
C      1  0.5748590000000  0.5292780000000  0.4929750000000 1.0
C      1  0.5141960000000  0.5508010000000  0.5071190000000 1.0
C      1  0.5505860000000  0.5069510000000  0.5145800000000 1.0
C      1  0.5067360000000  0.5144110000000  0.5509700000000 1.0
C      1  0.4854680000000  0.5508010000000  0.4933120000000 1.0
C      1  0.4854680000000  0.4492930000000  0.5071190000000 1.0
C      1  0.5141960000000  0.4492930000000  0.4933120000000 1.0
C      1  0.4490780000000  0.5069510000000  0.4858510000000 1.0
C      1  0.4490780000000  0.4931440000000  0.5145800000000 1.0
C      1  0.5505860000000  0.4931440000000  0.4858510000000 1.0
C      1  0.4929280000000  0.5144110000000  0.4494610000000 1.0
C      1  0.4929280000000  0.4856830000000  0.5509700000000 1.0
C      1  0.5067360000000  0.4856830000000  0.4494610000000 1.0
C      1  0.5141960000000  0.4492930000000  0.5071190000000 1.0
C      1  0.5505860000000  0.4931440000000  0.5145800000000 1.0
C      1  0.5067360000000  0.4856830000000  0.5509700000000 1.0
C      1  0.4854680000000  0.4492930000000  0.4933120000000 1.0
C      1  0.4854680000000  0.5508010000000  0.5071190000000 1.0
C      1  0.5141960000000  0.5508010000000  0.4933120000000 1.0
C      1  0.4490780000000  0.4931440000000  0.4858510000000 1.0
C      1  0.4490780000000  0.5069510000000  0.5145800000000 1.0
C      1  0.5505860000000  0.5069510000000  0.4858510000000 1.0
C      1  0.4929280000000  0.4856830000000  0.4494610000000 1.0
C      1  0.4929280000000  0.5144110000000  0.5509700000000 1.0
C      1  0.5067360000000  0.5144110000000  0.4494610000000 1.0
C      1  0.5606410000000  0.4719750000000  0.4634680000000 1.0
C      1  0.4717600000000  0.4633000000000  0.5610250000000 1.0
C      1  0.4630840000000  0.5608570000000  0.4721430000000 1.0
C      1  0.4390220000000  0.4719750000000  0.5369630000000 1.0
C      1  0.4390220000000  0.5281190000000  0.4634680000000 1.0
C      1  0.5606410000000  0.5281190000000  0.5369630000000 1.0
C      1  0.5279040000000  0.4633000000000  0.4394060000000 1.0
C      1  0.5279040000000  0.5367950000000  0.5610250000000 1.0
C      1  0.4717600000000  0.5367950000000  0.4394060000000 1.0
C      1  0.5365800000000  0.5608570000000  0.5282870000000 1.0
C      1  0.5365800000000  0.4392380000000  0.4721430000000 1.0
C      1  0.4630840000000  0.4392380000000  0.5282870000000 1.0
C      1  0.5606410000000  0.5281190000000  0.4634680000000 1.0
C      1  0.4717600000000  0.5367950000000  0.5610250000000 1.0
C      1  0.4630840000000  0.4392380000000  0.4721430000000 1.0
C      1  0.4390220000000  0.5281190000000  0.5369630000000 1.0
C      1  0.4390220000000  0.4719750000000  0.4634680000000 1.0
C      1  0.5606410000000  0.4719750000000  0.5369630000000 1.0
C      1  0.5279040000000  0.5367950000000  0.4394060000000 1.0
C      1  0.5279040000000  0.4633000000000  0.5610250000000 1.0
C      1  0.4717600000000  0.4633000000000  0.4394060000000 1.0
C      1  0.5365800000000  0.4392380000000  0.5282870000000 1.0
C      1  0.5365800000000  0.5608570000000  0.4721430000000 1.0
C      1  0.4630840000000  0.5608570000000  0.5282870000000 1.0
C      1  0.4324650000000  0.4600880000000  0.4709160000000 1.0
C      1  0.4598730000000  0.4707480000000  0.4328480000000 1.0
C      1  0.4705320000000  0.4326800000000  0.4602560000000 1.0
C      1  0.5671990000000  0.4600880000000  0.5295150000000 1.0
C      1  0.5671990000000  0.5400070000000  0.4709160000000 1.0
C      1  0.4324650000000  0.5400070000000  0.5295150000000 1.0
C      1  0.5397910000000  0.4707480000000  0.5675830000000 1.0
C      1  0.5397910000000  0.5293470000000  0.4328480000000 1.0
C      1  0.4598730000000  0.5293470000000  0.5675830000000 1.0
C      1  0.5291310000000  0.4326800000000  0.5401750000000 1.0
C      1  0.5291310000000  0.5674150000000  0.4602560000000 1.0
C      1  0.4705320000000  0.5674150000000  0.5401750000000 1.0
C      1  0.4324650000000  0.5400070000000  0.4709160000000 1.0
C      1  0.4598730000000  0.5293470000000  0.4328480000000 1.0
C      1  0.4705320000000  0.5674150000000  0.4602560000000 1.0
C      1  0.5671990000000  0.5400070000000  0.5295150000000 1.0
C      1  0.5671990000000  0.4600880000000  0.4709160000000 1.0
C      1  0.4324650000000  0.4600880000000  0.5295150000000 1.0
C      1  0.5397910000000  0.5293470000000  0.5675830000000 1.0
C      1  0.5397910000000  0.4707480000000  0.4328480000000 1.0
C      1  0.4598730000000  0.4707480000000  0.5675830000000 1.0
C      1  0.5291310000000  0.5674150000000  0.5401750000000 1.0
C      1  0.5291310000000  0.4326800000000  0.4602560000000 1.0
C      1  0.4705320000000  0.4326800000000  0.5401750000000 1.0
C      1  0.5188460000000  0.4154350000000  0.5067310000000 1.0
C      1  0.4152190000000  0.5065630000000  0.5192290000000 1.0
C      1  0.5063470000000  0.5190610000000  0.4156030000000 1.0
C      1  0.4808180000000  0.4154350000000  0.4937000000000 1.0
C      1  0.4808180000000  0.5846600000000  0.5067310000000 1.0
C      1  0.5188460000000  0.5846600000000  0.4937000000000 1.0
C      1  0.5844450000000  0.5065630000000  0.4812010000000 1.0
C      1  0.5844450000000  0.4935320000000  0.5192290000000 1.0
C      1  0.4152190000000  0.4935320000000  0.4812010000000 1.0
C      1  0.4933160000000  0.5190610000000  0.5848280000000 1.0
C      1  0.4933160000000  0.4810330000000  0.4156030000000 1.0
C      1  0.5063470000000  0.4810330000000  0.5848280000000 1.0
C      1  0.5188460000000  0.5846600000000  0.5067310000000 1.0
C      1  0.4152190000000  0.4935320000000  0.5192290000000 1.0
C      1  0.5063470000000  0.4810330000000  0.4156030000000 1.0
C      1  0.4808180000000  0.5846600000000  0.4937000000000 1.0
C      1  0.4808180000000  0.4154350000000  0.5067310000000 1.0
C      1  0.5188460000000  0.4154350000000  0.4937000000000 1.0
C      1  0.5844450000000  0.4935320000000  0.4812010000000 1.0
C      1  0.5844450000000  0.5065630000000  0.5192290000000 1.0
C      1  0.4152190000000  0.5065630000000  0.4812010000000 1.0
C      1  0.4933160000000  0.4810330000000  0.5848280000000 1.0
C      1  0.4933160000000  0.5190610000000  0.4156030000000 1.0
C      1  0.5063470000000  0.5190610000000  0.5848280000000 1.0
C      1  0.4552660000000  0.4920860000000  0.5564360000000 1.0
C      1  0.4918710000000  0.5562670000000  0.4556500000000 1.0
C      1  0.5560520000000  0.4554820000000  0.4922540000000 1.0
C      1  0.5443980000000  0.4920860000000  0.4439950000000 1.0
C      1  0.5443980000000  0.5080080000000  0.5564350000000 1.0
C      1  0.4552660000000  0.5080080000000  0.4439950000000 1.0
C      1  0.5077930000000  0.5562670000000  0.5447810000000 1.0
C      1  0.5077930000000  0.4438270000000  0.4556500000000 1.0
C      1  0.4918710000000  0.4438270000000  0.5447810000000 1.0
C      1  0.4436120000000  0.4554820000000  0.5081760000000 1.0
C      1  0.4436120000000  0.5446130000000  0.4922540000000 1.0
C      1  0.5560520000000  0.5446130000000  0.5081760000000 1.0
C      1  0.4552660000000  0.5080080000000  0.5564360000000 1.0
C      1  0.4918710000000  0.4438270000000  0.4556500000000 1.0
C      1  0.5560520000000  0.5446130000000  0.4922540000000 1.0
C      1  0.5443980000000  0.5080080000000  0.4439950000000 1.0
C      1  0.5443980000000  0.4920860000000  0.5564350000000 1.0
C      1  0.4552660000000  0.4920860000000  0.4439950000000 1.0
C      1  0.5077930000000  0.4438270000000  0.5447810000000 1.0
C      1  0.5077930000000  0.5562670000000  0.4556500000000 1.0
C      1  0.4918710000000  0.5562670000000  0.5447810000000 1.0
C      1  0.4436120000000  0.5446130000000  0.5081760000000 1.0
C      1  0.4436120000000  0.4554820000000  0.4922540000000 1.0
C      1  0.5560520000000  0.4554820000000  0.5081760000000 1.0
C      1  0.5072620000000  0.5637570000000  0.5088580000000 1.0
C      1  0.5635420000000  0.5086900000000  0.5076460000000 1.0
C      1  0.5084740000000  0.5074780000000  0.5639250000000 1.0
C      1  0.4924020000000  0.5637570000000  0.4915730000000 1.0
C      1  0.4924020000000  0.4363370000000  0.5088580000000 1.0
C      1  0.5072620000000  0.4363370000000  0.4915730000000 1.0
C      1  0.4361220000000  0.5086900000000  0.4927850000000 1.0
C      1  0.4361220000000  0.4914050000000  0.5076460000000 1.0
C      1  0.5635420000000  0.4914050000000  0.4927850000000 1.0
C      1  0.4911890000000  0.5074780000000  0.4365050000000 1.0
C      1  0.4911890000000  0.4926170000000  0.5639250000000 1.0
C      1  0.5084740000000  0.4926170000000  0.4365050000000 1.0
C      1  0.5072620000000  0.4363370000000  0.5088580000000 1.0
C      1  0.5635420000000  0.4914050000000  0.5076460000000 1.0
C      1  0.5084740000000  0.4926170000000  0.5639250000000 1.0
C      1  0.4924020000000  0.4363370000000  0.4915730000000 1.0
C      1  0.4924020000000  0.5637570000000  0.5088580000000 1.0
C      1  0.5072620000000  0.5637570000000  0.4915730000000 1.0
C      1  0.4361220000000  0.4914050000000  0.4927850000000 1.0
C      1  0.4361220000000  0.5086900000000  0.5076460000000 1.0
C      1  0.5635420000000  0.5086900000000  0.4927850000000 1.0
C      1  0.4911890000000  0.4926170000000  0.4365050000000 1.0
C      1  0.4911890000000  0.5074780000000  0.5639250000000 1.0
C      1  0.5084740000000  0.5074780000000  0.4365050000000 1.0
C      1  0.4563570000000  0.4340300000000  0.4840170000000 1.0
C      1  0.4338140000000  0.4838490000000  0.4567410000000 1.0
C      1  0.4836330000000  0.4565730000000  0.4341980000000 1.0
C      1  0.5433060000000  0.4340300000000  0.5164140000000 1.0
C      1  0.5433060000000  0.5660650000000  0.4840170000000 1.0
C      1  0.4563570000000  0.5660650000000  0.5164140000000 1.0
C      1  0.5658500000000  0.4838490000000  0.5436900000000 1.0
C      1  0.5658500000000  0.5162460000000  0.4567410000000 1.0
C      1  0.4338140000000  0.5162460000000  0.5436900000000 1.0
C      1  0.5160310000000  0.4565730000000  0.5662330000000 1.0
C      1  0.5160310000000  0.5435220000000  0.4341980000000 1.0
C      1  0.4836330000000  0.5435220000000  0.5662330000000 1.0
C      1  0.4563570000000  0.5660650000000  0.4840170000000 1.0
C      1  0.4338140000000  0.5162460000000  0.4567410000000 1.0
C      1  0.4836330000000  0.5435220000000  0.4341980000000 1.0
C      1  0.5433060000000  0.5660650000000  0.5164140000000 1.0
C      1  0.5433060000000  0.4340300000000  0.4840170000000 1.0
C      1  0.4563570000000  0.4340300000000  0.5164140000000 1.0
C      1  0.5658500000000  0.5162460000000  0.5436900000000 1.0
C      1  0.5658500000000  0.4838490000000  0.4567410000000 1.0
C      1  0.4338140000000  0.4838490000000  0.5436900000000 1.0
C      1  0.5160310000000  0.5435220000000  0.5662330000000 1.0
C      1  0.5160310000000  0.4565730000000  0.4341980000000 1.0
C      1  0.4836330000000  0.4565730000000  0.5662330000000 1.0
C      1  0.5075500000000  0.5332280000000  0.5340510000000 1.0
C      1  0.5330130000000  0.5338830000000  0.5079330000000 1.0
C      1  0.5336670000000  0.5077650000000  0.5333960000000 1.0
C      1  0.4921140000000  0.5332280000000  0.4663800000000 1.0
C      1  0.4921140000000  0.4668660000000  0.5340510000000 1.0
C      1  0.5075500000000  0.4668660000000  0.4663800000000 1.0
C      1  0.4666510000000  0.5338830000000  0.4924970000000 1.0
C      1  0.4666510000000  0.4662120000000  0.5079330000000 1.0
C      1  0.5330130000000  0.4662120000000  0.4924970000000 1.0
C      1  0.4659960000000  0.5077650000000  0.4670340000000 1.0
C      1  0.4659960000000  0.4923290000000  0.5333960000000 1.0
C      1  0.5336670000000  0.4923290000000  0.4670340000000 1.0
C      1  0.5075500000000  0.4668660000000  0.5340510000000 1.0
C      1  0.5330130000000  0.4662120000000  0.5079330000000 1.0
C      1  0.5336670000000  0.4923290000000  0.5333960000000 1.0
C      1  0.4921140000000  0.4668660000000  0.4663800000000 1.0
C      1  0.4921140000000  0.5332280000000  0.5340510000000 1.0
C      1  0.5075500000000  0.5332280000000  0.4663800000000 1.0
C      1  0.4666510000000  0.4662120000000  0.4924970000000 1.0
C      1  0.4666510000000  0.5338830000000  0.5079330000000 1.0
C      1  0.5330130000000  0.5338830000000  0.4924970000000 1.0
C      1  0.4659960000000  0.4923290000000  0.4670340000000 1.0
C      1  0.4659960000000  0.5077650000000  0.5333960000000 1.0
C      1  0.5336670000000  0.5077650000000  0.4670340000000 1.0
C      1  0.5383900000000  0.4387640000000  0.5493940000000 1.0
C      1  0.4385490000000  0.5492260000000  0.5387740000000 1.0
C      1  0.5490110000000  0.5386060000000  0.4389330000000 1.0
C      1  0.4612730000000  0.4387640000000  0.4510370000000 1.0
C      1  0.4612730000000  0.5613300000000  0.5493940000000 1.0
C      1  0.5383900000000  0.5613300000000  0.4510370000000 1.0
C      1  0.5611150000000  0.5492260000000  0.4616570000000 1.0
C      1  0.5611150000000  0.4508690000000  0.5387740000000 1.0
C      1  0.4385490000000  0.4508690000000  0.4616570000000 1.0
C      1  0.4506530000000  0.5386060000000  0.5614980000000 1.0
C      1  0.4506530000000  0.4614890000000  0.4389330000000 1.0
C      1  0.5490110000000  0.4614890000000  0.5614980000000 1.0
C      1  0.5383900000000  0.5613300000000  0.5493940000000 1.0
C      1  0.4385490000000  0.4508690000000  0.5387740000000 1.0
C      1  0.5490110000000  0.4614890000000  0.4389330000000 1.0
C      1  0.4612730000000  0.5613300000000  0.4510370000000 1.0
C      1  0.4612730000000  0.4387640000000  0.5493940000000 1.0
C      1  0.5383900000000  0.4387640000000  0.4510370000000 1.0
C      1  0.5611150000000  0.4508690000000  0.4616570000000 1.0
C      1  0.5611150000000  0.5492260000000  0.5387740000000 1.0
C      1  0.4385490000000  0.5492260000000  0.4616570000000 1.0
C      1  0.4506530000000  0.4614890000000  0.5614980000000 1.0
C      1  0.4506530000000  0.5386060000000  0.4389330000000 1.0
C      1  0.5490110000000  0.5386060000000  0.5614980000000 1.0
C      1  0.5504500000000  0.4408290000000  0.5073620000000 1.0
C      1  0.4406130000000  0.5071940000000  0.5508330000000 1.0
C      1  0.5069790000000  0.5506650000000  0.4409970000000 1.0
C      1  0.4492140000000  0.4408290000000  0.4930680000000 1.0
C      1  0.4492140000000  0.5592660000000  0.5073620000000 1.0
C      1  0.5504500000000  0.5592660000000  0.4930680000000 1.0
C      1  0.5590510000000  0.5071940000000  0.4495970000000 1.0
C      1  0.5590510000000  0.4929000000000  0.5508330000000 1.0
C      1  0.4406130000000  0.4929000000000  0.4495970000000 1.0
C      1  0.4926850000000  0.5506650000000  0.5594340000000 1.0
C      1  0.4926850000000  0.4494290000000  0.4409970000000 1.0
C      1  0.5069790000000  0.4494290000000  0.5594340000000 1.0
C      1  0.5504500000000  0.5592660000000  0.5073620000000 1.0
C      1  0.4406130000000  0.4929000000000  0.5508330000000 1.0
C      1  0.5069790000000  0.4494290000000  0.4409970000000 1.0
C      1  0.4492140000000  0.5592660000000  0.4930680000000 1.0
C      1  0.4492140000000  0.4408290000000  0.5073620000000 1.0
C      1  0.5504500000000  0.4408290000000  0.4930680000000 1.0
C      1  0.5590510000000  0.4929000000000  0.4495970000000 1.0
C      1  0.5590510000000  0.5071940000000  0.5508330000000 1.0
C      1  0.4406130000000  0.5071940000000  0.4495970000000 1.0
C      1  0.4926850000000  0.4494290000000  0.5594340000000 1.0
C      1  0.4926850000000  0.5506650000000  0.4409970000000 1.0
C      1  0.5069790000000  0.5506650000000  0.5594340000000 1.0
C      1  0.5428980000000  0.5431140000000  0.4571490000000 1.0
C      1  0.5428980000000  0.4569810000000  0.5432820000000 1.0
C      1  0.4567660000000  0.4569810000000  0.5432820000000 1.0
C      1  0.4567660000000  0.5431140000000  0.4571490000000 1.0
C      1  0.4567660000000  0.5431140000000  0.5432820000000 1.0
C      1  0.4567660000000  0.4569810000000  0.4571490000000 1.0
C      1  0.5428980000000  0.4569810000000  0.4571490000000 1.0
C      1  0.5428980000000  0.5431140000000  0.5432820000000 1.0
END
