TITL C-1379266-1300-387 -5.38453336434177e-07 1000000 -2706.80232033648 0 0 380 (Th) n - 1
REM
REM in /nfs/bkarasulu/CARBON/AIRSS/Generating-Clusters/GAP-ML-2020/Higher-Symm/Selected-Sizes/TryA-Only_Ih-Symm/Larger-Clusters/Try2-MINAMP_6A
REM
REM
REM
REM
REM
REM ./C.cell (31579ac4e95a012ec27f3239692ae8a5)
REM
REM compiler GCC version 9.2.1 20190827 (Red Hat 9.2.1-1)
REM options -cpp -mtune=generic -march=x86-64 -g -O0 -fpre-include=/usr/include/finclude/math-vector-fortran.h
REM seed 85826204 821024820 1753775022 -127245670 790769659 1599445552 90981918 -1704385762 -435608702 -665513554 -1600916018 -2045087668 520314592 -1853209751 -911913466 -1865145745 2012122594 -228650236 -946870697 -924312326 1062725050 864654036 1832304992 -259080214 -2047549477 -1103352384 1621817945 1394148398 1609663123 1348669967 -742531332 159146886 -1992782104
REM
CELL 1.54180  100.00000  100.00000  100.00000   90.00000   90.00000   90.00000
LATT -1
SFAC C  
C      1  0.4716660000000  0.5551950000000  0.4933470000000 1.0
C      1  0.5553200000000  0.4933070000000  0.4715800000000 1.0
C      1  0.4934320000000  0.4715400000000  0.5552340000000 1.0
C      1  0.5284140000000  0.4446340000000  0.4933470000000 1.0
C      1  0.4716660000000  0.4446340000000  0.5065620000000 1.0
C      1  0.5284140000000  0.5551950000000  0.5065620000000 1.0
C      1  0.4447600000000  0.5065220000000  0.4715800000000 1.0
C      1  0.5553200000000  0.5065220000000  0.5283280000000 1.0
C      1  0.4447600000000  0.4933070000000  0.5283280000000 1.0
C      1  0.5066470000000  0.5282890000000  0.5552340000000 1.0
C      1  0.4934320000000  0.5282890000000  0.4446740000000 1.0
C      1  0.5066470000000  0.4715400000000  0.4446740000000 1.0
C      1  0.4716660000000  0.5551950000000  0.5065620000000 1.0
C      1  0.5553200000000  0.4933070000000  0.5283280000000 1.0
C      1  0.4934320000000  0.4715400000000  0.4446740000000 1.0
C      1  0.5284140000000  0.4446340000000  0.5065620000000 1.0
C      1  0.4716660000000  0.4446340000000  0.4933470000000 1.0
C      1  0.5284140000000  0.5551950000000  0.4933470000000 1.0
C      1  0.4447600000000  0.5065220000000  0.5283280000000 1.0
C      1  0.5553200000000  0.5065220000000  0.4715800000000 1.0
C      1  0.4447600000000  0.4933070000000  0.4715800000000 1.0
C      1  0.5066470000000  0.5282890000000  0.4446740000000 1.0
C      1  0.4934320000000  0.5282890000000  0.5552340000000 1.0
C      1  0.5066470000000  0.4715400000000  0.5552340000000 1.0
C      1  0.4815980000000  0.5361870000000  0.4639470000000 1.0
C      1  0.5363120000000  0.4639070000000  0.4815130000000 1.0
C      1  0.4640320000000  0.4814730000000  0.5362270000000 1.0
C      1  0.5184810000000  0.4636420000000  0.4639470000000 1.0
C      1  0.4815980000000  0.4636420000000  0.5359610000000 1.0
C      1  0.5184810000000  0.5361870000000  0.5359610000000 1.0
C      1  0.4637670000000  0.5359220000000  0.4815130000000 1.0
C      1  0.5363120000000  0.5359220000000  0.5183960000000 1.0
C      1  0.4637670000000  0.4639070000000  0.5183960000000 1.0
C      1  0.5360470000000  0.5183560000000  0.5362270000000 1.0
C      1  0.4640320000000  0.5183560000000  0.4636820000000 1.0
C      1  0.5360470000000  0.4814730000000  0.4636820000000 1.0
C      1  0.4815980000000  0.5361870000000  0.5359610000000 1.0
C      1  0.5363120000000  0.4639070000000  0.5183960000000 1.0
C      1  0.4640320000000  0.4814730000000  0.4636820000000 1.0
C      1  0.5184810000000  0.4636420000000  0.5359610000000 1.0
C      1  0.4815980000000  0.4636420000000  0.4639470000000 1.0
C      1  0.5184810000000  0.5361870000000  0.4639470000000 1.0
C      1  0.4637670000000  0.5359220000000  0.5183960000000 1.0
C      1  0.5363120000000  0.5359220000000  0.4815130000000 1.0
C      1  0.4637670000000  0.4639070000000  0.4815130000000 1.0
C      1  0.5360470000000  0.5183560000000  0.4636820000000 1.0
C      1  0.4640320000000  0.5183560000000  0.5362270000000 1.0
C      1  0.5360470000000  0.4814730000000  0.5362270000000 1.0
C      1  0.5648100000000  0.5495390000000  0.5148880000000 1.0
C      1  0.5496640000000  0.5148490000000  0.5647240000000 1.0
C      1  0.5149740000000  0.5646840000000  0.5495790000000 1.0
C      1  0.4352700000000  0.4502900000000  0.5148880000000 1.0
C      1  0.5648100000000  0.4502900000000  0.4850200000000 1.0
C      1  0.4352700000000  0.5495390000000  0.4850200000000 1.0
C      1  0.4504150000000  0.4849800000000  0.5647240000000 1.0
C      1  0.5496640000000  0.4849800000000  0.4351840000000 1.0
C      1  0.4504150000000  0.5148490000000  0.4351840000000 1.0
C      1  0.4851060000000  0.4351450000000  0.5495790000000 1.0
C      1  0.5149740000000  0.4351450000000  0.4503300000000 1.0
C      1  0.4851060000000  0.5646840000000  0.4503300000000 1.0
C      1  0.5648100000000  0.5495390000000  0.4850200000000 1.0
C      1  0.5496640000000  0.5148490000000  0.4351840000000 1.0
C      1  0.5149740000000  0.5646840000000  0.4503300000000 1.0
C      1  0.4352700000000  0.4502900000000  0.4850200000000 1.0
C      1  0.5648100000000  0.4502900000000  0.5148880000000 1.0
C      1  0.4352700000000  0.5495390000000  0.5148880000000 1.0
C      1  0.4504150000000  0.4849800000000  0.4351840000000 1.0
C      1  0.5496640000000  0.4849800000000  0.5647240000000 1.0
C      1  0.4504150000000  0.5148490000000  0.5647240000000 1.0
C      1  0.4851060000000  0.4351450000000  0.4503300000000 1.0
C      1  0.5149740000000  0.4351450000000  0.5495790000000 1.0
C      1  0.4851060000000  0.5646840000000  0.5495790000000 1.0
C      1  0.4354310000000  0.4449590000000  0.4727360000000 1.0
C      1  0.4450840000000  0.4726960000000  0.4353450000000 1.0
C      1  0.4728210000000  0.4353050000000  0.4449980000000 1.0
C      1  0.5646490000000  0.5548700000000  0.4727360000000 1.0
C      1  0.4354310000000  0.5548700000000  0.5271730000000 1.0
C      1  0.5646490000000  0.4449590000000  0.5271730000000 1.0
C      1  0.5549960000000  0.5271330000000  0.4353450000000 1.0
C      1  0.4450840000000  0.5271330000000  0.5645630000000 1.0
C      1  0.5549960000000  0.4726960000000  0.5645630000000 1.0
C      1  0.5272580000000  0.5645240000000  0.4449980000000 1.0
C      1  0.4728210000000  0.5645240000000  0.5549100000000 1.0
C      1  0.5272580000000  0.4353050000000  0.5549100000000 1.0
C      1  0.4354310000000  0.4449590000000  0.5271730000000 1.0
C      1  0.4450840000000  0.4726960000000  0.5645630000000 1.0
C      1  0.4728210000000  0.4353050000000  0.5549100000000 1.0
C      1  0.5646490000000  0.5548700000000  0.5271730000000 1.0
C      1  0.4354310000000  0.5548700000000  0.4727360000000 1.0
C      1  0.5646490000000  0.4449590000000  0.4727360000000 1.0
C      1  0.5549960000000  0.5271330000000  0.5645630000000 1.0
C      1  0.4450840000000  0.5271330000000  0.4353450000000 1.0
C      1  0.5549960000000  0.4726960000000  0.4353450000000 1.0
C      1  0.5272580000000  0.5645240000000  0.5549100000000 1.0
C      1  0.4728210000000  0.5645240000000  0.4449980000000 1.0
C      1  0.5272580000000  0.4353050000000  0.4449980000000 1.0
C      1  0.5512630000000  0.4847430000000  0.5392650000000 1.0
C      1  0.4848690000000  0.5392250000000  0.5511780000000 1.0
C      1  0.5393500000000  0.5511380000000  0.4847830000000 1.0
C      1  0.4488160000000  0.5150860000000  0.5392650000000 1.0
C      1  0.5512630000000  0.5150860000000  0.4606440000000 1.0
C      1  0.4488160000000  0.4847430000000  0.4606440000000 1.0
C      1  0.5152110000000  0.4606040000000  0.5511780000000 1.0
C      1  0.4848690000000  0.4606040000000  0.4487300000000 1.0
C      1  0.5152110000000  0.5392250000000  0.4487300000000 1.0
C      1  0.4607290000000  0.4486910000000  0.4847830000000 1.0
C      1  0.5393500000000  0.4486910000000  0.5151250000000 1.0
C      1  0.4607290000000  0.5511380000000  0.5151250000000 1.0
C      1  0.5512630000000  0.4847430000000  0.4606440000000 1.0
C      1  0.4848690000000  0.5392250000000  0.4487300000000 1.0
C      1  0.5393500000000  0.5511380000000  0.5151250000000 1.0
C      1  0.4488160000000  0.5150860000000  0.4606440000000 1.0
C      1  0.5512630000000  0.5150860000000  0.5392650000000 1.0
C      1  0.4488160000000  0.4847430000000  0.5392650000000 1.0
C      1  0.5152110000000  0.4606040000000  0.4487300000000 1.0
C      1  0.4848690000000  0.4606040000000  0.5511780000000 1.0
C      1  0.5152110000000  0.5392250000000  0.5511780000000 1.0
C      1  0.4607290000000  0.4486910000000  0.5151250000000 1.0
C      1  0.5393500000000  0.4486910000000  0.4847830000000 1.0
C      1  0.4607290000000  0.5511380000000  0.4847830000000 1.0
C      1  0.5273420000000  0.5361730000000  0.4397910000000 1.0
C      1  0.5362990000000  0.4397510000000  0.5272570000000 1.0
C      1  0.4398760000000  0.5272170000000  0.5362130000000 1.0
C      1  0.4727370000000  0.4636560000000  0.4397910000000 1.0
C      1  0.5273420000000  0.4636560000000  0.5601180000000 1.0
C      1  0.4727370000000  0.5361730000000  0.5601180000000 1.0
C      1  0.4637810000000  0.5600780000000  0.5272570000000 1.0
C      1  0.5362990000000  0.5600780000000  0.4726510000000 1.0
C      1  0.4637810000000  0.4397510000000  0.4726510000000 1.0
C      1  0.5602030000000  0.4726120000000  0.5362130000000 1.0
C      1  0.4398760000000  0.4726120000000  0.4636950000000 1.0
C      1  0.5602030000000  0.5272170000000  0.4636950000000 1.0
C      1  0.5273420000000  0.5361730000000  0.5601180000000 1.0
C      1  0.5362990000000  0.4397510000000  0.4726510000000 1.0
C      1  0.4398760000000  0.5272170000000  0.4636950000000 1.0
C      1  0.4727370000000  0.4636560000000  0.5601180000000 1.0
C      1  0.5273420000000  0.4636560000000  0.4397910000000 1.0
C      1  0.4727370000000  0.5361730000000  0.4397910000000 1.0
C      1  0.4637810000000  0.5600780000000  0.4726510000000 1.0
C      1  0.5362990000000  0.5600780000000  0.5272570000000 1.0
C      1  0.4637810000000  0.4397510000000  0.5272570000000 1.0
C      1  0.5602030000000  0.4726120000000  0.4636950000000 1.0
C      1  0.4398760000000  0.4726120000000  0.5362130000000 1.0
C      1  0.5602030000000  0.5272170000000  0.5362130000000 1.0
C      1  0.4431890000000  0.5518820000000  0.4623010000000 1.0
C      1  0.5520070000000  0.4622620000000  0.4431030000000 1.0
C      1  0.4623870000000  0.4430640000000  0.5519220000000 1.0
C      1  0.5568910000000  0.4479470000000  0.4623010000000 1.0
C      1  0.4431890000000  0.4479470000000  0.5376070000000 1.0
C      1  0.5568910000000  0.5518820000000  0.5376070000000 1.0
C      1  0.4480720000000  0.5375670000000  0.4431030000000 1.0
C      1  0.5520070000000  0.5375670000000  0.5568050000000 1.0
C      1  0.4480720000000  0.4622620000000  0.5568050000000 1.0
C      1  0.5376930000000  0.5567650000000  0.5519220000000 1.0
C      1  0.4623870000000  0.5567650000000  0.4479870000000 1.0
C      1  0.5376930000000  0.4430640000000  0.4479870000000 1.0
C      1  0.4431890000000  0.5518820000000  0.5376070000000 1.0
C      1  0.5520070000000  0.4622620000000  0.5568050000000 1.0
C      1  0.4623870000000  0.4430640000000  0.4479870000000 1.0
C      1  0.5568910000000  0.4479470000000  0.5376070000000 1.0
C      1  0.4431890000000  0.4479470000000  0.4623010000000 1.0
C      1  0.5568910000000  0.5518820000000  0.4623010000000 1.0
C      1  0.4480720000000  0.5375670000000  0.5568050000000 1.0
C      1  0.5520070000000  0.5375670000000  0.4431030000000 1.0
C      1  0.4480720000000  0.4622620000000  0.4431030000000 1.0
C      1  0.5376930000000  0.5567650000000  0.4479870000000 1.0
C      1  0.4623870000000  0.5567650000000  0.5519220000000 1.0
C      1  0.5376930000000  0.4430640000000  0.5519220000000 1.0
C      1  0.4508030000000  0.4829580000000  0.4928260000000 1.0
C      1  0.4830830000000  0.4927870000000  0.4507170000000 1.0
C      1  0.4929120000000  0.4506770000000  0.4829980000000 1.0
C      1  0.5492770000000  0.5168710000000  0.4928260000000 1.0
C      1  0.4508030000000  0.5168710000000  0.5070820000000 1.0
C      1  0.5492770000000  0.4829580000000  0.5070820000000 1.0
C      1  0.5169960000000  0.5070420000000  0.4507170000000 1.0
C      1  0.4830830000000  0.5070420000000  0.5491910000000 1.0
C      1  0.5169960000000  0.4927870000000  0.5491910000000 1.0
C      1  0.5071680000000  0.5491520000000  0.4829980000000 1.0
C      1  0.4929120000000  0.5491520000000  0.5169110000000 1.0
C      1  0.5071680000000  0.4506770000000  0.5169110000000 1.0
C      1  0.4508030000000  0.4829580000000  0.5070820000000 1.0
C      1  0.4830830000000  0.4927870000000  0.5491910000000 1.0
C      1  0.4929120000000  0.4506770000000  0.5169110000000 1.0
C      1  0.5492770000000  0.5168710000000  0.5070820000000 1.0
C      1  0.4508030000000  0.5168710000000  0.4928260000000 1.0
C      1  0.5492770000000  0.4829580000000  0.4928260000000 1.0
C      1  0.5169960000000  0.5070420000000  0.5491910000000 1.0
C      1  0.4830830000000  0.5070420000000  0.4507170000000 1.0
C      1  0.5169960000000  0.4927870000000  0.4507170000000 1.0
C      1  0.5071680000000  0.5491520000000  0.5169110000000 1.0
C      1  0.4929120000000  0.5491520000000  0.4829980000000 1.0
C      1  0.5071680000000  0.4506770000000  0.4829980000000 1.0
C      1  0.5279720000000  0.4923410000000  0.4599530000000 1.0
C      1  0.4924660000000  0.4599130000000  0.5278860000000 1.0
C      1  0.4600380000000  0.5278470000000  0.4923810000000 1.0
C      1  0.4721080000000  0.5074880000000  0.4599530000000 1.0
C      1  0.5279720000000  0.5074880000000  0.5399550000000 1.0
C      1  0.4721080000000  0.4923410000000  0.5399550000000 1.0
C      1  0.5076130000000  0.5399160000000  0.5278860000000 1.0
C      1  0.4924660000000  0.5399160000000  0.4720220000000 1.0
C      1  0.5076130000000  0.4599130000000  0.4720220000000 1.0
C      1  0.5400410000000  0.4719820000000  0.4923810000000 1.0
C      1  0.4600380000000  0.4719820000000  0.5075280000000 1.0
C      1  0.5400410000000  0.5278470000000  0.5075280000000 1.0
C      1  0.5279720000000  0.4923410000000  0.5399550000000 1.0
C      1  0.4924660000000  0.4599130000000  0.4720220000000 1.0
C      1  0.4600380000000  0.5278470000000  0.5075280000000 1.0
C      1  0.4721080000000  0.5074880000000  0.5399550000000 1.0
C      1  0.5279720000000  0.5074880000000  0.4599530000000 1.0
C      1  0.4721080000000  0.4923410000000  0.4599530000000 1.0
C      1  0.5076130000000  0.5399160000000  0.4720220000000 1.0
C      1  0.4924660000000  0.5399160000000  0.5278860000000 1.0
C      1  0.5076130000000  0.4599130000000  0.5278860000000 1.0
C      1  0.5400410000000  0.4719820000000  0.5075280000000 1.0
C      1  0.4600380000000  0.4719820000000  0.4923810000000 1.0
C      1  0.5400410000000  0.5278470000000  0.4923810000000 1.0
C      1  0.4610080000000  0.5439130000000  0.4414590000000 1.0
C      1  0.5440380000000  0.4414190000000  0.4609230000000 1.0
C      1  0.4415450000000  0.4608830000000  0.5439520000000 1.0
C      1  0.5390710000000  0.4559160000000  0.4414590000000 1.0
C      1  0.4610080000000  0.4559160000000  0.5584490000000 1.0
C      1  0.5390710000000  0.5439130000000  0.5584490000000 1.0
C      1  0.4560420000000  0.5584100000000  0.4609230000000 1.0
C      1  0.5440380000000  0.5584100000000  0.5389860000000 1.0
C      1  0.4560420000000  0.4414190000000  0.5389860000000 1.0
C      1  0.5585350000000  0.5389460000000  0.5439520000000 1.0
C      1  0.4415450000000  0.5389460000000  0.4559560000000 1.0
C      1  0.5585350000000  0.4608830000000  0.4559560000000 1.0
C      1  0.4610080000000  0.5439130000000  0.5584490000000 1.0
C      1  0.5440380000000  0.4414190000000  0.5389860000000 1.0
C      1  0.4415450000000  0.4608830000000  0.4559560000000 1.0
C      1  0.5390710000000  0.4559160000000  0.5584490000000 1.0
C      1  0.4610080000000  0.4559160000000  0.4414590000000 1.0
C      1  0.5390710000000  0.5439130000000  0.4414590000000 1.0
C      1  0.4560420000000  0.5584100000000  0.5389860000000 1.0
C      1  0.5440380000000  0.5584100000000  0.4609230000000 1.0
C      1  0.4560420000000  0.4414190000000  0.4609230000000 1.0
C      1  0.5585350000000  0.5389460000000  0.4559560000000 1.0
C      1  0.4415450000000  0.5389460000000  0.5439520000000 1.0
C      1  0.5585350000000  0.4608830000000  0.5439520000000 1.0
C      1  0.4478900000000  0.4930050000000  0.4470740000000 1.0
C      1  0.4931300000000  0.4470340000000  0.4478050000000 1.0
C      1  0.4471600000000  0.4477650000000  0.4930440000000 1.0
C      1  0.5521890000000  0.5068240000000  0.4470740000000 1.0
C      1  0.4478900000000  0.5068240000000  0.5528340000000 1.0
C      1  0.5521890000000  0.4930050000000  0.5528340000000 1.0
C      1  0.5069500000000  0.5527950000000  0.4478050000000 1.0
C      1  0.4931300000000  0.5527950000000  0.5521040000000 1.0
C      1  0.5069500000000  0.4470340000000  0.5521040000000 1.0
C      1  0.5529200000000  0.5520640000000  0.4930440000000 1.0
C      1  0.4471600000000  0.5520640000000  0.5068640000000 1.0
C      1  0.5529200000000  0.4477650000000  0.5068640000000 1.0
C      1  0.4478900000000  0.4930050000000  0.5528340000000 1.0
C      1  0.4931300000000  0.4470340000000  0.5521040000000 1.0
C      1  0.4471600000000  0.4477650000000  0.5068640000000 1.0
C      1  0.5521890000000  0.5068240000000  0.5528340000000 1.0
C      1  0.4478900000000  0.5068240000000  0.4470740000000 1.0
C      1  0.5521890000000  0.4930050000000  0.4470740000000 1.0
C      1  0.5069500000000  0.5527950000000  0.5521040000000 1.0
C      1  0.4931300000000  0.5527950000000  0.4478050000000 1.0
C      1  0.5069500000000  0.4470340000000  0.4478050000000 1.0
C      1  0.5529200000000  0.5520640000000  0.5068640000000 1.0
C      1  0.4471600000000  0.5520640000000  0.4930440000000 1.0
C      1  0.5529200000000  0.4477650000000  0.4930440000000 1.0
C      1  0.4763840000000  0.4338870000000  0.4739870000000 1.0
C      1  0.4340120000000  0.4739470000000  0.4762990000000 1.0
C      1  0.4740720000000  0.4762590000000  0.4339260000000 1.0
C      1  0.5236950000000  0.5659420000000  0.4739870000000 1.0
C      1  0.4763840000000  0.5659420000000  0.5259220000000 1.0
C      1  0.5236950000000  0.4338870000000  0.5259220000000 1.0
C      1  0.5660680000000  0.5258820000000  0.4762990000000 1.0
C      1  0.4340120000000  0.5258820000000  0.5236100000000 1.0
C      1  0.5660680000000  0.4739470000000  0.5236100000000 1.0
C      1  0.5260070000000  0.5235700000000  0.4339260000000 1.0
C      1  0.4740720000000  0.5235700000000  0.5659820000000 1.0
C      1  0.5260070000000  0.4762590000000  0.5659820000000 1.0
C      1  0.4763840000000  0.4338870000000  0.5259220000000 1.0
C      1  0.4340120000000  0.4739470000000  0.5236100000000 1.0
C      1  0.4740720000000  0.4762590000000  0.5659820000000 1.0
C      1  0.5236950000000  0.5659420000000  0.5259220000000 1.0
C      1  0.4763840000000  0.5659420000000  0.4739870000000 1.0
C      1  0.5236950000000  0.4338870000000  0.4739870000000 1.0
C      1  0.5660680000000  0.5258820000000  0.5236100000000 1.0
C      1  0.4340120000000  0.5258820000000  0.4762990000000 1.0
C      1  0.5660680000000  0.4739470000000  0.4762990000000 1.0
C      1  0.5260070000000  0.5235700000000  0.5659820000000 1.0
C      1  0.4740720000000  0.5235700000000  0.4339260000000 1.0
C      1  0.5260070000000  0.4762590000000  0.4339260000000 1.0
C      1  0.5128840000000  0.5160690000000  0.4397610000000 1.0
C      1  0.5161940000000  0.4397220000000  0.5127990000000 1.0
C      1  0.4398470000000  0.5127590000000  0.5161080000000 1.0
C      1  0.4871950000000  0.4837600000000  0.4397610000000 1.0
C      1  0.5128840000000  0.4837600000000  0.5601470000000 1.0
C      1  0.4871950000000  0.5160690000000  0.5601470000000 1.0
C      1  0.4838850000000  0.5601070000000  0.5127990000000 1.0
C      1  0.5161940000000  0.5601070000000  0.4871100000000 1.0
C      1  0.4838850000000  0.4397220000000  0.4871100000000 1.0
C      1  0.5602320000000  0.4870700000000  0.5161080000000 1.0
C      1  0.4398470000000  0.4870700000000  0.4838000000000 1.0
C      1  0.5602320000000  0.5127590000000  0.4838000000000 1.0
C      1  0.5128840000000  0.5160690000000  0.5601470000000 1.0
C      1  0.5161940000000  0.4397220000000  0.4871100000000 1.0
C      1  0.4398470000000  0.5127590000000  0.4838000000000 1.0
C      1  0.4871950000000  0.4837600000000  0.5601470000000 1.0
C      1  0.5128840000000  0.4837600000000  0.4397610000000 1.0
C      1  0.4871950000000  0.5160690000000  0.4397610000000 1.0
C      1  0.4838850000000  0.5601070000000  0.4871100000000 1.0
C      1  0.5161940000000  0.5601070000000  0.5127990000000 1.0
C      1  0.4838850000000  0.4397220000000  0.5127990000000 1.0
C      1  0.5602320000000  0.4870700000000  0.4838000000000 1.0
C      1  0.4398470000000  0.4870700000000  0.5161080000000 1.0
C      1  0.5602320000000  0.5127590000000  0.5161080000000 1.0
C      1  0.4674910000000  0.4936310000000  0.4187020000000 1.0
C      1  0.4937560000000  0.4186620000000  0.4674050000000 1.0
C      1  0.4187880000000  0.4673660000000  0.4936700000000 1.0
C      1  0.5325890000000  0.5061980000000  0.4187020000000 1.0
C      1  0.4674910000000  0.5061980000000  0.5812060000000 1.0
C      1  0.5325890000000  0.4936310000000  0.5812060000000 1.0
C      1  0.5063240000000  0.5811670000000  0.4674050000000 1.0
C      1  0.4937560000000  0.5811670000000  0.5325030000000 1.0
C      1  0.5063240000000  0.4186620000000  0.5325030000000 1.0
C      1  0.5812920000000  0.5324640000000  0.4936700000000 1.0
C      1  0.4187880000000  0.5324640000000  0.5062380000000 1.0
C      1  0.5812920000000  0.4673660000000  0.5062380000000 1.0
C      1  0.4674910000000  0.4936310000000  0.5812060000000 1.0
C      1  0.4937560000000  0.4186620000000  0.5325030000000 1.0
C      1  0.4187880000000  0.4673660000000  0.5062380000000 1.0
C      1  0.5325890000000  0.5061980000000  0.5812060000000 1.0
C      1  0.4674910000000  0.5061980000000  0.4187020000000 1.0
C      1  0.5325890000000  0.4936310000000  0.4187020000000 1.0
C      1  0.5063240000000  0.5811670000000  0.5325030000000 1.0
C      1  0.4937560000000  0.5811670000000  0.4674050000000 1.0
C      1  0.5063240000000  0.4186620000000  0.4674050000000 1.0
C      1  0.5812920000000  0.5324640000000  0.5062380000000 1.0
C      1  0.4187880000000  0.5324640000000  0.4936700000000 1.0
C      1  0.5812920000000  0.4673660000000  0.4936700000000 1.0
C      1  0.4277960000000  0.5360160000000  0.5160000000000 1.0
C      1  0.5361410000000  0.5159610000000  0.4277100000000 1.0
C      1  0.5160860000000  0.4276710000000  0.5360550000000 1.0
C      1  0.5722830000000  0.4638130000000  0.5160000000000 1.0
C      1  0.4277960000000  0.4638130000000  0.4839080000000 1.0
C      1  0.5722830000000  0.5360160000000  0.4839080000000 1.0
C      1  0.4639390000000  0.4838680000000  0.4277100000000 1.0
C      1  0.5361410000000  0.4838680000000  0.5721980000000 1.0
C      1  0.4639390000000  0.5159610000000  0.5721980000000 1.0
C      1  0.4839930000000  0.5721580000000  0.5360550000000 1.0
C      1  0.5160860000000  0.5721580000000  0.4638530000000 1.0
C      1  0.4839930000000  0.4276710000000  0.4638530000000 1.0
C      1  0.4277960000000  0.5360160000000  0.4839080000000 1.0
C      1  0.5361410000000  0.5159610000000  0.5721980000000 1.0
C      1  0.5160860000000  0.4276710000000  0.4638530000000 1.0
C      1  0.5722830000000  0.4638130000000  0.4839080000000 1.0
C      1  0.4277960000000  0.4638130000000  0.5160000000000 1.0
C      1  0.5722830000000  0.5360160000000  0.5160000000000 1.0
C      1  0.4639390000000  0.4838680000000  0.5721980000000 1.0
C      1  0.5361410000000  0.4838680000000  0.4277100000000 1.0
C      1  0.4639390000000  0.5159610000000  0.4277100000000 1.0
C      1  0.4839930000000  0.5721580000000  0.4638530000000 1.0
C      1  0.5160860000000  0.5721580000000  0.5360550000000 1.0
C      1  0.4839930000000  0.4276710000000  0.5360550000000 1.0
C      1  0.5070120000000  0.5654540000000  0.4999540000000 1.0
C      1  0.5655790000000  0.4999150000000  0.5069270000000 1.0
C      1  0.5000400000000  0.5068870000000  0.5654940000000 1.0
C      1  0.4930670000000  0.4343750000000  0.4999540000000 1.0
C      1  0.5070120000000  0.4343750000000  0.4999540000000 1.0
C      1  0.4930670000000  0.5654540000000  0.4999540000000 1.0
C      1  0.4345000000000  0.4999150000000  0.5069270000000 1.0
C      1  0.5655790000000  0.4999150000000  0.4929810000000 1.0
C      1  0.4345000000000  0.4999150000000  0.4929810000000 1.0
C      1  0.5000400000000  0.4929420000000  0.5654940000000 1.0
C      1  0.5000400000000  0.4929420000000  0.4344150000000 1.0
C      1  0.5000400000000  0.5068870000000  0.4344150000000 1.0
C      1  0.4695590000000  0.5303960000000  0.5304350000000 1.0
C      1  0.5305210000000  0.4694340000000  0.5304350000000 1.0
C      1  0.4695590000000  0.5303960000000  0.4694730000000 1.0
C      1  0.5305210000000  0.4694340000000  0.4694730000000 1.0
C      1  0.5305210000000  0.5303960000000  0.4694730000000 1.0
C      1  0.4695590000000  0.4694340000000  0.4694730000000 1.0
C      1  0.5305210000000  0.5303960000000  0.5304350000000 1.0
C      1  0.4695590000000  0.4694340000000  0.5304350000000 1.0
END
