TITL C-1379265-1223-392 2.08617916948375e-07 1000000 -2960.95539971902 0 0 420 (Td) n - 1
REM
REM in /nfs/bkarasulu/CARBON/AIRSS/Generating-Clusters/GAP-ML-2020/Higher-Symm/Selected-Sizes/TryA-Only_Ih-Symm/Larger-Clusters/Try2-MINAMP_6A
REM
REM
REM
REM
REM
REM ./C.cell (31579ac4e95a012ec27f3239692ae8a5)
REM
REM compiler GCC version 9.2.1 20190827 (Red Hat 9.2.1-1)
REM options -cpp -mtune=generic -march=x86-64 -g -O0 -fpre-include=/usr/include/finclude/math-vector-fortran.h
REM seed 828066772 -1441086549 62292175 124318545 -1908299396 -2004163799 758551765 375971022 930017249 1963917209 708954029 991174012 -824389311 -1073414972 -991895485 -1160374892 -143185721 1086172464 1854917956 1378413397 -452456554 -2124538195 -88041239 -305341942 1963948099 1298182749 -1127127588 1699565063 128133024 -1118785274 -956157838 1163813567 -78192936
REM
CELL 1.54180  100.00000  100.00000  100.00000   90.00000   90.00000   90.00000
LATT -1
SFAC C  
C      1  0.5088700000000  0.4701710000000  0.4238770000000 1.0
C      1  0.4701710000000  0.4238770000000  0.5088700000000 1.0
C      1  0.4238770000000  0.5088700000000  0.4701710000000 1.0
C      1  0.4911300000000  0.5298290000000  0.4238770000000 1.0
C      1  0.5088700000000  0.5298290000000  0.5761230000000 1.0
C      1  0.4911300000000  0.4701710000000  0.5761230000000 1.0
C      1  0.5298290000000  0.5761230000000  0.5088700000000 1.0
C      1  0.4701710000000  0.5761230000000  0.4911300000000 1.0
C      1  0.5298290000000  0.4238770000000  0.4911300000000 1.0
C      1  0.5761230000000  0.4911300000000  0.4701710000000 1.0
C      1  0.4238770000000  0.4911300000000  0.5298280000000 1.0
C      1  0.5761230000000  0.5088700000000  0.5298290000000 1.0
C      1  0.4701710000000  0.5088700000000  0.4238770000000 1.0
C      1  0.4238770000000  0.4701710000000  0.5088700000000 1.0
C      1  0.5088700000000  0.4238770000000  0.4701710000000 1.0
C      1  0.5298290000000  0.4911300000000  0.4238770000000 1.0
C      1  0.5298290000000  0.5088700000000  0.5761230000000 1.0
C      1  0.4701710000000  0.4911300000000  0.5761230000000 1.0
C      1  0.5761230000000  0.5298290000000  0.5088700000000 1.0
C      1  0.5761230000000  0.4701710000000  0.4911300000000 1.0
C      1  0.4238770000000  0.5298290000000  0.4911300000000 1.0
C      1  0.4911300000000  0.5761230000000  0.4701710000000 1.0
C      1  0.4911300000000  0.4238770000000  0.5298290000000 1.0
C      1  0.5088700000000  0.5761230000000  0.5298280000000 1.0
C      1  0.4839690000000  0.4240780000000  0.5061840000000 1.0
C      1  0.4240770000000  0.5061840000000  0.4839690000000 1.0
C      1  0.5061840000000  0.4839690000000  0.4240780000000 1.0
C      1  0.5160310000000  0.5759230000000  0.5061840000000 1.0
C      1  0.4839690000000  0.5759230000000  0.4938160000000 1.0
C      1  0.5160310000000  0.4240770000000  0.4938160000000 1.0
C      1  0.5759230000000  0.4938160000000  0.4839690000000 1.0
C      1  0.4240770000000  0.4938160000000  0.5160300000000 1.0
C      1  0.5759230000000  0.5061840000000  0.5160310000000 1.0
C      1  0.4938160000000  0.5160310000000  0.4240770000000 1.0
C      1  0.5061840000000  0.5160310000000  0.5759230000000 1.0
C      1  0.4938160000000  0.4839700000000  0.5759230000000 1.0
C      1  0.4240770000000  0.4839690000000  0.5061840000000 1.0
C      1  0.5061840000000  0.4240770000000  0.4839690000000 1.0
C      1  0.4839700000000  0.5061840000000  0.4240770000000 1.0
C      1  0.5759220000000  0.5160310000000  0.5061840000000 1.0
C      1  0.5759230000000  0.4839700000000  0.4938160000000 1.0
C      1  0.4240770000000  0.5160310000000  0.4938160000000 1.0
C      1  0.4938160000000  0.5759220000000  0.4839690000000 1.0
C      1  0.4938160000000  0.4240770000000  0.5160310000000 1.0
C      1  0.5061840000000  0.5759230000000  0.5160300000000 1.0
C      1  0.5160310000000  0.4938160000000  0.4240780000000 1.0
C      1  0.5160310000000  0.5061840000000  0.5759230000000 1.0
C      1  0.4839690000000  0.4938160000000  0.5759230000000 1.0
C      1  0.5702910000000  0.4781310000000  0.4672250000000 1.0
C      1  0.4781310000000  0.4672250000000  0.5702910000000 1.0
C      1  0.4672250000000  0.5702910000000  0.4781310000000 1.0
C      1  0.4297080000000  0.5218690000000  0.4672250000000 1.0
C      1  0.5702910000000  0.5218690000000  0.5327750000000 1.0
C      1  0.4297080000000  0.4781310000000  0.5327750000000 1.0
C      1  0.5218690000000  0.5327750000000  0.5702910000000 1.0
C      1  0.4781310000000  0.5327750000000  0.4297080000000 1.0
C      1  0.5218690000000  0.4672250000000  0.4297090000000 1.0
C      1  0.5327750000000  0.4297080000000  0.4781310000000 1.0
C      1  0.4672250000000  0.4297090000000  0.5218690000000 1.0
C      1  0.5327750000000  0.5702920000000  0.5218690000000 1.0
C      1  0.4781310000000  0.5702910000000  0.4672250000000 1.0
C      1  0.4672250000000  0.4781310000000  0.5702910000000 1.0
C      1  0.5702920000000  0.4672250000000  0.4781310000000 1.0
C      1  0.5218690000000  0.4297090000000  0.4672250000000 1.0
C      1  0.5218690000000  0.5702920000000  0.5327750000000 1.0
C      1  0.4781310000000  0.4297090000000  0.5327750000000 1.0
C      1  0.5327750000000  0.5218690000000  0.5702910000000 1.0
C      1  0.5327750000000  0.4781310000000  0.4297090000000 1.0
C      1  0.4672250000000  0.5218690000000  0.4297080000000 1.0
C      1  0.4297090000000  0.5327750000000  0.4781310000000 1.0
C      1  0.4297090000000  0.4672250000000  0.5218690000000 1.0
C      1  0.5702910000000  0.5327750000000  0.5218690000000 1.0
C      1  0.4534000000000  0.5091970000000  0.4807220000000 1.0
C      1  0.5091970000000  0.4807230000000  0.4534010000000 1.0
C      1  0.4807230000000  0.4534010000000  0.5091970000000 1.0
C      1  0.5466000000000  0.4908030000000  0.4807230000000 1.0
C      1  0.4534000000000  0.4908030000000  0.5192770000000 1.0
C      1  0.5465990000000  0.5091970000000  0.5192770000000 1.0
C      1  0.4908030000000  0.5192770000000  0.4534000000000 1.0
C      1  0.5091970000000  0.5192780000000  0.5466000000000 1.0
C      1  0.4908030000000  0.4807230000000  0.5466000000000 1.0
C      1  0.5192770000000  0.5466000000000  0.5091970000000 1.0
C      1  0.4807230000000  0.5465990000000  0.4908030000000 1.0
C      1  0.5192770000000  0.4534000000000  0.4908030000000 1.0
C      1  0.5091970000000  0.4534000000000  0.4807230000000 1.0
C      1  0.4807230000000  0.5091970000000  0.4534000000000 1.0
C      1  0.4534000000000  0.4807230000000  0.5091970000000 1.0
C      1  0.4908030000000  0.5465990000000  0.4807220000000 1.0
C      1  0.4908030000000  0.4534010000000  0.5192770000000 1.0
C      1  0.5091970000000  0.5466000000000  0.5192770000000 1.0
C      1  0.5192770000000  0.4908030000000  0.4534010000000 1.0
C      1  0.5192770000000  0.5091970000000  0.5466000000000 1.0
C      1  0.4807230000000  0.4908030000000  0.5466000000000 1.0
C      1  0.5465990000000  0.5192770000000  0.5091970000000 1.0
C      1  0.5466000000000  0.4807230000000  0.4908030000000 1.0
C      1  0.4534000000000  0.5192770000000  0.4908030000000 1.0
C      1  0.5038350000000  0.5378210000000  0.4413030000000 1.0
C      1  0.5378220000000  0.4413030000000  0.5038350000000 1.0
C      1  0.4413030000000  0.5038350000000  0.5378210000000 1.0
C      1  0.4961650000000  0.4621790000000  0.4413030000000 1.0
C      1  0.5038350000000  0.4621790000000  0.5586970000000 1.0
C      1  0.4961650000000  0.5378220000000  0.5586970000000 1.0
C      1  0.4621790000000  0.5586970000000  0.5038350000000 1.0
C      1  0.5378210000000  0.5586970000000  0.4961650000000 1.0
C      1  0.4621790000000  0.4413030000000  0.4961650000000 1.0
C      1  0.5586970000000  0.4961650000000  0.5378210000000 1.0
C      1  0.4413030000000  0.4961650000000  0.4621780000000 1.0
C      1  0.5586970000000  0.5038350000000  0.4621790000000 1.0
C      1  0.5378210000000  0.5038350000000  0.4413030000000 1.0
C      1  0.4413030000000  0.5378210000000  0.5038350000000 1.0
C      1  0.5038350000000  0.4413030000000  0.5378210000000 1.0
C      1  0.4621790000000  0.4961650000000  0.4413030000000 1.0
C      1  0.4621780000000  0.5038350000000  0.5586970000000 1.0
C      1  0.5378210000000  0.4961650000000  0.5586970000000 1.0
C      1  0.5586970000000  0.4621790000000  0.5038350000000 1.0
C      1  0.5586970000000  0.5378210000000  0.4961650000000 1.0
C      1  0.4413030000000  0.4621790000000  0.4961650000000 1.0
C      1  0.4961650000000  0.5586970000000  0.5378210000000 1.0
C      1  0.4961650000000  0.4413030000000  0.4621790000000 1.0
C      1  0.5038350000000  0.5586970000000  0.4621780000000 1.0
C      1  0.5378520000000  0.5176780000000  0.4223910000000 1.0
C      1  0.5176780000000  0.4223910000000  0.5378530000000 1.0
C      1  0.4223920000000  0.5378540000000  0.5176780000000 1.0
C      1  0.4621450000000  0.4823220000000  0.4223920000000 1.0
C      1  0.5378540000000  0.4823220000000  0.5776080000000 1.0
C      1  0.4621460000000  0.5176780000000  0.5776090000000 1.0
C      1  0.4823220000000  0.5776080000000  0.5378540000000 1.0
C      1  0.5176780000000  0.5776090000000  0.4621480000000 1.0
C      1  0.4823230000000  0.4223920000000  0.4621450000000 1.0
C      1  0.5776090000000  0.4621460000000  0.5176780000000 1.0
C      1  0.4223920000000  0.4621450000000  0.4823220000000 1.0
C      1  0.5776090000000  0.5378520000000  0.4823220000000 1.0
C      1  0.5176770000000  0.5378550000000  0.4223920000000 1.0
C      1  0.4223910000000  0.5176780000000  0.5378530000000 1.0
C      1  0.5378540000000  0.4223910000000  0.5176780000000 1.0
C      1  0.4823220000000  0.4621480000000  0.4223910000000 1.0
C      1  0.4823220000000  0.5378530000000  0.5776090000000 1.0
C      1  0.5176780000000  0.4621460000000  0.5776080000000 1.0
C      1  0.5776090000000  0.4823220000000  0.5378530000000 1.0
C      1  0.5776080000000  0.5176770000000  0.4621450000000 1.0
C      1  0.4223910000000  0.4823220000000  0.4621470000000 1.0
C      1  0.4621470000000  0.5776090000000  0.5176780000000 1.0
C      1  0.4621470000000  0.4223910000000  0.4823220000000 1.0
C      1  0.5378550000000  0.5776080000000  0.4823230000000 1.0
C      1  0.5221450000000  0.4463020000000  0.5026170000000 1.0
C      1  0.4463030000000  0.5026170000000  0.5221450000000 1.0
C      1  0.5026170000000  0.5221450000000  0.4463030000000 1.0
C      1  0.4778550000000  0.5536970000000  0.5026170000000 1.0
C      1  0.5221450000000  0.5536980000000  0.4973830000000 1.0
C      1  0.4778550000000  0.4463030000000  0.4973830000000 1.0
C      1  0.5536970000000  0.4973830000000  0.5221450000000 1.0
C      1  0.4463030000000  0.4973830000000  0.4778550000000 1.0
C      1  0.5536970000000  0.5026170000000  0.4778550000000 1.0
C      1  0.4973830000000  0.4778550000000  0.4463030000000 1.0
C      1  0.5026170000000  0.4778550000000  0.5536970000000 1.0
C      1  0.4973830000000  0.5221450000000  0.5536970000000 1.0
C      1  0.4463030000000  0.5221450000000  0.5026170000000 1.0
C      1  0.5026170000000  0.4463030000000  0.5221450000000 1.0
C      1  0.5221450000000  0.5026170000000  0.4463030000000 1.0
C      1  0.5536980000000  0.4778550000000  0.5026170000000 1.0
C      1  0.5536970000000  0.5221450000000  0.4973830000000 1.0
C      1  0.4463030000000  0.4778550000000  0.4973830000000 1.0
C      1  0.4973830000000  0.5536980000000  0.5221450000000 1.0
C      1  0.4973830000000  0.4463030000000  0.4778550000000 1.0
C      1  0.5026170000000  0.5536970000000  0.4778550000000 1.0
C      1  0.4778550000000  0.4973830000000  0.4463020000000 1.0
C      1  0.4778550000000  0.5026170000000  0.5536970000000 1.0
C      1  0.5221440000000  0.4973830000000  0.5536970000000 1.0
C      1  0.4832530000000  0.4507910000000  0.4613780000000 1.0
C      1  0.4507910000000  0.4613780000000  0.4832530000000 1.0
C      1  0.4613780000000  0.4832530000000  0.4507910000000 1.0
C      1  0.5167470000000  0.5492100000000  0.4613780000000 1.0
C      1  0.4832530000000  0.5492100000000  0.5386220000000 1.0
C      1  0.5167470000000  0.4507900000000  0.5386220000000 1.0
C      1  0.5492100000000  0.5386220000000  0.4832530000000 1.0
C      1  0.4507910000000  0.5386220000000  0.5167470000000 1.0
C      1  0.5492100000000  0.4613780000000  0.5167470000000 1.0
C      1  0.5386220000000  0.5167470000000  0.4507900000000 1.0
C      1  0.4613780000000  0.5167470000000  0.5492100000000 1.0
C      1  0.5386220000000  0.4832530000000  0.5492090000000 1.0
C      1  0.4507900000000  0.4832530000000  0.4613780000000 1.0
C      1  0.4613780000000  0.4507900000000  0.4832530000000 1.0
C      1  0.4832530000000  0.4613780000000  0.4507900000000 1.0
C      1  0.5492090000000  0.5167470000000  0.4613780000000 1.0
C      1  0.5492100000000  0.4832530000000  0.5386220000000 1.0
C      1  0.4507900000000  0.5167470000000  0.5386220000000 1.0
C      1  0.5386220000000  0.5492090000000  0.4832530000000 1.0
C      1  0.5386220000000  0.4507900000000  0.5167470000000 1.0
C      1  0.4613780000000  0.5492100000000  0.5167470000000 1.0
C      1  0.5167470000000  0.5386220000000  0.4507910000000 1.0
C      1  0.5167470000000  0.4613780000000  0.5492100000000 1.0
C      1  0.4832530000000  0.5386220000000  0.5492100000000 1.0
C      1  0.4756550000000  0.4850820000000  0.4540610000000 1.0
C      1  0.4850820000000  0.4540610000000  0.4756550000000 1.0
C      1  0.4540610000000  0.4756550000000  0.4850820000000 1.0
C      1  0.5243450000000  0.5149180000000  0.4540610000000 1.0
C      1  0.4756550000000  0.5149180000000  0.5459390000000 1.0
C      1  0.5243440000000  0.4850820000000  0.5459390000000 1.0
C      1  0.5149180000000  0.5459400000000  0.4756550000000 1.0
C      1  0.4850820000000  0.5459390000000  0.5243450000000 1.0
C      1  0.5149180000000  0.4540610000000  0.5243450000000 1.0
C      1  0.5459390000000  0.5243450000000  0.4850820000000 1.0
C      1  0.4540610000000  0.5243450000000  0.5149180000000 1.0
C      1  0.5459390000000  0.4756550000000  0.5149180000000 1.0
C      1  0.4850820000000  0.4756550000000  0.4540610000000 1.0
C      1  0.4540600000000  0.4850820000000  0.4756550000000 1.0
C      1  0.4756560000000  0.4540610000000  0.4850820000000 1.0
C      1  0.5149180000000  0.5243450000000  0.4540610000000 1.0
C      1  0.5149180000000  0.4756560000000  0.5459390000000 1.0
C      1  0.4850820000000  0.5243450000000  0.5459400000000 1.0
C      1  0.5459390000000  0.5149180000000  0.4756550000000 1.0
C      1  0.5459390000000  0.4850820000000  0.5243450000000 1.0
C      1  0.4540610000000  0.5149180000000  0.5243450000000 1.0
C      1  0.5243450000000  0.5459390000000  0.4850820000000 1.0
C      1  0.5243450000000  0.4540610000000  0.5149180000000 1.0
C      1  0.4756550000000  0.5459390000000  0.5149180000000 1.0
C      1  0.4635170000000  0.5162400000000  0.4731550000000 1.0
C      1  0.5162400000000  0.4731550000000  0.4635170000000 1.0
C      1  0.4731550000000  0.4635170000000  0.5162400000000 1.0
C      1  0.5364840000000  0.4837600000000  0.4731560000000 1.0
C      1  0.4635170000000  0.4837600000000  0.5268450000000 1.0
C      1  0.5364830000000  0.5162400000000  0.5268450000000 1.0
C      1  0.4837600000000  0.5268440000000  0.4635160000000 1.0
C      1  0.5162400000000  0.5268450000000  0.5364830000000 1.0
C      1  0.4837600000000  0.4731560000000  0.5364830000000 1.0
C      1  0.5268440000000  0.5364840000000  0.5162400000000 1.0
C      1  0.4731550000000  0.5364830000000  0.4837600000000 1.0
C      1  0.5268450000000  0.4635160000000  0.4837610000000 1.0
C      1  0.5162400000000  0.4635160000000  0.4731560000000 1.0
C      1  0.4731550000000  0.5162400000000  0.4635160000000 1.0
C      1  0.4635170000000  0.4731550000000  0.5162400000000 1.0
C      1  0.4837600000000  0.5364830000000  0.4731550000000 1.0
C      1  0.4837600000000  0.4635170000000  0.5268450000000 1.0
C      1  0.5162400000000  0.5364840000000  0.5268450000000 1.0
C      1  0.5268450000000  0.4837600000000  0.4635170000000 1.0
C      1  0.5268440000000  0.5162400000000  0.5364830000000 1.0
C      1  0.4731550000000  0.4837600000000  0.5364830000000 1.0
C      1  0.5364830000000  0.5268450000000  0.5162400000000 1.0
C      1  0.5364840000000  0.4731550000000  0.4837600000000 1.0
C      1  0.4635170000000  0.5268440000000  0.4837600000000 1.0
C      1  0.4337030000000  0.5139290000000  0.5044140000000 1.0
C      1  0.5139280000000  0.5044130000000  0.4337030000000 1.0
C      1  0.5044140000000  0.4337030000000  0.5139290000000 1.0
C      1  0.5662980000000  0.4860710000000  0.5044140000000 1.0
C      1  0.4337020000000  0.4860710000000  0.4955850000000 1.0
C      1  0.5662970000000  0.5139280000000  0.4955870000000 1.0
C      1  0.4860710000000  0.4955850000000  0.4337020000000 1.0
C      1  0.5139280000000  0.4955860000000  0.5662970000000 1.0
C      1  0.4860710000000  0.5044150000000  0.5662980000000 1.0
C      1  0.4955850000000  0.5662980000000  0.5139290000000 1.0
C      1  0.5044140000000  0.5662970000000  0.4860720000000 1.0
C      1  0.4955850000000  0.4337020000000  0.4860710000000 1.0
C      1  0.5139290000000  0.4337020000000  0.5044150000000 1.0
C      1  0.5044150000000  0.5139290000000  0.4337020000000 1.0
C      1  0.4337030000000  0.5044140000000  0.5139280000000 1.0
C      1  0.4860720000000  0.5662970000000  0.5044140000000 1.0
C      1  0.4860720000000  0.4337030000000  0.4955860000000 1.0
C      1  0.5139290000000  0.5662980000000  0.4955850000000 1.0
C      1  0.4955860000000  0.4860720000000  0.4337030000000 1.0
C      1  0.4955860000000  0.5139290000000  0.5662970000000 1.0
C      1  0.5044140000000  0.4860720000000  0.5662970000000 1.0
C      1  0.5662970000000  0.4955860000000  0.5139290000000 1.0
C      1  0.5662980000000  0.5044150000000  0.4860710000000 1.0
C      1  0.4337030000000  0.4955860000000  0.4860720000000 1.0
C      1  0.5683890000000  0.5397550000000  0.4703160000000 1.0
C      1  0.5397550000000  0.4703170000000  0.5683890000000 1.0
C      1  0.4703170000000  0.5683890000000  0.5397560000000 1.0
C      1  0.4316110000000  0.4602440000000  0.4703170000000 1.0
C      1  0.5683890000000  0.4602440000000  0.5296830000000 1.0
C      1  0.4316110000000  0.5397560000000  0.5296830000000 1.0
C      1  0.4602440000000  0.5296830000000  0.5683890000000 1.0
C      1  0.5397550000000  0.5296840000000  0.4316110000000 1.0
C      1  0.4602440000000  0.4703170000000  0.4316110000000 1.0
C      1  0.5296830000000  0.4316110000000  0.5397550000000 1.0
C      1  0.4703170000000  0.4316110000000  0.4602440000000 1.0
C      1  0.5296840000000  0.5683890000000  0.4602450000000 1.0
C      1  0.5397560000000  0.5683890000000  0.4703170000000 1.0
C      1  0.4703160000000  0.5397550000000  0.5683890000000 1.0
C      1  0.5683890000000  0.4703170000000  0.5397550000000 1.0
C      1  0.4602450000000  0.4316110000000  0.4703160000000 1.0
C      1  0.4602450000000  0.5683890000000  0.5296830000000 1.0
C      1  0.5397560000000  0.4316110000000  0.5296830000000 1.0
C      1  0.5296830000000  0.4602450000000  0.5683890000000 1.0
C      1  0.5296830000000  0.5397560000000  0.4316110000000 1.0
C      1  0.4703160000000  0.4602450000000  0.4316110000000 1.0
C      1  0.4316110000000  0.5296830000000  0.5397550000000 1.0
C      1  0.4316110000000  0.4703160000000  0.4602450000000 1.0
C      1  0.5683890000000  0.5296830000000  0.4602440000000 1.0
C      1  0.5535540000000  0.5425040000000  0.4690440000000 1.0
C      1  0.5425040000000  0.4690440000000  0.5535540000000 1.0
C      1  0.4690440000000  0.5535540000000  0.5425040000000 1.0
C      1  0.4464460000000  0.4574960000000  0.4690440000000 1.0
C      1  0.5535540000000  0.4574960000000  0.5309560000000 1.0
C      1  0.4464460000000  0.5425040000000  0.5309560000000 1.0
C      1  0.4574960000000  0.5309560000000  0.5535540000000 1.0
C      1  0.5425040000000  0.5309560000000  0.4464460000000 1.0
C      1  0.4574960000000  0.4690440000000  0.4464460000000 1.0
C      1  0.5309560000000  0.4464460000000  0.5425040000000 1.0
C      1  0.4690440000000  0.4464460000000  0.4574960000000 1.0
C      1  0.5309560000000  0.5535540000000  0.4574960000000 1.0
C      1  0.5425050000000  0.5535540000000  0.4690440000000 1.0
C      1  0.4690440000000  0.5425040000000  0.5535540000000 1.0
C      1  0.5535540000000  0.4690440000000  0.5425040000000 1.0
C      1  0.4574960000000  0.4464460000000  0.4690440000000 1.0
C      1  0.4574960000000  0.5535540000000  0.5309560000000 1.0
C      1  0.5425040000000  0.4464460000000  0.5309560000000 1.0
C      1  0.5309560000000  0.4574960000000  0.5535540000000 1.0
C      1  0.5309560000000  0.5425040000000  0.4464460000000 1.0
C      1  0.4690440000000  0.4574960000000  0.4464460000000 1.0
C      1  0.4464460000000  0.5309560000000  0.5425040000000 1.0
C      1  0.4464460000000  0.4690440000000  0.4574960000000 1.0
C      1  0.5535540000000  0.5309560000000  0.4574960000000 1.0
C      1  0.4558540000000  0.5611200000000  0.4795250000000 1.0
C      1  0.5611200000000  0.4795250000000  0.4558540000000 1.0
C      1  0.4795250000000  0.4558540000000  0.5611200000000 1.0
C      1  0.5441470000000  0.4388800000000  0.4795250000000 1.0
C      1  0.4558540000000  0.4388800000000  0.5204750000000 1.0
C      1  0.5441470000000  0.5611200000000  0.5204750000000 1.0
C      1  0.4388800000000  0.5204750000000  0.4558530000000 1.0
C      1  0.5611200000000  0.5204750000000  0.5441470000000 1.0
C      1  0.4388800000000  0.4795250000000  0.5441470000000 1.0
C      1  0.5204750000000  0.5441470000000  0.5611200000000 1.0
C      1  0.4795250000000  0.5441460000000  0.4388800000000 1.0
C      1  0.5204750000000  0.4558530000000  0.4388800000000 1.0
C      1  0.5611200000000  0.4558530000000  0.4795250000000 1.0
C      1  0.4795250000000  0.5611200000000  0.4558530000000 1.0
C      1  0.4558530000000  0.4795250000000  0.5611200000000 1.0
C      1  0.4388800000000  0.5441460000000  0.4795250000000 1.0
C      1  0.4388800000000  0.4558530000000  0.5204750000000 1.0
C      1  0.5611200000000  0.5441470000000  0.5204750000000 1.0
C      1  0.5204750000000  0.4388800000000  0.4558540000000 1.0
C      1  0.5204750000000  0.5611200000000  0.5441470000000 1.0
C      1  0.4795250000000  0.4388800000000  0.5441470000000 1.0
C      1  0.5441460000000  0.5204750000000  0.5611200000000 1.0
C      1  0.5441470000000  0.4795250000000  0.4388800000000 1.0
C      1  0.4558530000000  0.5204750000000  0.4388800000000 1.0
C      1  0.5462000000000  0.5072540000000  0.5558610000000 1.0
C      1  0.5072540000000  0.5558610000000  0.5462010000000 1.0
C      1  0.5558620000000  0.5462010000000  0.5072540000000 1.0
C      1  0.4537990000000  0.4927460000000  0.5558610000000 1.0
C      1  0.5462010000000  0.4927460000000  0.4441390000000 1.0
C      1  0.4537990000000  0.5072540000000  0.4441390000000 1.0
C      1  0.4927460000000  0.4441390000000  0.5462010000000 1.0
C      1  0.5072540000000  0.4441390000000  0.4538000000000 1.0
C      1  0.4927460000000  0.5558620000000  0.4537990000000 1.0
C      1  0.4441390000000  0.4537990000000  0.5072540000000 1.0
C      1  0.5558620000000  0.4537990000000  0.4927460000000 1.0
C      1  0.4441390000000  0.5462000000000  0.4927460000000 1.0
C      1  0.5072540000000  0.5462010000000  0.5558620000000 1.0
C      1  0.5558610000000  0.5072540000000  0.5462010000000 1.0
C      1  0.5462010000000  0.5558610000000  0.5072540000000 1.0
C      1  0.4927460000000  0.4538000000000  0.5558610000000 1.0
C      1  0.4927460000000  0.5462010000000  0.4441390000000 1.0
C      1  0.5072540000000  0.4537990000000  0.4441390000000 1.0
C      1  0.4441380000000  0.4927460000000  0.5462010000000 1.0
C      1  0.4441380000000  0.5072540000000  0.4537990000000 1.0
C      1  0.5558610000000  0.4927460000000  0.4538000000000 1.0
C      1  0.4537990000000  0.4441390000000  0.5072540000000 1.0
C      1  0.4538000000000  0.5558610000000  0.4927460000000 1.0
C      1  0.5462010000000  0.4441380000000  0.4927460000000 1.0
C      1  0.5897140000000  0.4773610000000  0.5316270000000 1.0
C      1  0.4773610000000  0.5316260000000  0.5897150000000 1.0
C      1  0.5316300000000  0.5897150000000  0.4773620000000 1.0
C      1  0.4102850000000  0.5226390000000  0.5316270000000 1.0
C      1  0.5897150000000  0.5226380000000  0.4683700000000 1.0
C      1  0.4102860000000  0.4773600000000  0.4683740000000 1.0
C      1  0.5226390000000  0.4683730000000  0.5897150000000 1.0
C      1  0.4773600000000  0.4683750000000  0.4102860000000 1.0
C      1  0.5226380000000  0.5316300000000  0.4102850000000 1.0
C      1  0.4683750000000  0.4102860000000  0.4773600000000 1.0
C      1  0.5316280000000  0.4102850000000  0.5226390000000 1.0
C      1  0.4683740000000  0.5897140000000  0.5226390000000 1.0
C      1  0.4773610000000  0.5897150000000  0.5316280000000 1.0
C      1  0.5316270000000  0.4773610000000  0.5897140000000 1.0
C      1  0.5897140000000  0.5316250000000  0.4773600000000 1.0
C      1  0.5226390000000  0.4102850000000  0.5316270000000 1.0
C      1  0.5226400000000  0.5897140000000  0.4683760000000 1.0
C      1  0.4773620000000  0.4102850000000  0.4683710000000 1.0
C      1  0.4683720000000  0.5226390000000  0.5897150000000 1.0
C      1  0.4683710000000  0.4773620000000  0.4102850000000 1.0
C      1  0.5316240000000  0.5226400000000  0.4102860000000 1.0
C      1  0.4102850000000  0.4683710000000  0.4773610000000 1.0
C      1  0.4102850000000  0.5316280000000  0.5226390000000 1.0
C      1  0.5897150000000  0.4683720000000  0.5226390000000 1.0
C      1  0.4628560000000  0.4957310000000  0.4269540000000 1.0
C      1  0.4957310000000  0.4269540000000  0.4628560000000 1.0
C      1  0.4269540000000  0.4628560000000  0.4957310000000 1.0
C      1  0.5371430000000  0.5042700000000  0.4269530000000 1.0
C      1  0.4628560000000  0.5042700000000  0.5730460000000 1.0
C      1  0.5371440000000  0.4957300000000  0.5730460000000 1.0
C      1  0.5042700000000  0.5730470000000  0.4628570000000 1.0
C      1  0.4957310000000  0.5730460000000  0.5371440000000 1.0
C      1  0.5042700000000  0.4269540000000  0.5371440000000 1.0
C      1  0.5730470000000  0.5371430000000  0.4957300000000 1.0
C      1  0.4269540000000  0.5371440000000  0.5042690000000 1.0
C      1  0.5730460000000  0.4628560000000  0.5042700000000 1.0
C      1  0.4957300000000  0.4628570000000  0.4269540000000 1.0
C      1  0.4269530000000  0.4957300000000  0.4628570000000 1.0
C      1  0.4628570000000  0.4269540000000  0.4957300000000 1.0
C      1  0.5042690000000  0.5371440000000  0.4269540000000 1.0
C      1  0.5042700000000  0.4628570000000  0.5730460000000 1.0
C      1  0.4957300000000  0.5371440000000  0.5730470000000 1.0
C      1  0.5730460000000  0.5042690000000  0.4628560000000 1.0
C      1  0.5730460000000  0.4957300000000  0.5371440000000 1.0
C      1  0.4269540000000  0.5042700000000  0.5371430000000 1.0
C      1  0.5371440000000  0.5730460000000  0.4957310000000 1.0
C      1  0.5371440000000  0.4269540000000  0.5042700000000 1.0
C      1  0.4628570000000  0.5730460000000  0.5042700000000 1.0
C      1  0.5532070000000  0.4467930000000  0.4718520000000 1.0
C      1  0.4467930000000  0.4718520000000  0.5532070000000 1.0
C      1  0.4718520000000  0.5532070000000  0.4467930000000 1.0
C      1  0.4467930000000  0.5532070000000  0.4718520000000 1.0
C      1  0.5532070000000  0.5281480000000  0.5532070000000 1.0
C      1  0.4467930000000  0.5281480000000  0.4467930000000 1.0
C      1  0.5532070000000  0.4718520000000  0.4467930000000 1.0
C      1  0.4718520000000  0.4467930000000  0.5532070000000 1.0
C      1  0.5532070000000  0.5532070000000  0.5281480000000 1.0
C      1  0.4467930000000  0.4467930000000  0.5281480000000 1.0
C      1  0.5281480000000  0.5532070000000  0.5532070000000 1.0
C      1  0.5281480000000  0.4467930000000  0.4467930000000 1.0
END
