TITL C-1379267-1329-239 1.53520175176093e-07 1000000 -4113.54031489164 0 0 580 (C1) n - 1
REM
REM in /nfs/bkarasulu/CARBON/AIRSS/Generating-Clusters/GAP-ML-2020/Higher-Symm/Selected-Sizes/TryA-Only_Ih-Symm/Larger-Clusters/Try2-MINAMP_6A
REM
REM
REM
REM
REM
REM ./C.cell (31579ac4e95a012ec27f3239692ae8a5)
REM
REM compiler GCC version 9.2.1 20190827 (Red Hat 9.2.1-1)
REM options -cpp -mtune=generic -march=x86-64 -g -O0 -fpre-include=/usr/include/finclude/math-vector-fortran.h
REM seed -203551026 219346817 -755633557 -1341227340 531665901 2064395049 1596957082 1746287813 -716827113 -1099942543 1313052214 1216640368 -1093348685 -1856439741 1222934745 -129423985 -500011319 -490567355 -243834573 993711979 -325138899 -1417244203 -1675528517 1246472765 -1290619844 143772237 760074636 -1076603422 337453692 -1658299159 2011337042 -1830609996 -1339623429
REM
CELL 1.54180  100.00000  100.00000  100.00000   90.00000   90.00000   90.00000
LATT -1
SFAC C  
C      1  0.5002060000000  0.4900480000000  0.5915290000000 1.0
C      1  0.5916000000000  0.4993500000000  0.4896020000000 1.0
C      1  0.4904080000000  0.5912780000000  0.5004220000000 1.0
C      1  0.5002580000000  0.5103630000000  0.4081350000000 1.0
C      1  0.5004330000000  0.5104490000000  0.5914730000000 1.0
C      1  0.5002470000000  0.4901690000000  0.4082150000000 1.0
C      1  0.5916790000000  0.4997170000000  0.5099360000000 1.0
C      1  0.4087180000000  0.5003170000000  0.4898430000000 1.0
C      1  0.4086960000000  0.4998500000000  0.5102940000000 1.0
C      1  0.4905190000000  0.4089830000000  0.5003880000000 1.0
C      1  0.5107730000000  0.4094580000000  0.5001530000000 1.0
C      1  0.5105410000000  0.5914980000000  0.5004090000000 1.0
C      1  0.5002430000000  0.5914700000000  0.4901360000000 1.0
C      1  0.5915340000000  0.4893530000000  0.4996730000000 1.0
C      1  0.4901700000000  0.5000810000000  0.5915150000000 1.0
C      1  0.5004500000000  0.4092320000000  0.5105460000000 1.0
C      1  0.5007540000000  0.5913300000000  0.5107030000000 1.0
C      1  0.5007560000000  0.4091360000000  0.4900560000000 1.0
C      1  0.5917110000000  0.5096940000000  0.4998410000000 1.0
C      1  0.4087650000000  0.4899750000000  0.5000880000000 1.0
C      1  0.4085800000000  0.5101710000000  0.5000730000000 1.0
C      1  0.4900130000000  0.5005170000000  0.4082540000000 1.0
C      1  0.5104760000000  0.5000330000000  0.4081770000000 1.0
C      1  0.5104720000000  0.5004170000000  0.5915240000000 1.0
C      1  0.4636940000000  0.5062790000000  0.5160410000000 1.0
C      1  0.5164530000000  0.4642570000000  0.5063460000000 1.0
C      1  0.5062280000000  0.5164280000000  0.4630260000000 1.0
C      1  0.4637190000000  0.4947150000000  0.4839370000000 1.0
C      1  0.5368400000000  0.4940680000000  0.5159520000000 1.0
C      1  0.5367980000000  0.5057110000000  0.4837240000000 1.0
C      1  0.5159620000000  0.5364640000000  0.4936400000000 1.0
C      1  0.4838850000000  0.5368020000000  0.5058280000000 1.0
C      1  0.4844970000000  0.4641400000000  0.4939280000000 1.0
C      1  0.5061890000000  0.4840720000000  0.5370990000000 1.0
C      1  0.4943710000000  0.4845120000000  0.4632380000000 1.0
C      1  0.4944100000000  0.5162740000000  0.5369090000000 1.0
C      1  0.4634550000000  0.5164840000000  0.5059980000000 1.0
C      1  0.5162640000000  0.5062070000000  0.4631220000000 1.0
C      1  0.5064460000000  0.4642090000000  0.5163990000000 1.0
C      1  0.4638430000000  0.4845810000000  0.4940180000000 1.0
C      1  0.5366600000000  0.5158030000000  0.4938630000000 1.0
C      1  0.5370950000000  0.4838380000000  0.5059420000000 1.0
C      1  0.5162490000000  0.4943110000000  0.5369380000000 1.0
C      1  0.4843260000000  0.5060420000000  0.5368920000000 1.0
C      1  0.4843000000000  0.4946730000000  0.4632210000000 1.0
C      1  0.5059380000000  0.5368630000000  0.4834650000000 1.0
C      1  0.4945440000000  0.4640310000000  0.4838060000000 1.0
C      1  0.4939780000000  0.5365210000000  0.5158600000000 1.0
C      1  0.4933090000000  0.5435770000000  0.4814050000000 1.0
C      1  0.4820070000000  0.4932820000000  0.5433890000000 1.0
C      1  0.5434210000000  0.4814290000000  0.4931090000000 1.0
C      1  0.4937110000000  0.4583220000000  0.5182010000000 1.0
C      1  0.5070790000000  0.4572340000000  0.4819260000000 1.0
C      1  0.5068310000000  0.5421490000000  0.5179300000000 1.0
C      1  0.4820980000000  0.5073650000000  0.4566170000000 1.0
C      1  0.5185860000000  0.5071020000000  0.5433410000000 1.0
C      1  0.5184950000000  0.4935060000000  0.4566020000000 1.0
C      1  0.5431970000000  0.5180600000000  0.5065380000000 1.0
C      1  0.4569560000000  0.5188180000000  0.4933240000000 1.0
C      1  0.4573530000000  0.4822600000000  0.5066990000000 1.0
C      1  0.4934330000000  0.4816530000000  0.5435000000000 1.0
C      1  0.4818600000000  0.5434800000000  0.4931480000000 1.0
C      1  0.5433450000000  0.4929780000000  0.4815300000000 1.0
C      1  0.4935680000000  0.5188150000000  0.4565290000000 1.0
C      1  0.5069950000000  0.4821940000000  0.4566650000000 1.0
C      1  0.5071510000000  0.5186970000000  0.5434010000000 1.0
C      1  0.4828670000000  0.4572950000000  0.5065780000000 1.0
C      1  0.5177460000000  0.5431200000000  0.5063770000000 1.0
C      1  0.5182170000000  0.4575410000000  0.4938140000000 1.0
C      1  0.5432870000000  0.5067930000000  0.5181370000000 1.0
C      1  0.4572430000000  0.4935440000000  0.5182620000000 1.0
C      1  0.4570650000000  0.5073840000000  0.4817990000000 1.0
C      1  0.4675210000000  0.5224950000000  0.4442900000000 1.0
C      1  0.4447330000000  0.4678810000000  0.5214510000000 1.0
C      1  0.5226470000000  0.4451160000000  0.4674320000000 1.0
C      1  0.4674090000000  0.4778540000000  0.5557660000000 1.0
C      1  0.5330240000000  0.4785080000000  0.4441680000000 1.0
C      1  0.5332340000000  0.5224920000000  0.5556650000000 1.0
C      1  0.4441290000000  0.5332240000000  0.4786010000000 1.0
C      1  0.5559730000000  0.5323050000000  0.5213010000000 1.0
C      1  0.5554700000000  0.4661360000000  0.4777370000000 1.0
C      1  0.5176520000000  0.5574120000000  0.5285330000000 1.0
C      1  0.4781550000000  0.5562840000000  0.4665770000000 1.0
C      1  0.4830920000000  0.4428340000000  0.5286240000000 1.0
C      1  0.4686300000000  0.4444640000000  0.5218830000000 1.0
C      1  0.4446340000000  0.5224490000000  0.4672670000000 1.0
C      1  0.5217150000000  0.4677610000000  0.4439430000000 1.0
C      1  0.4669690000000  0.5562070000000  0.4779540000000 1.0
C      1  0.5314710000000  0.4448790000000  0.4799960000000 1.0
C      1  0.5321140000000  0.5557660000000  0.5217950000000 1.0
C      1  0.4448610000000  0.4785850000000  0.5328030000000 1.0
C      1  0.5558130000000  0.5216180000000  0.5326610000000 1.0
C      1  0.5556160000000  0.4774340000000  0.4669330000000 1.0
C      1  0.5224600000000  0.5337600000000  0.5556400000000 1.0
C      1  0.4781800000000  0.4665840000000  0.5557900000000 1.0
C      1  0.4788330000000  0.5332960000000  0.4437920000000 1.0
C      1  0.4338540000000  0.4519750000000  0.4689830000000 1.0
C      1  0.4692340000000  0.4339340000000  0.4514760000000 1.0
C      1  0.4516650000000  0.4696590000000  0.4334600000000 1.0
C      1  0.4334580000000  0.5485490000000  0.5317190000000 1.0
C      1  0.5670040000000  0.5483190000000  0.4690210000000 1.0
C      1  0.5671690000000  0.4518940000000  0.5315330000000 1.0
C      1  0.4685320000000  0.5664190000000  0.5489760000000 1.0
C      1  0.5320430000000  0.5666740000000  0.4514540000000 1.0
C      1  0.5321230000000  0.4340040000000  0.5492210000000 1.0
C      1  0.4516060000000  0.5307020000000  0.5668720000000 1.0
C      1  0.5492560000000  0.5309060000000  0.4334330000000 1.0
C      1  0.5490750000000  0.4696820000000  0.5669260000000 1.0
C      1  0.4337630000000  0.4696440000000  0.4514910000000 1.0
C      1  0.4690860000000  0.4519690000000  0.4334230000000 1.0
C      1  0.4518610000000  0.4339270000000  0.4690030000000 1.0
C      1  0.4336490000000  0.5307960000000  0.5489400000000 1.0
C      1  0.5670100000000  0.4695430000000  0.5488470000000 1.0
C      1  0.5670720000000  0.5307150000000  0.4515180000000 1.0
C      1  0.4688850000000  0.5483120000000  0.5670160000000 1.0
C      1  0.5317800000000  0.4521150000000  0.5672200000000 1.0
C      1  0.5320400000000  0.5486520000000  0.4333010000000 1.0
C      1  0.4515190000000  0.5665810000000  0.5316940000000 1.0
C      1  0.5490770000000  0.4339180000000  0.5319820000000 1.0
C      1  0.5491350000000  0.5664610000000  0.4690750000000 1.0
C      1  0.5047000000000  0.4860880000000  0.4416640000000 1.0
C      1  0.4421420000000  0.5049680000000  0.4857880000000 1.0
C      1  0.4862930000000  0.4424420000000  0.5045980000000 1.0
C      1  0.5047540000000  0.5145900000000  0.5581620000000 1.0
C      1  0.4959450000000  0.5147530000000  0.4416020000000 1.0
C      1  0.4958720000000  0.4858160000000  0.5582270000000 1.0
C      1  0.4422210000000  0.4957840000000  0.5143890000000 1.0
C      1  0.5581600000000  0.4953160000000  0.4856220000000 1.0
C      1  0.5582650000000  0.5044760000000  0.5142270000000 1.0
C      1  0.4868190000000  0.5579020000000  0.4963370000000 1.0
C      1  0.5144660000000  0.5580050000000  0.5044980000000 1.0
C      1  0.5137620000000  0.4426690000000  0.4966200000000 1.0
C      1  0.5044470000000  0.4424880000000  0.4863430000000 1.0
C      1  0.4422990000000  0.4860770000000  0.5044640000000 1.0
C      1  0.4860650000000  0.5049730000000  0.4416860000000 1.0
C      1  0.5072500000000  0.5587480000000  0.5168640000000 1.0
C      1  0.4934950000000  0.4416320000000  0.5169570000000 1.0
C      1  0.4962520000000  0.5580930000000  0.4861420000000 1.0
C      1  0.4420500000000  0.5147260000000  0.4956800000000 1.0
C      1  0.5581520000000  0.4855460000000  0.4954860000000 1.0
C      1  0.5582380000000  0.5141560000000  0.5042850000000 1.0
C      1  0.4860720000000  0.4956440000000  0.5581730000000 1.0
C      1  0.5145650000000  0.5047740000000  0.5581620000000 1.0
C      1  0.5146130000000  0.4958190000000  0.4416220000000 1.0
C      1  0.4220040000000  0.5399810000000  0.5310430000000 1.0
C      1  0.5312030000000  0.4223830000000  0.5408780000000 1.0
C      1  0.5409130000000  0.5302950000000  0.4218480000000 1.0
C      1  0.4223550000000  0.4604640000000  0.4696510000000 1.0
C      1  0.5785770000000  0.4604670000000  0.5306990000000 1.0
C      1  0.5784500000000  0.5397600000000  0.4697170000000 1.0
C      1  0.5312270000000  0.5781320000000  0.4600180000000 1.0
C      1  0.4694500000000  0.5780400000000  0.5406170000000 1.0
C      1  0.4700020000000  0.4224530000000  0.4599740000000 1.0
C      1  0.5406300000000  0.4704890000000  0.5784550000000 1.0
C      1  0.4600800000000  0.4702830000000  0.4219300000000 1.0
C      1  0.4600780000000  0.5299500000000  0.5783760000000 1.0
C      1  0.4220870000000  0.5301210000000  0.5405660000000 1.0
C      1  0.5313850000000  0.5401520000000  0.4217960000000 1.0
C      1  0.5406400000000  0.4223730000000  0.5310870000000 1.0
C      1  0.4222910000000  0.4702490000000  0.4599890000000 1.0
C      1  0.5785310000000  0.5300090000000  0.4600370000000 1.0
C      1  0.5784890000000  0.4702410000000  0.5403280000000 1.0
C      1  0.5309890000000  0.4607380000000  0.5785910000000 1.0
C      1  0.4696930000000  0.5397240000000  0.5784280000000 1.0
C      1  0.4697110000000  0.4604780000000  0.4219340000000 1.0
C      1  0.5407680000000  0.5780270000000  0.4698360000000 1.0
C      1  0.4603440000000  0.4224360000000  0.4697090000000 1.0
C      1  0.4599760000000  0.5780920000000  0.5308320000000 1.0
C      1  0.4440850000000  0.5641300000000  0.4760010000000 1.0
C      1  0.4742120000000  0.4449170000000  0.5646350000000 1.0
C      1  0.5641150000000  0.4729530000000  0.4455580000000 1.0
C      1  0.4464060000000  0.4369540000000  0.5261530000000 1.0
C      1  0.5580610000000  0.4324410000000  0.4753250000000 1.0
C      1  0.5544100000000  0.5632020000000  0.5261280000000 1.0
C      1  0.4745790000000  0.5547090000000  0.4340300000000 1.0
C      1  0.5265130000000  0.5554100000000  0.5645450000000 1.0
C      1  0.5266800000000  0.4462680000000  0.4352690000000 1.0
C      1  0.5641720000000  0.5270420000000  0.5538290000000 1.0
C      1  0.4365610000000  0.5274630000000  0.4460850000000 1.0
C      1  0.4365130000000  0.4731810000000  0.5539930000000 1.0
C      1  0.4460870000000  0.4730450000000  0.5639540000000 1.0
C      1  0.4762260000000  0.5642310000000  0.4437390000000 1.0
C      1  0.5646240000000  0.4445280000000  0.4737130000000 1.0
C      1  0.4463070000000  0.5274790000000  0.4362970000000 1.0
C      1  0.5542580000000  0.4732360000000  0.4358670000000 1.0
C      1  0.5546110000000  0.5272400000000  0.5638100000000 1.0
C      1  0.4759020000000  0.4329020000000  0.5580030000000 1.0
C      1  0.5248610000000  0.5674260000000  0.5579220000000 1.0
C      1  0.5262540000000  0.4368640000000  0.4453210000000 1.0
C      1  0.5643460000000  0.5537110000000  0.5265570000000 1.0
C      1  0.4364360000000  0.4464030000000  0.5266140000000 1.0
C      1  0.4343610000000  0.5546320000000  0.4743030000000 1.0
C      1  0.5171290000000  0.5056410000000  0.4311380000000 1.0
C      1  0.4315600000000  0.5169730000000  0.5056030000000 1.0
C      1  0.5050880000000  0.4316030000000  0.5181270000000 1.0
C      1  0.5170110000000  0.4950130000000  0.5686680000000 1.0
C      1  0.4835170000000  0.4951250000000  0.4312580000000 1.0
C      1  0.4836290000000  0.5054210000000  0.5686380000000 1.0
C      1  0.4318240000000  0.4836700000000  0.4946540000000 1.0
C      1  0.5686280000000  0.4831550000000  0.5052970000000 1.0
C      1  0.5687550000000  0.5164350000000  0.4944960000000 1.0
C      1  0.5058550000000  0.5686890000000  0.4833150000000 1.0
C      1  0.4956980000000  0.5687720000000  0.5180810000000 1.0
C      1  0.4949250000000  0.4318760000000  0.4834210000000 1.0
C      1  0.5164120000000  0.4321780000000  0.5061690000000 1.0
C      1  0.4316720000000  0.5055390000000  0.5168650000000 1.0
C      1  0.5058720000000  0.5170850000000  0.4311130000000 1.0
C      1  0.5171710000000  0.5686210000000  0.4947870000000 1.0
C      1  0.4836090000000  0.4318250000000  0.4948680000000 1.0
C      1  0.4844620000000  0.5683210000000  0.5061780000000 1.0
C      1  0.4317450000000  0.4950880000000  0.4833270000000 1.0
C      1  0.5686810000000  0.5050430000000  0.4831500000000 1.0
C      1  0.5687380000000  0.4946370000000  0.5165990000000 1.0
C      1  0.5056880000000  0.4835290000000  0.5687100000000 1.0
C      1  0.4949450000000  0.5169160000000  0.5686250000000 1.0
C      1  0.4948290000000  0.4836920000000  0.4312330000000 1.0
C      1  0.5164870000000  0.5520250000000  0.4659810000000 1.0
C      1  0.4664350000000  0.5160260000000  0.5518790000000 1.0
C      1  0.5521270000000  0.4661940000000  0.5163290000000 1.0
C      1  0.5165320000000  0.4484460000000  0.5344280000000 1.0
C      1  0.4842940000000  0.4487340000000  0.4661940000000 1.0
C      1  0.4840770000000  0.5519130000000  0.5341940000000 1.0
C      1  0.4664780000000  0.4844780000000  0.4482250000000 1.0
C      1  0.5342090000000  0.4843650000000  0.5519570000000 1.0
C      1  0.5342480000000  0.5161680000000  0.4481020000000 1.0
C      1  0.5519420000000  0.5336620000000  0.4838540000000 1.0
C      1  0.4482970000000  0.5341860000000  0.5162820000000 1.0
C      1  0.4487310000000  0.4666720000000  0.4839140000000 1.0
C      1  0.5164660000000  0.4663980000000  0.5521810000000 1.0
C      1  0.4663410000000  0.5520540000000  0.5163570000000 1.0
C      1  0.5520230000000  0.5158940000000  0.4661060000000 1.0
C      1  0.5165390000000  0.5342100000000  0.4479650000000 1.0
C      1  0.4841680000000  0.4666320000000  0.4481930000000 1.0
C      1  0.4841640000000  0.5339930000000  0.5519440000000 1.0
C      1  0.4666490000000  0.4487670000000  0.4839130000000 1.0
C      1  0.5341050000000  0.5516930000000  0.4838340000000 1.0
C      1  0.5341620000000  0.4483680000000  0.5165910000000 1.0
C      1  0.5520280000000  0.4841660000000  0.5339860000000 1.0
C      1  0.4485160000000  0.5161920000000  0.5339980000000 1.0
C      1  0.4486260000000  0.4844690000000  0.4662040000000 1.0
C      1  0.5531890000000  0.5417400000000  0.4692300000000 1.0
C      1  0.4692830000000  0.5527920000000  0.5421760000000 1.0
C      1  0.5423590000000  0.4696940000000  0.5531660000000 1.0
C      1  0.5532690000000  0.4584210000000  0.5311890000000 1.0
C      1  0.4476120000000  0.4586380000000  0.4692320000000 1.0
C      1  0.4472940000000  0.5419690000000  0.5311290000000 1.0
C      1  0.4695570000000  0.4476910000000  0.4581240000000 1.0
C      1  0.5313070000000  0.4476200000000  0.5423900000000 1.0
C      1  0.5313750000000  0.5529130000000  0.4580410000000 1.0
C      1  0.5424160000000  0.5307850000000  0.4471190000000 1.0
C      1  0.4582760000000  0.5306950000000  0.5530780000000 1.0
C      1  0.4583980000000  0.4697700000000  0.4471920000000 1.0
C      1  0.5532250000000  0.4696120000000  0.5421900000000 1.0
C      1  0.4692960000000  0.5418440000000  0.5531110000000 1.0
C      1  0.5423260000000  0.5527540000000  0.4692420000000 1.0
C      1  0.5532460000000  0.5306600000000  0.4580900000000 1.0
C      1  0.4475400000000  0.4697670000000  0.4581320000000 1.0
C      1  0.4473790000000  0.5307510000000  0.5421530000000 1.0
C      1  0.4694760000000  0.4586260000000  0.4471900000000 1.0
C      1  0.5314150000000  0.5420150000000  0.4470740000000 1.0
C      1  0.5313260000000  0.4585630000000  0.5532960000000 1.0
C      1  0.5423040000000  0.4475630000000  0.5312760000000 1.0
C      1  0.4582410000000  0.5528730000000  0.5310970000000 1.0
C      1  0.4585260000000  0.4476970000000  0.4692460000000 1.0
C      1  0.5381690000000  0.5272090000000  0.4836940000000 1.0
C      1  0.4839450000000  0.5382120000000  0.5274190000000 1.0
C      1  0.5276440000000  0.4841160000000  0.5382630000000 1.0
C      1  0.5384760000000  0.4727350000000  0.5164310000000 1.0
C      1  0.4624120000000  0.4732320000000  0.4838160000000 1.0
C      1  0.4619920000000  0.5276760000000  0.5163220000000 1.0
C      1  0.4842370000000  0.4624900000000  0.4725900000000 1.0
C      1  0.5165880000000  0.4621760000000  0.5277820000000 1.0
C      1  0.5164070000000  0.5382860000000  0.4723520000000 1.0
C      1  0.5276420000000  0.5163060000000  0.4617330000000 1.0
C      1  0.4729460000000  0.5162740000000  0.5381560000000 1.0
C      1  0.4730010000000  0.4844370000000  0.4618980000000 1.0
C      1  0.5383260000000  0.4840550000000  0.5274760000000 1.0
C      1  0.4840190000000  0.5274850000000  0.5381640000000 1.0
C      1  0.5274830000000  0.5380100000000  0.4836250000000 1.0
C      1  0.5382670000000  0.5160780000000  0.4725080000000 1.0
C      1  0.4623380000000  0.4844500000000  0.4726460000000 1.0
C      1  0.4621970000000  0.5163570000000  0.5274480000000 1.0
C      1  0.4841640000000  0.4731920000000  0.4618630000000 1.0
C      1  0.5165250000000  0.5276330000000  0.4616180000000 1.0
C      1  0.5165840000000  0.4728880000000  0.5384500000000 1.0
C      1  0.5277730000000  0.4621610000000  0.5165790000000 1.0
C      1  0.4726730000000  0.5383360000000  0.5162730000000 1.0
C      1  0.4731130000000  0.4625120000000  0.4838000000000 1.0
C      1  0.5590380000000  0.5208480000000  0.4319870000000 1.0
C      1  0.4318090000000  0.5586290000000  0.5220110000000 1.0
C      1  0.5226070000000  0.4324100000000  0.5594180000000 1.0
C      1  0.5589390000000  0.4796490000000  0.5683190000000 1.0
C      1  0.4418330000000  0.4796910000000  0.4320160000000 1.0
C      1  0.4417820000000  0.5206970000000  0.5683400000000 1.0
C      1  0.4323710000000  0.4420120000000  0.4788840000000 1.0
C      1  0.5686970000000  0.4419010000000  0.5217750000000 1.0
C      1  0.5685530000000  0.5582460000000  0.4789390000000 1.0
C      1  0.5224270000000  0.5683490000000  0.4413130000000 1.0
C      1  0.4780730000000  0.5680000000000  0.5591600000000 1.0
C      1  0.4790580000000  0.4323930000000  0.4414970000000 1.0
C      1  0.5590920000000  0.4323110000000  0.5222940000000 1.0
C      1  0.4321840000000  0.5207550000000  0.5587330000000 1.0
C      1  0.5223600000000  0.5587540000000  0.4316690000000 1.0
C      1  0.5590020000000  0.5679110000000  0.4790070000000 1.0
C      1  0.4419720000000  0.4323910000000  0.4789220000000 1.0
C      1  0.4414740000000  0.5682040000000  0.5220300000000 1.0
C      1  0.4322580000000  0.4796750000000  0.4416540000000 1.0
C      1  0.5685800000000  0.5207270000000  0.4416520000000 1.0
C      1  0.5685090000000  0.4795500000000  0.5586720000000 1.0
C      1  0.5220940000000  0.4421010000000  0.5688960000000 1.0
C      1  0.4785800000000  0.5583210000000  0.5686520000000 1.0
C      1  0.4789590000000  0.4419950000000  0.4318730000000 1.0
C      1  0.5446720000000  0.5106110000000  0.5327850000000 1.0
C      1  0.5326170000000  0.5447280000000  0.5102850000000 1.0
C      1  0.5110930000000  0.5334880000000  0.5447570000000 1.0
C      1  0.5447690000000  0.4891240000000  0.4669080000000 1.0
C      1  0.4559100000000  0.4896960000000  0.5329000000000 1.0
C      1  0.4557640000000  0.5111810000000  0.4671500000000 1.0
C      1  0.5328660000000  0.4554990000000  0.4900730000000 1.0
C      1  0.4680430000000  0.4555700000000  0.5104140000000 1.0
C      1  0.4672330000000  0.5452050000000  0.4894190000000 1.0
C      1  0.5106860000000  0.4675830000000  0.4553340000000 1.0
C      1  0.4895200000000  0.4668620000000  0.5449200000000 1.0
C      1  0.4898670000000  0.5334750000000  0.4550980000000 1.0
C      1  0.5446190000000  0.5326720000000  0.5102280000000 1.0
C      1  0.5332110000000  0.5109650000000  0.5446570000000 1.0
C      1  0.5102790000000  0.5446180000000  0.5329380000000 1.0
C      1  0.5447680000000  0.4666930000000  0.4894210000000 1.0
C      1  0.4554600000000  0.5334720000000  0.4896400000000 1.0
C      1  0.4560370000000  0.4676230000000  0.5103590000000 1.0
C      1  0.5331000000000  0.4895750000000  0.4553100000000 1.0
C      1  0.4674490000000  0.5111860000000  0.4553920000000 1.0
C      1  0.4673860000000  0.4893900000000  0.5447360000000 1.0
C      1  0.5109840000000  0.4558220000000  0.4672620000000 1.0
C      1  0.4896070000000  0.5452520000000  0.4667880000000 1.0
C      1  0.4903140000000  0.4556850000000  0.5331400000000 1.0
C      1  0.5149960000000  0.4754590000000  0.4203530000000 1.0
C      1  0.4208550000000  0.5152400000000  0.4751330000000 1.0
C      1  0.4754100000000  0.4204650000000  0.5153410000000 1.0
C      1  0.5152480000000  0.5253620000000  0.5791330000000 1.0
C      1  0.4856610000000  0.5251450000000  0.4202730000000 1.0
C      1  0.4854060000000  0.4750560000000  0.5792430000000 1.0
C      1  0.4210500000000  0.4852370000000  0.5249940000000 1.0
C      1  0.5792450000000  0.4845980000000  0.4749300000000 1.0
C      1  0.5795830000000  0.5147220000000  0.5247550000000 1.0
C      1  0.4754340000000  0.5791460000000  0.4855250000000 1.0
C      1  0.5255000000000  0.5798120000000  0.5153060000000 1.0
C      1  0.5255490000000  0.4214160000000  0.4849840000000 1.0
C      1  0.5154240000000  0.4213380000000  0.4751040000000 1.0
C      1  0.4210340000000  0.4753390000000  0.5148150000000 1.0
C      1  0.4753300000000  0.5153690000000  0.4204870000000 1.0
C      1  0.5160230000000  0.5805140000000  0.5258300000000 1.0
C      1  0.4848910000000  0.4197580000000  0.5258580000000 1.0
C      1  0.4854130000000  0.5793770000000  0.4750810000000 1.0
C      1  0.4206290000000  0.5250110000000  0.4854520000000 1.0
C      1  0.5790030000000  0.4745810000000  0.4849720000000 1.0
C      1  0.5796420000000  0.5246250000000  0.5145890000000 1.0
C      1  0.4753560000000  0.4850930000000  0.5793580000000 1.0
C      1  0.5253130000000  0.5153370000000  0.5792990000000 1.0
C      1  0.5252190000000  0.4853490000000  0.4204130000000 1.0
C      1  0.4666920000000  0.4545900000000  0.5552790000000 1.0
C      1  0.5549570000000  0.4664460000000  0.4559250000000 1.0
C      1  0.4541110000000  0.5556640000000  0.4690280000000 1.0
C      1  0.4680330000000  0.5443020000000  0.4438740000000 1.0
C      1  0.5340080000000  0.5456930000000  0.5551570000000 1.0
C      1  0.5325260000000  0.4569990000000  0.4445830000000 1.0
C      1  0.5548010000000  0.5328760000000  0.5434500000000 1.0
C      1  0.4456520000000  0.5339060000000  0.4564890000000 1.0
C      1  0.4458960000000  0.4673270000000  0.5435900000000 1.0
C      1  0.4570790000000  0.4466240000000  0.5322180000000 1.0
C      1  0.5456450000000  0.4321360000000  0.4687400000000 1.0
C      1  0.5436730000000  0.5535680000000  0.5321160000000 1.0
C      1  0.4691920000000  0.5557860000000  0.4537500000000 1.0
C      1  0.5553130000000  0.4541450000000  0.4659040000000 1.0
C      1  0.4565610000000  0.4667250000000  0.5548650000000 1.0
C      1  0.4697040000000  0.4324510000000  0.5453710000000 1.0
C      1  0.5310930000000  0.5678000000000  0.5452960000000 1.0
C      1  0.5326200000000  0.4464350000000  0.4555660000000 1.0
C      1  0.5548540000000  0.5430180000000  0.5320850000000 1.0
C      1  0.4458730000000  0.4571500000000  0.5322110000000 1.0
C      1  0.4442040000000  0.5442220000000  0.4678110000000 1.0
C      1  0.4567400000000  0.5339350000000  0.4453590000000 1.0
C      1  0.5438200000000  0.4672290000000  0.4450350000000 1.0
C      1  0.5441240000000  0.5335490000000  0.5547370000000 1.0
C      1  0.5272950000000  0.4347200000000  0.5166290000000 1.0
C      1  0.5165400000000  0.5274570000000  0.4342300000000 1.0
C      1  0.4347580000000  0.5160150000000  0.5273680000000 1.0
C      1  0.5275460000000  0.5654530000000  0.4841300000000 1.0
C      1  0.4733470000000  0.5656720000000  0.5164540000000 1.0
C      1  0.4733000000000  0.4350530000000  0.4841760000000 1.0
C      1  0.5163970000000  0.4732330000000  0.5657870000000 1.0
C      1  0.4842580000000  0.4733050000000  0.4344480000000 1.0
C      1  0.4842490000000  0.5271940000000  0.5655990000000 1.0
C      1  0.4349360000000  0.4845750000000  0.4728980000000 1.0
C      1  0.5656930000000  0.4842980000000  0.5272330000000 1.0
C      1  0.5656850000000  0.5156990000000  0.4728100000000 1.0
C      1  0.5276500000000  0.5160920000000  0.4343260000000 1.0
C      1  0.5162390000000  0.4346170000000  0.5280070000000 1.0
C      1  0.4346050000000  0.5273670000000  0.5162470000000 1.0
C      1  0.5275490000000  0.4845540000000  0.5656480000000 1.0
C      1  0.4731180000000  0.5158700000000  0.5655540000000 1.0
C      1  0.4730960000000  0.4845970000000  0.4344870000000 1.0
C      1  0.5164670000000  0.5656610000000  0.4728460000000 1.0
C      1  0.4844290000000  0.4350440000000  0.4729580000000 1.0
C      1  0.4844210000000  0.5657700000000  0.5278480000000 1.0
C      1  0.4349890000000  0.4733010000000  0.4840770000000 1.0
C      1  0.5656590000000  0.5269200000000  0.4840260000000 1.0
C      1  0.5657430000000  0.4729620000000  0.5161170000000 1.0
C      1  0.4971270000000  0.5496130000000  0.5398390000000 1.0
C      1  0.5399590000000  0.4974800000000  0.5496700000000 1.0
C      1  0.5495110000000  0.5393800000000  0.4969670000000 1.0
C      1  0.4974160000000  0.4509840000000  0.4604750000000 1.0
C      1  0.5034950000000  0.4507490000000  0.5400470000000 1.0
C      1  0.5033000000000  0.5500300000000  0.4601450000000 1.0
C      1  0.5399330000000  0.5030280000000  0.4504320000000 1.0
C      1  0.4606400000000  0.5029040000000  0.5496990000000 1.0
C      1  0.4607620000000  0.4975850000000  0.4505560000000 1.0
C      1  0.5498550000000  0.4601910000000  0.5032960000000 1.0
C      1  0.4511810000000  0.4609580000000  0.4970450000000 1.0
C      1  0.4506300000000  0.5401220000000  0.5031280000000 1.0
C      1  0.4972500000000  0.5399600000000  0.5498880000000 1.0
C      1  0.5397290000000  0.5493540000000  0.4969620000000 1.0
C      1  0.5496810000000  0.4972620000000  0.5396200000000 1.0
C      1  0.4972870000000  0.4608970000000  0.4505960000000 1.0
C      1  0.5033650000000  0.5400940000000  0.4502630000000 1.0
C      1  0.5033800000000  0.4604240000000  0.5500830000000 1.0
C      1  0.5398400000000  0.4504320000000  0.5034860000000 1.0
C      1  0.4605980000000  0.5499910000000  0.5031200000000 1.0
C      1  0.4609820000000  0.4509990000000  0.4970390000000 1.0
C      1  0.5498360000000  0.5027710000000  0.4602980000000 1.0
C      1  0.4509080000000  0.4975760000000  0.4604810000000 1.0
C      1  0.4508850000000  0.5030920000000  0.5396870000000 1.0
C      1  0.4484650000000  0.4272020000000  0.4902390000000 1.0
C      1  0.4902720000000  0.4484250000000  0.4266630000000 1.0
C      1  0.4271340000000  0.4910270000000  0.4481060000000 1.0
C      1  0.4480580000000  0.5734360000000  0.5107840000000 1.0
C      1  0.5524910000000  0.5730960000000  0.4903160000000 1.0
C      1  0.5523870000000  0.4271470000000  0.5111560000000 1.0
C      1  0.4900600000000  0.5518360000000  0.5736050000000 1.0
C      1  0.5110550000000  0.5523360000000  0.4263500000000 1.0
C      1  0.5106080000000  0.4485940000000  0.5738190000000 1.0
C      1  0.4270400000000  0.5094440000000  0.5522320000000 1.0
C      1  0.5736120000000  0.5093220000000  0.4480950000000 1.0
C      1  0.5735990000000  0.4908480000000  0.5521210000000 1.0
C      1  0.4482660000000  0.4910430000000  0.4268490000000 1.0
C      1  0.4904110000000  0.4272510000000  0.4479780000000 1.0
C      1  0.4272480000000  0.4484300000000  0.4902430000000 1.0
C      1  0.4482700000000  0.5093460000000  0.5734220000000 1.0
C      1  0.5524630000000  0.4910170000000  0.5733930000000 1.0
C      1  0.5525420000000  0.5095780000000  0.4267380000000 1.0
C      1  0.4892860000000  0.5733360000000  0.5527440000000 1.0
C      1  0.5114080000000  0.4270790000000  0.5529700000000 1.0
C      1  0.5111170000000  0.5736060000000  0.4477670000000 1.0
C      1  0.4265540000000  0.5521760000000  0.5107190000000 1.0
C      1  0.5736350000000  0.4483780000000  0.5102850000000 1.0
C      1  0.5736050000000  0.5517540000000  0.4902770000000 1.0
C      1  0.4299850000000  0.4503370000000  0.5146620000000 1.0
C      1  0.5149010000000  0.4299010000000  0.4498600000000 1.0
C      1  0.4502650000000  0.5156340000000  0.4294530000000 1.0
C      1  0.4287390000000  0.5501060000000  0.4863960000000 1.0
C      1  0.5708320000000  0.5497580000000  0.5146290000000 1.0
C      1  0.5706940000000  0.4496170000000  0.4855300000000 1.0
C      1  0.5130170000000  0.5719610000000  0.5517850000000 1.0
C      1  0.4867590000000  0.5711520000000  0.4494200000000 1.0
C      1  0.4877470000000  0.4283600000000  0.5519020000000 1.0
C      1  0.4501880000000  0.4848150000000  0.5707710000000 1.0
C      1  0.5503690000000  0.4851330000000  0.4291530000000 1.0
C      1  0.5504850000000  0.5155240000000  0.5706740000000 1.0
C      1  0.4297360000000  0.5156070000000  0.4500520000000 1.0
C      1  0.5146820000000  0.4503710000000  0.4290540000000 1.0
C      1  0.4504410000000  0.4297770000000  0.5147600000000 1.0
C      1  0.4297180000000  0.4850280000000  0.5501040000000 1.0
C      1  0.5709710000000  0.5152010000000  0.5499390000000 1.0
C      1  0.5708340000000  0.4846990000000  0.4498370000000 1.0
C      1  0.5147510000000  0.5504220000000  0.5706810000000 1.0
C      1  0.4859130000000  0.4499530000000  0.5708430000000 1.0
C      1  0.4867030000000  0.5502040000000  0.4284570000000 1.0
C      1  0.4497460000000  0.5710110000000  0.4865560000000 1.0
C      1  0.5516880000000  0.4285090000000  0.4873440000000 1.0
C      1  0.5504160000000  0.5704230000000  0.5147690000000 1.0
C      1  0.5693400000000  0.4969680000000  0.4421790000000 1.0
C      1  0.4420730000000  0.5693360000000  0.4985980000000 1.0
C      1  0.4984220000000  0.4426760000000  0.5695540000000 1.0
C      1  0.5694030000000  0.5032390000000  0.5579430000000 1.0
C      1  0.4313390000000  0.5034550000000  0.4422500000000 1.0
C      1  0.4312740000000  0.4970520000000  0.5580450000000 1.0
C      1  0.4427010000000  0.4314530000000  0.5026100000000 1.0
C      1  0.5585100000000  0.4313560000000  0.4991210000000 1.0
C      1  0.5582070000000  0.5687660000000  0.5026640000000 1.0
C      1  0.4987410000000  0.5581080000000  0.4304760000000 1.0
C      1  0.5022540000000  0.5577290000000  0.5693510000000 1.0
C      1  0.5026400000000  0.4425650000000  0.4309060000000 1.0
C      1  0.5692910000000  0.4424930000000  0.4981200000000 1.0
C      1  0.4424060000000  0.4969720000000  0.5691690000000 1.0
C      1  0.4988870000000  0.5694770000000  0.4418260000000 1.0
C      1  0.5692760000000  0.5576390000000  0.5026200000000 1.0
C      1  0.4315790000000  0.4425340000000  0.5025940000000 1.0
C      1  0.4307280000000  0.5579750000000  0.4984370000000 1.0
C      1  0.4424560000000  0.5034720000000  0.4310860000000 1.0
C      1  0.5582970000000  0.4971480000000  0.4309190000000 1.0
C      1  0.5582910000000  0.5033720000000  0.5690920000000 1.0
C      1  0.4993900000000  0.4314300000000  0.5588970000000 1.0
C      1  0.5013070000000  0.5689630000000  0.5586980000000 1.0
C      1  0.5027310000000  0.4314830000000  0.4421390000000 1.0
C      1  0.4986920000000  0.5198880000000  0.4180500000000 1.0
C      1  0.4186260000000  0.4983220000000  0.5198360000000 1.0
C      1  0.5201990000000  0.4195610000000  0.4981890000000 1.0
C      1  0.4984730000000  0.4804020000000  0.5816680000000 1.0
C      1  0.5019270000000  0.4806960000000  0.4181630000000 1.0
C      1  0.5021680000000  0.5200600000000  0.5815780000000 1.0
C      1  0.4185990000000  0.5020790000000  0.4802630000000 1.0
C      1  0.5818860000000  0.5015840000000  0.5195860000000 1.0
C      1  0.5816130000000  0.4976900000000  0.4801290000000 1.0
C      1  0.5201580000000  0.5816170000000  0.5021650000000 1.0
C      1  0.4810970000000  0.5811480000000  0.4985870000000 1.0
C      1  0.4807740000000  0.4187400000000  0.5021950000000 1.0
C      1  0.4982410000000  0.4184010000000  0.5207640000000 1.0
C      1  0.4184590000000  0.5197330000000  0.4984820000000 1.0
C      1  0.5200550000000  0.4984540000000  0.4180600000000 1.0
C      1  0.4985130000000  0.5816430000000  0.4804760000000 1.0
C      1  0.5022490000000  0.4189540000000  0.4803780000000 1.0
C      1  0.5027120000000  0.5819630000000  0.5207660000000 1.0
C      1  0.4187830000000  0.4805620000000  0.5017520000000 1.0
C      1  0.5818790000000  0.5193290000000  0.5015330000000 1.0
C      1  0.5815100000000  0.4798790000000  0.4980220000000 1.0
C      1  0.5200610000000  0.5022290000000  0.5816480000000 1.0
C      1  0.4805920000000  0.4982210000000  0.5816360000000 1.0
C      1  0.4804530000000  0.5022200000000  0.4181600000000 1.0
C      1  0.5391590000000  0.5762630000000  0.4841250000000 1.0
C      1  0.4840350000000  0.5384730000000  0.5766410000000 1.0
C      1  0.5766340000000  0.4845310000000  0.5387810000000 1.0
C      1  0.5389430000000  0.4239790000000  0.5168270000000 1.0
C      1  0.4618250000000  0.4241480000000  0.4840340000000 1.0
C      1  0.4616020000000  0.5764540000000  0.5165770000000 1.0
C      1  0.4840580000000  0.4618030000000  0.4236030000000 1.0
C      1  0.5166380000000  0.4619690000000  0.5768330000000 1.0
C      1  0.5170560000000  0.5388820000000  0.4233720000000 1.0
C      1  0.5766970000000  0.5156450000000  0.4614230000000 1.0
C      1  0.4238910000000  0.5158100000000  0.5389410000000 1.0
C      1  0.4240240000000  0.4846240000000  0.4614120000000 1.0
C      1  0.5391320000000  0.4847800000000  0.5765510000000 1.0
C      1  0.4837070000000  0.5765280000000  0.5393330000000 1.0
C      1  0.5766010000000  0.5383750000000  0.4840380000000 1.0
C      1  0.5392790000000  0.5159740000000  0.4235390000000 1.0
C      1  0.4615440000000  0.4846500000000  0.4236510000000 1.0
C      1  0.4615950000000  0.5156430000000  0.5765090000000 1.0
C      1  0.4843100000000  0.4241880000000  0.4613720000000 1.0
C      1  0.5169160000000  0.5765460000000  0.4612910000000 1.0
C      1  0.5169700000000  0.4239080000000  0.5395560000000 1.0
C      1  0.5767820000000  0.4617110000000  0.5163380000000 1.0
C      1  0.4236400000000  0.5387070000000  0.5167190000000 1.0
C      1  0.4241400000000  0.4617900000000  0.4839990000000 1.0
C      1  0.4644910000000  0.4827920000000  0.5705660000000 1.0
C      1  0.5702100000000  0.4636730000000  0.4828090000000 1.0
C      1  0.4832990000000  0.5709480000000  0.4638250000000 1.0
C      1  0.4645390000000  0.5177030000000  0.4294420000000 1.0
C      1  0.5361730000000  0.5175860000000  0.5704830000000 1.0
C      1  0.5360520000000  0.4832350000000  0.4293060000000 1.0
C      1  0.5706780000000  0.5354130000000  0.5164480000000 1.0
C      1  0.4294530000000  0.5358550000000  0.4840230000000 1.0
C      1  0.4300650000000  0.4646490000000  0.5166060000000 1.0
C      1  0.4823860000000  0.4293530000000  0.5372900000000 1.0
C      1  0.5178150000000  0.4301460000000  0.4641500000000 1.0
C      1  0.5184340000000  0.5708930000000  0.5372150000000 1.0
C      1  0.4641800000000  0.5707920000000  0.4832430000000 1.0
C      1  0.5704710000000  0.4823820000000  0.4640840000000 1.0
C      1  0.4832730000000  0.4640910000000  0.5704940000000 1.0
C      1  0.4647460000000  0.4296790000000  0.5174530000000 1.0
C      1  0.5361010000000  0.5705530000000  0.5174160000000 1.0
C      1  0.5373060000000  0.4301420000000  0.4818120000000 1.0
C      1  0.5707240000000  0.5169400000000  0.5356210000000 1.0
C      1  0.4299550000000  0.4831700000000  0.5358140000000 1.0
C      1  0.4297760000000  0.5176340000000  0.4643250000000 1.0
C      1  0.4842820000000  0.5359570000000  0.4291340000000 1.0
C      1  0.5166970000000  0.4646900000000  0.4292920000000 1.0
C      1  0.5173620000000  0.5362870000000  0.5703360000000 1.0
C      1  0.5454340000000  0.4440440000000  0.4615830000000 1.0
C      1  0.4632270000000  0.4447230000000  0.5449320000000 1.0
C      1  0.4575770000000  0.5621980000000  0.4574080000000 1.0
C      1  0.5375430000000  0.5555230000000  0.5448340000000 1.0
END
