TITL C-1379268-1316-60 -1.55607297811256e-06 1000000 -1450.09015293926 0 0 200 (Th) n - 1
REM
REM in /nfs/bkarasulu/CARBON/AIRSS/Generating-Clusters/GAP-ML-2020/Higher-Symm/Selected-Sizes/TryA-Only_Ih-Symm/Larger-Clusters/Try2-MINAMP_6A
REM
REM
REM
REM
REM
REM ./C.cell (31579ac4e95a012ec27f3239692ae8a5)
REM
REM compiler GCC version 9.2.1 20190827 (Red Hat 9.2.1-1)
REM options -cpp -mtune=generic -march=x86-64 -g -O0 -fpre-include=/usr/include/finclude/math-vector-fortran.h
REM seed -2028985000 -1613338765 -1011482402 -1909228911 889965780 592743841 1303865339 812586699 -423499253 1053323202 -1232313754 -1645698093 -543747133 -1596374369 686868547 2055898694 -1514822448 813816962 1127420987 -302182170 -1202599010 -132199089 1660612994 -663403884 378280879 1693814222 -1803290931 -906989343 1673804793 -1918781771 1043245892 2104124581 -1092626607
REM
CELL 1.54180  100.00000  100.00000  100.00000   90.00000   90.00000   90.00000
LATT -1
SFAC C  
C      1  0.5245830000000  0.4380230000000  0.4920700000000 1.0
C      1  0.4383020000000  0.4921700000000  0.5242040000000 1.0
C      1  0.4924490000000  0.5243040000000  0.4379230000000 1.0
C      1  0.4752170000000  0.5612180000000  0.4920700000000 1.0
C      1  0.5245830000000  0.5612180000000  0.5069720000000 1.0
C      1  0.4752170000000  0.4380230000000  0.5069720000000 1.0
C      1  0.5614980000000  0.5070720000000  0.5242040000000 1.0
C      1  0.4383020000000  0.5070720000000  0.4748380000000 1.0
C      1  0.5614980000000  0.4921700000000  0.4748380000000 1.0
C      1  0.5073510000000  0.4749380000000  0.4379230000000 1.0
C      1  0.4924490000000  0.4749380000000  0.5611180000000 1.0
C      1  0.5073510000000  0.5243040000000  0.5611180000000 1.0
C      1  0.5245830000000  0.4380230000000  0.5069720000000 1.0
C      1  0.4383020000000  0.4921700000000  0.4748380000000 1.0
C      1  0.4924490000000  0.5243040000000  0.5611180000000 1.0
C      1  0.4752170000000  0.5612180000000  0.5069720000000 1.0
C      1  0.5245830000000  0.5612180000000  0.4920700000000 1.0
C      1  0.4752170000000  0.4380230000000  0.4920700000000 1.0
C      1  0.5614980000000  0.5070720000000  0.4748380000000 1.0
C      1  0.4383020000000  0.5070720000000  0.5242040000000 1.0
C      1  0.5614980000000  0.4921700000000  0.5242040000000 1.0
C      1  0.5073510000000  0.4749380000000  0.5611180000000 1.0
C      1  0.4924490000000  0.4749380000000  0.4379230000000 1.0
C      1  0.5073510000000  0.5243040000000  0.4379230000000 1.0
C      1  0.5488740000000  0.5170150000000  0.4544170000000 1.0
C      1  0.5172950000000  0.4545170000000  0.5484940000000 1.0
C      1  0.4547970000000  0.5485940000000  0.5169160000000 1.0
C      1  0.4509270000000  0.4822260000000  0.4544170000000 1.0
C      1  0.5488740000000  0.4822260000000  0.5446240000000 1.0
C      1  0.4509270000000  0.5170150000000  0.5446240000000 1.0
C      1  0.4825050000000  0.5447240000000  0.5484940000000 1.0
C      1  0.5172950000000  0.5447240000000  0.4505470000000 1.0
C      1  0.4825050000000  0.4545170000000  0.4505470000000 1.0
C      1  0.5450040000000  0.4506470000000  0.5169160000000 1.0
C      1  0.4547970000000  0.4506470000000  0.4821260000000 1.0
C      1  0.5450040000000  0.5485940000000  0.4821260000000 1.0
C      1  0.5488740000000  0.5170150000000  0.5446240000000 1.0
C      1  0.5172950000000  0.4545170000000  0.4505470000000 1.0
C      1  0.4547970000000  0.5485940000000  0.4821260000000 1.0
C      1  0.4509270000000  0.4822260000000  0.5446240000000 1.0
C      1  0.5488740000000  0.4822260000000  0.4544170000000 1.0
C      1  0.4509270000000  0.5170150000000  0.4544170000000 1.0
C      1  0.4825050000000  0.5447240000000  0.4505470000000 1.0
C      1  0.5172950000000  0.5447240000000  0.5484940000000 1.0
C      1  0.4825050000000  0.4545170000000  0.5484940000000 1.0
C      1  0.5450040000000  0.4506470000000  0.4821260000000 1.0
C      1  0.4547970000000  0.4506470000000  0.5169160000000 1.0
C      1  0.5450040000000  0.5485940000000  0.5169160000000 1.0
C      1  0.4496550000000  0.5299850000000  0.4605780000000 1.0
C      1  0.5302650000000  0.4606780000000  0.4492750000000 1.0
C      1  0.4609570000000  0.4493750000000  0.5298860000000 1.0
C      1  0.5501450000000  0.4692560000000  0.4605780000000 1.0
C      1  0.4496550000000  0.4692560000000  0.5384640000000 1.0
C      1  0.5501450000000  0.5299850000000  0.5384640000000 1.0
C      1  0.4695350000000  0.5385630000000  0.4492750000000 1.0
C      1  0.5302650000000  0.5385630000000  0.5497660000000 1.0
C      1  0.4695350000000  0.4606780000000  0.5497660000000 1.0
C      1  0.5388430000000  0.5498660000000  0.5298860000000 1.0
C      1  0.4609570000000  0.5498660000000  0.4691560000000 1.0
C      1  0.5388430000000  0.4493750000000  0.4691560000000 1.0
C      1  0.4496550000000  0.5299850000000  0.5384640000000 1.0
C      1  0.5302650000000  0.4606780000000  0.5497660000000 1.0
C      1  0.4609570000000  0.4493750000000  0.4691560000000 1.0
C      1  0.5501450000000  0.4692560000000  0.5384640000000 1.0
C      1  0.4496550000000  0.4692560000000  0.4605780000000 1.0
C      1  0.5501450000000  0.5299850000000  0.4605780000000 1.0
C      1  0.4695350000000  0.5385630000000  0.5497660000000 1.0
C      1  0.5302650000000  0.5385630000000  0.4492750000000 1.0
C      1  0.4695350000000  0.4606780000000  0.4492750000000 1.0
C      1  0.5388430000000  0.5498660000000  0.4691560000000 1.0
C      1  0.4609570000000  0.5498660000000  0.5298860000000 1.0
C      1  0.5388430000000  0.4493750000000  0.5298860000000 1.0
C      1  0.4811870000000  0.4372830000000  0.5192700000000 1.0
C      1  0.4375620000000  0.5193690000000  0.4808080000000 1.0
C      1  0.5196490000000  0.4809080000000  0.4371830000000 1.0
C      1  0.5186130000000  0.5619580000000  0.5192700000000 1.0
C      1  0.4811870000000  0.5619580000000  0.4797720000000 1.0
C      1  0.5186130000000  0.4372830000000  0.4797720000000 1.0
C      1  0.5622380000000  0.4798720000000  0.4808080000000 1.0
C      1  0.4375620000000  0.4798720000000  0.5182340000000 1.0
C      1  0.5622380000000  0.5193690000000  0.5182340000000 1.0
C      1  0.4801510000000  0.5183330000000  0.4371830000000 1.0
C      1  0.5196490000000  0.5183330000000  0.5618590000000 1.0
C      1  0.4801510000000  0.4809080000000  0.5618590000000 1.0
C      1  0.4811870000000  0.4372830000000  0.4797720000000 1.0
C      1  0.4375620000000  0.5193690000000  0.5182340000000 1.0
C      1  0.5196490000000  0.4809080000000  0.5618590000000 1.0
C      1  0.5186130000000  0.5619580000000  0.4797720000000 1.0
C      1  0.4811870000000  0.5619580000000  0.5192700000000 1.0
C      1  0.5186130000000  0.4372830000000  0.5192700000000 1.0
C      1  0.5622380000000  0.4798720000000  0.5182340000000 1.0
C      1  0.4375620000000  0.4798720000000  0.4808080000000 1.0
C      1  0.5622380000000  0.5193690000000  0.4808080000000 1.0
C      1  0.4801510000000  0.5183330000000  0.5618590000000 1.0
C      1  0.5196490000000  0.5183330000000  0.4371830000000 1.0
C      1  0.4801510000000  0.4809080000000  0.4371830000000 1.0
C      1  0.4690790000000  0.4724390000000  0.4419400000000 1.0
C      1  0.4727190000000  0.4420400000000  0.4687000000000 1.0
C      1  0.4423200000000  0.4688000000000  0.4723390000000 1.0
C      1  0.5307210000000  0.5268020000000  0.4419400000000 1.0
C      1  0.4690790000000  0.5268020000000  0.5571010000000 1.0
C      1  0.5307210000000  0.4724390000000  0.5571010000000 1.0
C      1  0.5270820000000  0.5572010000000  0.4687000000000 1.0
C      1  0.4727190000000  0.5572010000000  0.5303420000000 1.0
C      1  0.5270820000000  0.4420400000000  0.5303420000000 1.0
C      1  0.5574810000000  0.5304410000000  0.4723390000000 1.0
C      1  0.4423200000000  0.5304410000000  0.5267020000000 1.0
C      1  0.5574810000000  0.4688000000000  0.5267020000000 1.0
C      1  0.4690790000000  0.4724390000000  0.5571010000000 1.0
C      1  0.4727190000000  0.4420400000000  0.5303420000000 1.0
C      1  0.4423200000000  0.4688000000000  0.5267020000000 1.0
C      1  0.5307210000000  0.5268020000000  0.5571010000000 1.0
C      1  0.4690790000000  0.5268020000000  0.4419400000000 1.0
C      1  0.5307210000000  0.4724390000000  0.4419400000000 1.0
C      1  0.5270820000000  0.5572010000000  0.5303420000000 1.0
C      1  0.4727190000000  0.5572010000000  0.4687000000000 1.0
C      1  0.5270820000000  0.4420400000000  0.4687000000000 1.0
C      1  0.5574810000000  0.5304410000000  0.5267020000000 1.0
C      1  0.4423200000000  0.5304410000000  0.4723390000000 1.0
C      1  0.5574810000000  0.4688000000000  0.4723390000000 1.0
C      1  0.4607600000000  0.4835830000000  0.4444490000000 1.0
C      1  0.4838630000000  0.4445490000000  0.4603800000000 1.0
C      1  0.4448290000000  0.4604800000000  0.4834830000000 1.0
C      1  0.5390410000000  0.5156580000000  0.4444490000000 1.0
C      1  0.4607600000000  0.5156580000000  0.5545920000000 1.0
C      1  0.5390410000000  0.4835830000000  0.5545920000000 1.0
C      1  0.5159370000000  0.5546920000000  0.4603800000000 1.0
C      1  0.4838630000000  0.5546920000000  0.5386610000000 1.0
C      1  0.5159370000000  0.4445490000000  0.5386610000000 1.0
C      1  0.5549720000000  0.5387610000000  0.4834830000000 1.0
C      1  0.4448290000000  0.5387610000000  0.5155580000000 1.0
C      1  0.5549720000000  0.4604800000000  0.5155580000000 1.0
C      1  0.4607600000000  0.4835830000000  0.5545920000000 1.0
C      1  0.4838630000000  0.4445490000000  0.5386610000000 1.0
C      1  0.4448290000000  0.4604800000000  0.5155580000000 1.0
C      1  0.5390410000000  0.5156580000000  0.5545920000000 1.0
C      1  0.4607600000000  0.5156580000000  0.4444490000000 1.0
C      1  0.5390410000000  0.4835830000000  0.4444490000000 1.0
C      1  0.5159370000000  0.5546920000000  0.5386610000000 1.0
C      1  0.4838630000000  0.5546920000000  0.4603800000000 1.0
C      1  0.5159370000000  0.4445490000000  0.4603800000000 1.0
C      1  0.5549720000000  0.5387610000000  0.5155580000000 1.0
C      1  0.4448290000000  0.5387610000000  0.4834830000000 1.0
C      1  0.5549720000000  0.4604800000000  0.4834830000000 1.0
C      1  0.5067380000000  0.5598920000000  0.4709780000000 1.0
C      1  0.5601710000000  0.4710770000000  0.5063590000000 1.0
C      1  0.4713570000000  0.5064580000000  0.5597920000000 1.0
C      1  0.4930620000000  0.4393490000000  0.4709780000000 1.0
C      1  0.5067380000000  0.4393490000000  0.5280640000000 1.0
C      1  0.4930620000000  0.5598920000000  0.5280640000000 1.0
C      1  0.4396290000000  0.5281640000000  0.5063590000000 1.0
C      1  0.5601710000000  0.5281640000000  0.4926830000000 1.0
C      1  0.4396290000000  0.4710770000000  0.4926830000000 1.0
C      1  0.5284430000000  0.4927830000000  0.5597920000000 1.0
C      1  0.4713570000000  0.4927830000000  0.4392490000000 1.0
C      1  0.5284430000000  0.5064580000000  0.4392490000000 1.0
C      1  0.5067380000000  0.5598920000000  0.5280640000000 1.0
C      1  0.5601710000000  0.4710770000000  0.4926830000000 1.0
C      1  0.4713570000000  0.5064580000000  0.4392490000000 1.0
C      1  0.4930620000000  0.4393490000000  0.5280640000000 1.0
C      1  0.5067380000000  0.4393490000000  0.4709780000000 1.0
C      1  0.4930620000000  0.5598920000000  0.4709780000000 1.0
C      1  0.4396290000000  0.5281640000000  0.4926830000000 1.0
C      1  0.5601710000000  0.5281640000000  0.5063590000000 1.0
C      1  0.4396290000000  0.4710770000000  0.5063590000000 1.0
C      1  0.5284430000000  0.4927830000000  0.4392490000000 1.0
C      1  0.4713570000000  0.4927830000000  0.5597920000000 1.0
C      1  0.5284430000000  0.5064580000000  0.5597920000000 1.0
C      1  0.5069680000000  0.4613890000000  0.4441110000000 1.0
C      1  0.4616690000000  0.4442110000000  0.5065890000000 1.0
C      1  0.4444900000000  0.5066890000000  0.4612890000000 1.0
C      1  0.4928320000000  0.5378520000000  0.4441110000000 1.0
C      1  0.5069680000000  0.5378520000000  0.5549310000000 1.0
C      1  0.4928320000000  0.4613890000000  0.5549310000000 1.0
C      1  0.5381320000000  0.5550310000000  0.5065890000000 1.0
C      1  0.4616690000000  0.5550310000000  0.4924530000000 1.0
C      1  0.5381320000000  0.4442110000000  0.4924530000000 1.0
C      1  0.5553100000000  0.4925520000000  0.4612890000000 1.0
C      1  0.4444900000000  0.4925520000000  0.5377520000000 1.0
C      1  0.5553100000000  0.5066890000000  0.5377520000000 1.0
C      1  0.5069680000000  0.4613890000000  0.5549310000000 1.0
C      1  0.4616690000000  0.4442110000000  0.4924530000000 1.0
C      1  0.4444900000000  0.5066890000000  0.5377520000000 1.0
C      1  0.4928320000000  0.5378520000000  0.5549310000000 1.0
C      1  0.5069680000000  0.5378520000000  0.4441110000000 1.0
C      1  0.4928320000000  0.4613890000000  0.4441110000000 1.0
C      1  0.5381320000000  0.5550310000000  0.4924530000000 1.0
C      1  0.4616690000000  0.5550310000000  0.5065890000000 1.0
C      1  0.5381320000000  0.4442110000000  0.5065890000000 1.0
C      1  0.5553100000000  0.4925520000000  0.5377520000000 1.0
C      1  0.4444900000000  0.4925520000000  0.4612890000000 1.0
C      1  0.5553100000000  0.5066890000000  0.4612890000000 1.0
C      1  0.4590420000000  0.5404790000000  0.4586630000000 1.0
C      1  0.5407580000000  0.4587620000000  0.4586630000000 1.0
C      1  0.4590420000000  0.5404790000000  0.5403790000000 1.0
C      1  0.5407580000000  0.4587620000000  0.5403790000000 1.0
C      1  0.4590420000000  0.4587620000000  0.5403790000000 1.0
C      1  0.5407580000000  0.5404790000000  0.5403790000000 1.0
C      1  0.5407580000000  0.5404790000000  0.4586630000000 1.0
C      1  0.4590420000000  0.4587620000000  0.4586630000000 1.0
END
