TITL C-1379268-1316-427 1.05593728509628e-06 1000000 -2206.24816677517 0 0 300 (Th) n - 1
REM
REM in /nfs/bkarasulu/CARBON/AIRSS/Generating-Clusters/GAP-ML-2020/Higher-Symm/Selected-Sizes/TryA-Only_Ih-Symm/Larger-Clusters/Try2-MINAMP_6A
REM
REM
REM
REM
REM
REM ./C.cell (31579ac4e95a012ec27f3239692ae8a5)
REM
REM compiler GCC version 9.2.1 20190827 (Red Hat 9.2.1-1)
REM options -cpp -mtune=generic -march=x86-64 -g -O0 -fpre-include=/usr/include/finclude/math-vector-fortran.h
REM seed -1411510039 1974741943 -952565701 1013759154 -646809645 1307373897 1165629283 -666767124 291529840 -869136870 1617184925 1858475388 1532766124 -789630761 2023777358 516807208 -1153475695 -1327958339 1075090037 -512499599 -1808228697 439033344 -951508332 1381409155 -941668761 -1537448516 807292485 703910500 -118446823 -1346851033 -1288883512 1039120517 -932096075
REM
CELL 1.54180  100.00000  100.00000  100.00000   90.00000   90.00000   90.00000
LATT -1
SFAC C  
C      1  0.4924730000000  0.5239070000000  0.4251310000000 1.0
C      1  0.4251310000000  0.4924730000000  0.5239070000000 1.0
C      1  0.5239070000000  0.4251310000000  0.4924730000000 1.0
C      1  0.5075270000000  0.4760930000000  0.4251310000000 1.0
C      1  0.5075270000000  0.5239070000000  0.5748690000000 1.0
C      1  0.4924730000000  0.4760930000000  0.5748690000000 1.0
C      1  0.5748690000000  0.5075270000000  0.5239070000000 1.0
C      1  0.5748690000000  0.4924730000000  0.4760930000000 1.0
C      1  0.4251310000000  0.5075270000000  0.4760930000000 1.0
C      1  0.4760930000000  0.5748690000000  0.4924730000000 1.0
C      1  0.4760930000000  0.4251310000000  0.5075270000000 1.0
C      1  0.5239070000000  0.5748690000000  0.5075270000000 1.0
C      1  0.4924730000000  0.5239070000000  0.5748690000000 1.0
C      1  0.4251310000000  0.4924730000000  0.4760930000000 1.0
C      1  0.5239070000000  0.4251310000000  0.5075270000000 1.0
C      1  0.5075270000000  0.4760930000000  0.5748690000000 1.0
C      1  0.5075270000000  0.5239070000000  0.4251310000000 1.0
C      1  0.4924730000000  0.4760930000000  0.4251310000000 1.0
C      1  0.5748690000000  0.5075270000000  0.4760930000000 1.0
C      1  0.5748690000000  0.4924730000000  0.5239070000000 1.0
C      1  0.4251310000000  0.5075270000000  0.5239070000000 1.0
C      1  0.4760930000000  0.5748690000000  0.5075270000000 1.0
C      1  0.4760930000000  0.4251310000000  0.4924730000000 1.0
C      1  0.5239070000000  0.5748690000000  0.4924730000000 1.0
C      1  0.5279160000000  0.4926760000000  0.5734760000000 1.0
C      1  0.5734760000000  0.5279160000000  0.4926760000000 1.0
C      1  0.4926760000000  0.5734760000000  0.5279160000000 1.0
C      1  0.4720840000000  0.5073240000000  0.5734760000000 1.0
C      1  0.4720840000000  0.4926760000000  0.4265240000000 1.0
C      1  0.5279160000000  0.5073240000000  0.4265240000000 1.0
C      1  0.4265240000000  0.4720840000000  0.4926760000000 1.0
C      1  0.4265240000000  0.5279160000000  0.5073240000000 1.0
C      1  0.5734760000000  0.4720840000000  0.5073240000000 1.0
C      1  0.5073240000000  0.4265240000000  0.5279160000000 1.0
C      1  0.5073240000000  0.5734760000000  0.4720840000000 1.0
C      1  0.4926760000000  0.4265240000000  0.4720840000000 1.0
C      1  0.5279160000000  0.4926760000000  0.4265240000000 1.0
C      1  0.5734760000000  0.5279160000000  0.5073240000000 1.0
C      1  0.4926760000000  0.5734760000000  0.4720840000000 1.0
C      1  0.4720840000000  0.5073240000000  0.4265240000000 1.0
C      1  0.4720840000000  0.4926760000000  0.5734760000000 1.0
C      1  0.5279160000000  0.5073240000000  0.5734760000000 1.0
C      1  0.4265240000000  0.4720840000000  0.5073240000000 1.0
C      1  0.4265240000000  0.5279160000000  0.4926760000000 1.0
C      1  0.5734760000000  0.4720840000000  0.4926760000000 1.0
C      1  0.5073240000000  0.4265240000000  0.4720840000000 1.0
C      1  0.5073240000000  0.5734760000000  0.5279160000000 1.0
C      1  0.4926760000000  0.4265240000000  0.5279160000000 1.0
C      1  0.4882620000000  0.4229630000000  0.5144170000000 1.0
C      1  0.5144170000000  0.4882620000000  0.4229630000000 1.0
C      1  0.4229630000000  0.5144170000000  0.4882620000000 1.0
C      1  0.5117380000000  0.5770370000000  0.5144170000000 1.0
C      1  0.5117380000000  0.4229630000000  0.4855830000000 1.0
C      1  0.4882620000000  0.5770370000000  0.4855830000000 1.0
C      1  0.4855830000000  0.5117380000000  0.4229630000000 1.0
C      1  0.4855830000000  0.4882620000000  0.5770370000000 1.0
C      1  0.5144170000000  0.5117380000000  0.5770370000000 1.0
C      1  0.5770370000000  0.4855830000000  0.4882620000000 1.0
C      1  0.5770370000000  0.5144170000000  0.5117380000000 1.0
C      1  0.4229630000000  0.4855830000000  0.5117380000000 1.0
C      1  0.4882620000000  0.4229630000000  0.4855830000000 1.0
C      1  0.5144170000000  0.4882620000000  0.5770370000000 1.0
C      1  0.4229630000000  0.5144170000000  0.5117380000000 1.0
C      1  0.5117380000000  0.5770370000000  0.4855830000000 1.0
C      1  0.5117380000000  0.4229630000000  0.5144170000000 1.0
C      1  0.4882620000000  0.5770370000000  0.5144170000000 1.0
C      1  0.4855830000000  0.5117380000000  0.5770370000000 1.0
C      1  0.4855830000000  0.4882620000000  0.4229630000000 1.0
C      1  0.5144170000000  0.5117380000000  0.4229630000000 1.0
C      1  0.5770370000000  0.4855830000000  0.5117380000000 1.0
C      1  0.5770370000000  0.5144170000000  0.4882620000000 1.0
C      1  0.4229630000000  0.4855830000000  0.4882620000000 1.0
C      1  0.5769650000000  0.4635970000000  0.4706370000000 1.0
C      1  0.4706370000000  0.5769650000000  0.4635970000000 1.0
C      1  0.4635970000000  0.4706370000000  0.5769650000000 1.0
C      1  0.4230350000000  0.5364030000000  0.4706370000000 1.0
C      1  0.4230350000000  0.4635970000000  0.5293630000000 1.0
C      1  0.5769650000000  0.5364030000000  0.5293630000000 1.0
C      1  0.5293630000000  0.4230350000000  0.4635970000000 1.0
C      1  0.5293630000000  0.5769650000000  0.5364030000000 1.0
C      1  0.4706370000000  0.4230350000000  0.5364030000000 1.0
C      1  0.5364030000000  0.5293630000000  0.5769650000000 1.0
C      1  0.5364030000000  0.4706370000000  0.4230350000000 1.0
C      1  0.4635970000000  0.5293630000000  0.4230350000000 1.0
C      1  0.5769650000000  0.4635970000000  0.5293630000000 1.0
C      1  0.4706370000000  0.5769650000000  0.5364030000000 1.0
C      1  0.4635970000000  0.4706370000000  0.4230350000000 1.0
C      1  0.4230350000000  0.5364030000000  0.5293630000000 1.0
C      1  0.4230350000000  0.4635970000000  0.4706370000000 1.0
C      1  0.5769650000000  0.5364030000000  0.4706370000000 1.0
C      1  0.5293630000000  0.4230350000000  0.5364030000000 1.0
C      1  0.5293630000000  0.5769650000000  0.4635970000000 1.0
C      1  0.4706370000000  0.4230350000000  0.4635970000000 1.0
C      1  0.5364030000000  0.5293630000000  0.4230350000000 1.0
C      1  0.5364030000000  0.4706370000000  0.5769650000000 1.0
C      1  0.4635970000000  0.5293630000000  0.5769650000000 1.0
C      1  0.5586490000000  0.5466460000000  0.5186500000000 1.0
C      1  0.5186500000000  0.5586490000000  0.5466460000000 1.0
C      1  0.5466460000000  0.5186500000000  0.5586490000000 1.0
C      1  0.4413510000000  0.4533540000000  0.5186500000000 1.0
C      1  0.4413510000000  0.5466460000000  0.4813500000000 1.0
C      1  0.5586490000000  0.4533540000000  0.4813500000000 1.0
C      1  0.4813500000000  0.4413510000000  0.5466460000000 1.0
C      1  0.4813500000000  0.5586490000000  0.4533540000000 1.0
C      1  0.5186500000000  0.4413510000000  0.4533540000000 1.0
C      1  0.4533540000000  0.4813500000000  0.5586490000000 1.0
C      1  0.4533540000000  0.5186500000000  0.4413510000000 1.0
C      1  0.5466460000000  0.4813500000000  0.4413510000000 1.0
C      1  0.5586490000000  0.5466460000000  0.4813500000000 1.0
C      1  0.5186500000000  0.5586490000000  0.4533540000000 1.0
C      1  0.5466460000000  0.5186500000000  0.4413510000000 1.0
C      1  0.4413510000000  0.4533540000000  0.4813500000000 1.0
C      1  0.4413510000000  0.5466460000000  0.5186500000000 1.0
C      1  0.5586490000000  0.4533540000000  0.5186500000000 1.0
C      1  0.4813500000000  0.4413510000000  0.4533540000000 1.0
C      1  0.4813500000000  0.5586490000000  0.5466460000000 1.0
C      1  0.5186500000000  0.4413510000000  0.5466460000000 1.0
C      1  0.4533540000000  0.4813500000000  0.4413510000000 1.0
C      1  0.4533540000000  0.5186500000000  0.5586490000000 1.0
C      1  0.5466460000000  0.4813500000000  0.5586490000000 1.0
C      1  0.5147660000000  0.4645420000000  0.4301010000000 1.0
C      1  0.4301010000000  0.5147660000000  0.4645420000000 1.0
C      1  0.4645420000000  0.4301010000000  0.5147660000000 1.0
C      1  0.4852340000000  0.5354580000000  0.4301010000000 1.0
C      1  0.4852340000000  0.4645420000000  0.5698990000000 1.0
C      1  0.5147660000000  0.5354580000000  0.5698990000000 1.0
C      1  0.5698990000000  0.4852340000000  0.4645420000000 1.0
C      1  0.5698990000000  0.5147660000000  0.5354580000000 1.0
C      1  0.4301010000000  0.4852340000000  0.5354580000000 1.0
C      1  0.5354580000000  0.5698990000000  0.5147660000000 1.0
C      1  0.5354580000000  0.4301010000000  0.4852340000000 1.0
C      1  0.4645420000000  0.5698990000000  0.4852340000000 1.0
C      1  0.5147660000000  0.4645420000000  0.5698990000000 1.0
C      1  0.4301010000000  0.5147660000000  0.5354580000000 1.0
C      1  0.4645420000000  0.4301010000000  0.4852340000000 1.0
C      1  0.4852340000000  0.5354580000000  0.5698990000000 1.0
C      1  0.4852340000000  0.4645420000000  0.4301010000000 1.0
C      1  0.5147660000000  0.5354580000000  0.4301010000000 1.0
C      1  0.5698990000000  0.4852340000000  0.5354580000000 1.0
C      1  0.5698990000000  0.5147660000000  0.4645420000000 1.0
C      1  0.4301010000000  0.4852340000000  0.4645420000000 1.0
C      1  0.5354580000000  0.5698990000000  0.4852340000000 1.0
C      1  0.5354580000000  0.4301010000000  0.5147660000000 1.0
C      1  0.4645420000000  0.5698990000000  0.5147660000000 1.0
C      1  0.4485630000000  0.4534760000000  0.4682720000000 1.0
C      1  0.4682720000000  0.4485630000000  0.4534760000000 1.0
C      1  0.4534760000000  0.4682720000000  0.4485630000000 1.0
C      1  0.5514370000000  0.5465240000000  0.4682720000000 1.0
C      1  0.5514370000000  0.4534760000000  0.5317280000000 1.0
C      1  0.4485630000000  0.5465240000000  0.5317280000000 1.0
C      1  0.5317280000000  0.5514370000000  0.4534760000000 1.0
C      1  0.5317280000000  0.4485630000000  0.5465240000000 1.0
C      1  0.4682720000000  0.5514370000000  0.5465240000000 1.0
C      1  0.5465240000000  0.5317280000000  0.4485630000000 1.0
C      1  0.5465240000000  0.4682720000000  0.5514370000000 1.0
C      1  0.4534760000000  0.5317280000000  0.5514370000000 1.0
C      1  0.4485630000000  0.4534760000000  0.5317280000000 1.0
C      1  0.4682720000000  0.4485630000000  0.5465240000000 1.0
C      1  0.4534760000000  0.4682720000000  0.5514370000000 1.0
C      1  0.5514370000000  0.5465240000000  0.5317280000000 1.0
C      1  0.5514370000000  0.4534760000000  0.4682720000000 1.0
C      1  0.4485630000000  0.5465240000000  0.4682720000000 1.0
C      1  0.5317280000000  0.5514370000000  0.5465240000000 1.0
C      1  0.5317280000000  0.4485630000000  0.4534760000000 1.0
C      1  0.4682720000000  0.5514370000000  0.4534760000000 1.0
C      1  0.5465240000000  0.5317280000000  0.5514370000000 1.0
C      1  0.5465240000000  0.4682720000000  0.4485630000000 1.0
C      1  0.4534760000000  0.5317280000000  0.4485630000000 1.0
C      1  0.4929540000000  0.5450910000000  0.4356220000000 1.0
C      1  0.4356220000000  0.4929540000000  0.5450910000000 1.0
C      1  0.5450910000000  0.4356220000000  0.4929540000000 1.0
C      1  0.5070460000000  0.4549090000000  0.4356220000000 1.0
C      1  0.5070460000000  0.5450910000000  0.5643780000000 1.0
C      1  0.4929540000000  0.4549090000000  0.5643780000000 1.0
C      1  0.5643780000000  0.5070460000000  0.5450910000000 1.0
C      1  0.5643780000000  0.4929540000000  0.4549090000000 1.0
C      1  0.4356220000000  0.5070460000000  0.4549090000000 1.0
C      1  0.4549090000000  0.5643780000000  0.4929540000000 1.0
C      1  0.4549090000000  0.4356220000000  0.5070460000000 1.0
C      1  0.5450910000000  0.5643780000000  0.5070460000000 1.0
C      1  0.4929540000000  0.5450910000000  0.5643780000000 1.0
C      1  0.4356220000000  0.4929540000000  0.4549090000000 1.0
C      1  0.5450910000000  0.4356220000000  0.5070460000000 1.0
C      1  0.5070460000000  0.4549090000000  0.5643780000000 1.0
C      1  0.5070460000000  0.5450910000000  0.4356220000000 1.0
C      1  0.4929540000000  0.4549090000000  0.4356220000000 1.0
C      1  0.5643780000000  0.5070460000000  0.4549090000000 1.0
C      1  0.5643780000000  0.4929540000000  0.5450910000000 1.0
C      1  0.4356220000000  0.5070460000000  0.5450910000000 1.0
C      1  0.4549090000000  0.5643780000000  0.5070460000000 1.0
C      1  0.4549090000000  0.4356220000000  0.4929540000000 1.0
C      1  0.5450910000000  0.5643780000000  0.4929540000000 1.0
C      1  0.4643530000000  0.5404280000000  0.5551320000000 1.0
C      1  0.5551320000000  0.4643530000000  0.5404280000000 1.0
C      1  0.5404280000000  0.5551320000000  0.4643530000000 1.0
C      1  0.5356470000000  0.4595720000000  0.5551320000000 1.0
C      1  0.5356470000000  0.5404280000000  0.4448680000000 1.0
C      1  0.4643530000000  0.4595720000000  0.4448680000000 1.0
C      1  0.4448680000000  0.5356470000000  0.5404280000000 1.0
C      1  0.4448680000000  0.4643530000000  0.4595720000000 1.0
C      1  0.5551320000000  0.5356470000000  0.4595720000000 1.0
C      1  0.4595720000000  0.4448680000000  0.4643530000000 1.0
C      1  0.4595720000000  0.5551320000000  0.5356470000000 1.0
C      1  0.5404280000000  0.4448680000000  0.5356470000000 1.0
C      1  0.4643530000000  0.5404280000000  0.4448680000000 1.0
C      1  0.5551320000000  0.4643530000000  0.4595720000000 1.0
C      1  0.5404280000000  0.5551320000000  0.5356470000000 1.0
C      1  0.5356470000000  0.4595720000000  0.4448680000000 1.0
C      1  0.5356470000000  0.5404280000000  0.5551320000000 1.0
C      1  0.4643530000000  0.4595720000000  0.5551320000000 1.0
C      1  0.4448680000000  0.5356470000000  0.4595720000000 1.0
C      1  0.4448680000000  0.4643530000000  0.5404280000000 1.0
C      1  0.5551320000000  0.5356470000000  0.5404280000000 1.0
C      1  0.4595720000000  0.4448680000000  0.5356470000000 1.0
C      1  0.4595720000000  0.5551320000000  0.4643530000000 1.0
C      1  0.5404280000000  0.4448680000000  0.4643530000000 1.0
C      1  0.4623380000000  0.5172750000000  0.5700130000000 1.0
C      1  0.5700130000000  0.4623380000000  0.5172750000000 1.0
C      1  0.5172750000000  0.5700130000000  0.4623380000000 1.0
C      1  0.5376620000000  0.4827250000000  0.5700130000000 1.0
C      1  0.5376620000000  0.5172750000000  0.4299870000000 1.0
C      1  0.4623380000000  0.4827250000000  0.4299870000000 1.0
C      1  0.4299870000000  0.5376620000000  0.5172750000000 1.0
C      1  0.4299870000000  0.4623380000000  0.4827250000000 1.0
C      1  0.5700130000000  0.5376620000000  0.4827250000000 1.0
C      1  0.4827250000000  0.4299870000000  0.4623380000000 1.0
C      1  0.4827250000000  0.5700130000000  0.5376620000000 1.0
C      1  0.5172750000000  0.4299870000000  0.5376620000000 1.0
C      1  0.4623380000000  0.5172750000000  0.4299870000000 1.0
C      1  0.5700130000000  0.4623380000000  0.4827250000000 1.0
C      1  0.5172750000000  0.5700130000000  0.5376620000000 1.0
C      1  0.5376620000000  0.4827250000000  0.4299870000000 1.0
C      1  0.5376620000000  0.5172750000000  0.5700130000000 1.0
C      1  0.4623380000000  0.4827250000000  0.5700130000000 1.0
C      1  0.4299870000000  0.5376620000000  0.4827250000000 1.0
C      1  0.4299870000000  0.4623380000000  0.5172750000000 1.0
C      1  0.5700130000000  0.5376620000000  0.5172750000000 1.0
C      1  0.4827250000000  0.4299870000000  0.5376620000000 1.0
C      1  0.4827250000000  0.5700130000000  0.4623380000000 1.0
C      1  0.5172750000000  0.4299870000000  0.4623380000000 1.0
C      1  0.4924300000000  0.4452780000000  0.5536710000000 1.0
C      1  0.5536710000000  0.4924300000000  0.4452780000000 1.0
C      1  0.4452780000000  0.5536710000000  0.4924300000000 1.0
C      1  0.5075700000000  0.5547220000000  0.5536710000000 1.0
C      1  0.5075700000000  0.4452780000000  0.4463290000000 1.0
C      1  0.4924300000000  0.5547220000000  0.4463290000000 1.0
C      1  0.4463290000000  0.5075700000000  0.4452780000000 1.0
C      1  0.4463290000000  0.4924300000000  0.5547220000000 1.0
C      1  0.5536710000000  0.5075700000000  0.5547220000000 1.0
C      1  0.5547220000000  0.4463290000000  0.4924300000000 1.0
C      1  0.5547220000000  0.5536710000000  0.5075700000000 1.0
C      1  0.4452780000000  0.4463290000000  0.5075700000000 1.0
C      1  0.4924300000000  0.4452780000000  0.4463290000000 1.0
C      1  0.5536710000000  0.4924300000000  0.5547220000000 1.0
C      1  0.4452780000000  0.5536710000000  0.5075700000000 1.0
C      1  0.5075700000000  0.5547220000000  0.4463290000000 1.0
C      1  0.5075700000000  0.4452780000000  0.5536710000000 1.0
C      1  0.4924300000000  0.5547220000000  0.5536710000000 1.0
C      1  0.4463290000000  0.5075700000000  0.5547220000000 1.0
C      1  0.4463290000000  0.4924300000000  0.4452780000000 1.0
C      1  0.5536710000000  0.5075700000000  0.4452780000000 1.0
C      1  0.5547220000000  0.4463290000000  0.5075700000000 1.0
C      1  0.5547220000000  0.5536710000000  0.4924300000000 1.0
C      1  0.4452780000000  0.4463290000000  0.4924300000000 1.0
C      1  0.5363580000000  0.5676500000000  0.4710260000000 1.0
C      1  0.4710260000000  0.5363580000000  0.5676500000000 1.0
C      1  0.5676500000000  0.4710260000000  0.5363580000000 1.0
C      1  0.4636420000000  0.4323500000000  0.4710260000000 1.0
C      1  0.4636420000000  0.5676500000000  0.5289740000000 1.0
C      1  0.5363580000000  0.4323500000000  0.5289740000000 1.0
C      1  0.5289740000000  0.4636420000000  0.5676500000000 1.0
C      1  0.5289740000000  0.5363580000000  0.4323500000000 1.0
C      1  0.4710260000000  0.4636420000000  0.4323500000000 1.0
C      1  0.4323500000000  0.5289740000000  0.5363580000000 1.0
C      1  0.4323500000000  0.4710260000000  0.4636420000000 1.0
C      1  0.5676500000000  0.5289740000000  0.4636420000000 1.0
C      1  0.5363580000000  0.5676500000000  0.5289740000000 1.0
C      1  0.4710260000000  0.5363580000000  0.4323500000000 1.0
C      1  0.5676500000000  0.4710260000000  0.4636420000000 1.0
C      1  0.4636420000000  0.4323500000000  0.5289740000000 1.0
C      1  0.4636420000000  0.5676500000000  0.4710260000000 1.0
C      1  0.5363580000000  0.4323500000000  0.4710260000000 1.0
C      1  0.5289740000000  0.4636420000000  0.4323500000000 1.0
C      1  0.5289740000000  0.5363580000000  0.5676500000000 1.0
C      1  0.4710260000000  0.4636420000000  0.5676500000000 1.0
C      1  0.4323500000000  0.5289740000000  0.4636420000000 1.0
C      1  0.4323500000000  0.4710260000000  0.5363580000000 1.0
C      1  0.5676500000000  0.5289740000000  0.5363580000000 1.0
C      1  0.5794570000000  0.5068230000000  0.5000000000000 1.0
C      1  0.5000000000000  0.5794570000000  0.5068230000000 1.0
C      1  0.5068230000000  0.5000000000000  0.5794570000000 1.0
C      1  0.4205430000000  0.4931770000000  0.5000000000000 1.0
C      1  0.4205430000000  0.5068230000000  0.5000000000000 1.0
C      1  0.5794570000000  0.4931770000000  0.5000000000000 1.0
C      1  0.5000000000000  0.4205430000000  0.5068230000000 1.0
C      1  0.5000000000000  0.5794570000000  0.4931770000000 1.0
C      1  0.5000000000000  0.4205430000000  0.4931770000000 1.0
C      1  0.4931770000000  0.5000000000000  0.5794570000000 1.0
C      1  0.4931770000000  0.5000000000000  0.4205430000000 1.0
C      1  0.5068230000000  0.5000000000000  0.4205430000000 1.0
END
