TITL C-1379265-1223-416 8.27563173228587e-07 1000000 -3652.56657231524 0 0 520 (Cs) n - 1
REM
REM in /nfs/bkarasulu/CARBON/AIRSS/Generating-Clusters/GAP-ML-2020/Higher-Symm/Selected-Sizes/TryA-Only_Ih-Symm/Larger-Clusters/Try2-MINAMP_6A
REM
REM
REM
REM
REM
REM ./C.cell (31579ac4e95a012ec27f3239692ae8a5)
REM
REM compiler GCC version 9.2.1 20190827 (Red Hat 9.2.1-1)
REM options -cpp -mtune=generic -march=x86-64 -g -O0 -fpre-include=/usr/include/finclude/math-vector-fortran.h
REM seed 1783964439 -468986113 545532025 1960523919 592826301 1318528988 -331903861 -807486099 -1778256063 707408092 896739634 -1176744232 835378989 -1389822854 1776722572 2020383656 -683580394 1721978648 -867916241 -1027424684 377427515 1243134568 1115866679 -561279000 -1454894956 126156020 134145586 797089434 -1003582109 -911528249 1003342194 -978243043 1728619849
REM
CELL 1.54180  100.00000  100.00000  100.00000   90.00000   90.00000   90.00000
LATT -1
SFAC C  
C      1  0.4690630000000  0.5864610000000  0.4779480000000 1.0
C      1  0.4780300000000  0.4690680000000  0.5865760000000 1.0
C      1  0.5866450000000  0.4776740000000  0.4688990000000 1.0
C      1  0.5311190000000  0.5837320000000  0.5231780000000 1.0
C      1  0.4680590000000  0.4149080000000  0.5218450000000 1.0
C      1  0.5309510000000  0.4156580000000  0.4765670000000 1.0
C      1  0.5218600000000  0.4678050000000  0.4148490000000 1.0
C      1  0.4766770000000  0.5308690000000  0.4160260000000 1.0
C      1  0.5218940000000  0.5316080000000  0.5847380000000 1.0
C      1  0.4158340000000  0.4763370000000  0.5308330000000 1.0
C      1  0.5870250000000  0.5215750000000  0.5305530000000 1.0
C      1  0.4149300000000  0.5216220000000  0.4677970000000 1.0
C      1  0.4780300000000  0.5864740000000  0.4691700000000 1.0
C      1  0.5866450000000  0.4687970000000  0.4777760000000 1.0
C      1  0.4690630000000  0.4778470000000  0.5865630000000 1.0
C      1  0.5218930000000  0.5846360000000  0.5317090000000 1.0
C      1  0.5218600000000  0.4147470000000  0.4679060000000 1.0
C      1  0.4766770000000  0.4159240000000  0.5309710000000 1.0
C      1  0.4149300000000  0.4676950000000  0.5217240000000 1.0
C      1  0.4158340000000  0.5307310000000  0.4764390000000 1.0
C      1  0.5870250000000  0.5304520000000  0.5216770000000 1.0
C      1  0.5309510000000  0.4764650000000  0.4157600000000 1.0
C      1  0.5311200000000  0.5230770000000  0.5838340000000 1.0
C      1  0.4680590000000  0.5217430000000  0.4150100000000 1.0
C      1  0.4795080000000  0.5435710000000  0.4458040000000 1.0
C      1  0.4455390000000  0.4792120000000  0.5436770000000 1.0
C      1  0.5438390000000  0.4453170000000  0.4792230000000 1.0
C      1  0.5183790000000  0.5412070000000  0.5582600000000 1.0
C      1  0.4819040000000  0.4571700000000  0.5553020000000 1.0
C      1  0.5181350000000  0.4583090000000  0.4413820000000 1.0
C      1  0.5555360000000  0.4814670000000  0.4567920000000 1.0
C      1  0.4415250000000  0.5179430000000  0.4584460000000 1.0
C      1  0.5559930000000  0.5180600000000  0.5429080000000 1.0
C      1  0.4586050000000  0.4414260000000  0.5180420000000 1.0
C      1  0.5443140000000  0.5541980000000  0.5205290000000 1.0
C      1  0.4569300000000  0.5552320000000  0.4817470000000 1.0
C      1  0.4455390000000  0.5435750000000  0.4793140000000 1.0
C      1  0.5438390000000  0.4791220000000  0.4454190000000 1.0
C      1  0.4795080000000  0.4457020000000  0.5436730000000 1.0
C      1  0.5559930000000  0.5428070000000  0.5181620000000 1.0
C      1  0.5555360000000  0.4566900000000  0.4815690000000 1.0
C      1  0.4415250000000  0.4583440000000  0.5180450000000 1.0
C      1  0.4569310000000  0.4816450000000  0.5553340000000 1.0
C      1  0.4586050000000  0.5179400000000  0.4415280000000 1.0
C      1  0.5443140000000  0.5204270000000  0.5542990000000 1.0
C      1  0.5181350000000  0.4412800000000  0.4584110000000 1.0
C      1  0.5183790000000  0.5581580000000  0.5413090000000 1.0
C      1  0.4819030000000  0.5552000000000  0.4572720000000 1.0
C      1  0.5096510000000  0.4991850000000  0.4504670000000 1.0
C      1  0.4502820000000  0.5093990000000  0.4993220000000 1.0
C      1  0.4994620000000  0.4504340000000  0.5094720000000 1.0
C      1  0.4900090000000  0.4999390000000  0.5487960000000 1.0
C      1  0.5103040000000  0.5006450000000  0.5489270000000 1.0
C      1  0.4895980000000  0.4993750000000  0.4506410000000 1.0
C      1  0.5493490000000  0.5097470000000  0.4999430000000 1.0
C      1  0.4504790000000  0.4893630000000  0.4995100000000 1.0
C      1  0.5492170000000  0.4897510000000  0.4997630000000 1.0
C      1  0.4996510000000  0.4504820000000  0.4894330000000 1.0
C      1  0.5002810000000  0.5487500000000  0.4904610000000 1.0
C      1  0.4999580000000  0.5488200000000  0.5102580000000 1.0
C      1  0.4502820000000  0.4992200000000  0.5095010000000 1.0
C      1  0.4994610000000  0.5093700000000  0.4505350000000 1.0
C      1  0.5096510000000  0.4503650000000  0.4992870000000 1.0
C      1  0.5492170000000  0.4996610000000  0.4898530000000 1.0
C      1  0.5493490000000  0.4998410000000  0.5098490000000 1.0
C      1  0.4504790000000  0.4994080000000  0.4894650000000 1.0
C      1  0.4999580000000  0.5101560000000  0.5489220000000 1.0
C      1  0.4996510000000  0.4893310000000  0.4505840000000 1.0
C      1  0.5002810000000  0.4903600000000  0.5488520000000 1.0
C      1  0.4895980000000  0.4505390000000  0.4994770000000 1.0
C      1  0.4900090000000  0.5486950000000  0.5000410000000 1.0
C      1  0.5103040000000  0.5488250000000  0.5007470000000 1.0
C      1  0.4185200000000  0.4891790000000  0.5344870000000 1.0
C      1  0.5346360000000  0.4183860000000  0.4893910000000 1.0
C      1  0.4895110000000  0.5345200000000  0.4187840000000 1.0
C      1  0.5829620000000  0.4901130000000  0.4646270000000 1.0
C      1  0.4174590000000  0.5087650000000  0.4642210000000 1.0
C      1  0.5832960000000  0.5091580000000  0.5348490000000 1.0
C      1  0.4644330000000  0.4173370000000  0.5089800000000 1.0
C      1  0.5349860000000  0.5810300000000  0.5103830000000 1.0
C      1  0.4647000000000  0.5827310000000  0.4903330000000 1.0
C      1  0.5090200000000  0.5351760000000  0.5822000000000 1.0
C      1  0.4904900000000  0.4649760000000  0.5827690000000 1.0
C      1  0.5090060000000  0.4641980000000  0.4173670000000 1.0
C      1  0.5346360000000  0.4892890000000  0.4184870000000 1.0
C      1  0.4895120000000  0.4186820000000  0.5346220000000 1.0
C      1  0.4185200000000  0.5343840000000  0.4892810000000 1.0
C      1  0.4647010000000  0.4902310000000  0.5828330000000 1.0
C      1  0.4644320000000  0.5088780000000  0.4174390000000 1.0
C      1  0.5349860000000  0.5102820000000  0.5811320000000 1.0
C      1  0.5090070000000  0.4172660000000  0.4643000000000 1.0
C      1  0.5090200000000  0.5820980000000  0.5352780000000 1.0
C      1  0.4904890000000  0.5826670000000  0.4650780000000 1.0
C      1  0.5832960000000  0.5347480000000  0.5092600000000 1.0
C      1  0.5829620000000  0.4645260000000  0.4902150000000 1.0
C      1  0.4174590000000  0.4641190000000  0.5088670000000 1.0
C      1  0.4841980000000  0.4480610000000  0.4665240000000 1.0
C      1  0.4666350000000  0.4839750000000  0.4481780000000 1.0
C      1  0.4482210000000  0.4663920000000  0.4840570000000 1.0
C      1  0.5148690000000  0.4488400000000  0.5322340000000 1.0
C      1  0.4844100000000  0.5511770000000  0.5329420000000 1.0
C      1  0.5154790000000  0.5506330000000  0.4675890000000 1.0
C      1  0.5328480000000  0.4849250000000  0.5509650000000 1.0
C      1  0.4671120000000  0.5152830000000  0.5508120000000 1.0
C      1  0.5324200000000  0.5146320000000  0.4487030000000 1.0
C      1  0.5510160000000  0.4670060000000  0.5152410000000 1.0
C      1  0.4485820000000  0.5321890000000  0.5147680000000 1.0
C      1  0.5512470000000  0.5323960000000  0.4843970000000 1.0
C      1  0.4666350000000  0.4480760000000  0.4840770000000 1.0
C      1  0.4482210000000  0.4839550000000  0.4664940000000 1.0
C      1  0.4841980000000  0.4664220000000  0.4481630000000 1.0
C      1  0.5324210000000  0.4486020000000  0.5147330000000 1.0
C      1  0.5328480000000  0.5508640000000  0.4850270000000 1.0
C      1  0.4671120000000  0.5507100000000  0.5153850000000 1.0
C      1  0.5512470000000  0.4842950000000  0.5324980000000 1.0
C      1  0.5510160000000  0.5151390000000  0.4671080000000 1.0
C      1  0.4485820000000  0.5146660000000  0.5322910000000 1.0
C      1  0.5154790000000  0.4674870000000  0.5507350000000 1.0
C      1  0.5148690000000  0.5321320000000  0.4489410000000 1.0
C      1  0.4844100000000  0.5328400000000  0.5512790000000 1.0
C      1  0.4527680000000  0.4356710000000  0.4697840000000 1.0
C      1  0.4698760000000  0.4525630000000  0.4357890000000 1.0
C      1  0.4358960000000  0.4696150000000  0.4526140000000 1.0
C      1  0.5462250000000  0.4362200000000  0.5290350000000 1.0
C      1  0.4527800000000  0.5630020000000  0.5291420000000 1.0
C      1  0.5466570000000  0.5631470000000  0.4707220000000 1.0
C      1  0.5293910000000  0.4533600000000  0.5630950000000 1.0
C      1  0.4697780000000  0.5465170000000  0.5634580000000 1.0
C      1  0.5289580000000  0.5460980000000  0.4365440000000 1.0
C      1  0.5634090000000  0.4701970000000  0.5465470000000 1.0
C      1  0.4361180000000  0.5288210000000  0.5461100000000 1.0
C      1  0.5632020000000  0.5290660000000  0.4529420000000 1.0
C      1  0.4698760000000  0.4356870000000  0.4526650000000 1.0
C      1  0.4358960000000  0.4525120000000  0.4697170000000 1.0
C      1  0.4527680000000  0.4696820000000  0.4357730000000 1.0
C      1  0.5289580000000  0.4364420000000  0.5462000000000 1.0
C      1  0.5293910000000  0.5629930000000  0.4534620000000 1.0
C      1  0.4697780000000  0.5633560000000  0.5466190000000 1.0
C      1  0.5632030000000  0.4528410000000  0.5291670000000 1.0
C      1  0.5634090000000  0.5464450000000  0.4702990000000 1.0
C      1  0.4361180000000  0.5460080000000  0.5289230000000 1.0
C      1  0.5466570000000  0.4706200000000  0.5632490000000 1.0
C      1  0.5462250000000  0.5289340000000  0.4363220000000 1.0
C      1  0.4527810000000  0.5290410000000  0.5631040000000 1.0
C      1  0.5501920000000  0.4686070000000  0.4907380000000 1.0
C      1  0.4910260000000  0.5497930000000  0.4692230000000 1.0
C      1  0.4688480000000  0.4908310000000  0.5499470000000 1.0
C      1  0.4488550000000  0.4684120000000  0.5088960000000 1.0
C      1  0.5506100000000  0.5308660000000  0.5089660000000 1.0
C      1  0.4496670000000  0.5309930000000  0.4898130000000 1.0
C      1  0.5093220000000  0.5507570000000  0.5311910000000 1.0
C      1  0.4899540000000  0.4498470000000  0.5310750000000 1.0
C      1  0.5090360000000  0.4486590000000  0.4684880000000 1.0
C      1  0.5312480000000  0.4896400000000  0.4496340000000 1.0
C      1  0.4686630000000  0.5088050000000  0.4488840000000 1.0
C      1  0.5317830000000  0.5099530000000  0.5500810000000 1.0
C      1  0.4910260000000  0.4691210000000  0.5498950000000 1.0
C      1  0.4688470000000  0.5498450000000  0.4909330000000 1.0
C      1  0.5501920000000  0.4906370000000  0.4687090000000 1.0
C      1  0.5090360000000  0.4683870000000  0.4487610000000 1.0
C      1  0.5093220000000  0.5310900000000  0.5508590000000 1.0
C      1  0.4899540000000  0.5309730000000  0.4499480000000 1.0
C      1  0.5317830000000  0.5499790000000  0.5100550000000 1.0
C      1  0.5312490000000  0.4495330000000  0.4897420000000 1.0
C      1  0.4686630000000  0.4487820000000  0.5089070000000 1.0
C      1  0.4496670000000  0.4897110000000  0.5310950000000 1.0
C      1  0.4488550000000  0.5087940000000  0.4685140000000 1.0
C      1  0.5506100000000  0.5088650000000  0.5309670000000 1.0
C      1  0.4851100000000  0.4315080000000  0.4414890000000 1.0
C      1  0.4416010000000  0.4849360000000  0.4315760000000 1.0
C      1  0.4316780000000  0.4412880000000  0.4850120000000 1.0
C      1  0.5136950000000  0.4325840000000  0.5572770000000 1.0
C      1  0.4850800000000  0.5677200000000  0.5579800000000 1.0
C      1  0.5139430000000  0.5671790000000  0.4424170000000 1.0
C      1  0.5581130000000  0.4863260000000  0.5675870000000 1.0
C      1  0.4418180000000  0.5134950000000  0.5673230000000 1.0
C      1  0.5576950000000  0.5132080000000  0.4320660000000 1.0
C      1  0.5675450000000  0.4417200000000  0.5135930000000 1.0
C      1  0.4320000000000  0.5573810000000  0.5133030000000 1.0
C      1  0.5680350000000  0.5578690000000  0.4861500000000 1.0
C      1  0.4416010000000  0.4314740000000  0.4850380000000 1.0
C      1  0.4316780000000  0.4849100000000  0.4413900000000 1.0
C      1  0.4851100000000  0.4413870000000  0.4316100000000 1.0
C      1  0.5576950000000  0.4319650000000  0.5133090000000 1.0
C      1  0.5581130000000  0.5674850000000  0.4864270000000 1.0
C      1  0.4418180000000  0.5672210000000  0.5135970000000 1.0
C      1  0.5680350000000  0.4860490000000  0.5579700000000 1.0
C      1  0.5675450000000  0.5134920000000  0.4418220000000 1.0
C      1  0.4320010000000  0.5132010000000  0.5574830000000 1.0
C      1  0.5139430000000  0.4423160000000  0.5672800000000 1.0
C      1  0.5136950000000  0.5571760000000  0.4326860000000 1.0
C      1  0.4850800000000  0.5578780000000  0.5678220000000 1.0
C      1  0.4726540000000  0.4825860000000  0.5369400000000 1.0
C      1  0.5372020000000  0.4724350000000  0.4824410000000 1.0
C      1  0.4826620000000  0.5368010000000  0.4728950000000 1.0
C      1  0.5272580000000  0.4819020000000  0.4622900000000 1.0
C      1  0.4722250000000  0.5169810000000  0.4622360000000 1.0
C      1  0.5277490000000  0.5176840000000  0.5374490000000 1.0
C      1  0.4621540000000  0.4720820000000  0.5170970000000 1.0
C      1  0.5376650000000  0.5271090000000  0.5173170000000 1.0
C      1  0.4623660000000  0.5269440000000  0.4821610000000 1.0
C      1  0.5176980000000  0.5375550000000  0.5276580000000 1.0
C      1  0.4822180000000  0.4624780000000  0.5270090000000 1.0
C      1  0.5172910000000  0.4619420000000  0.4720520000000 1.0
C      1  0.5372020000000  0.4823390000000  0.4725360000000 1.0
C      1  0.4826620000000  0.4727940000000  0.5369030000000 1.0
C      1  0.4726540000000  0.5368380000000  0.4826880000000 1.0
C      1  0.4623660000000  0.4820590000000  0.5270460000000 1.0
C      1  0.4621530000000  0.5169950000000  0.4721840000000 1.0
C      1  0.5376650000000  0.5172150000000  0.5272100000000 1.0
C      1  0.5172910000000  0.4719500000000  0.4620440000000 1.0
C      1  0.5176980000000  0.5275570000000  0.5376560000000 1.0
C      1  0.4822180000000  0.5269070000000  0.4625790000000 1.0
C      1  0.5277490000000  0.5373470000000  0.5177860000000 1.0
C      1  0.5272580000000  0.4621890000000  0.4820040000000 1.0
C      1  0.4722250000000  0.4621350000000  0.5170830000000 1.0
C      1  0.5383380000000  0.5470920000000  0.4969500000000 1.0
C      1  0.4963830000000  0.5378890000000  0.5472870000000 1.0
C      1  0.5475210000000  0.4962340000000  0.5377880000000 1.0
C      1  0.4619360000000  0.5467900000000  0.5034880000000 1.0
C      1  0.5378640000000  0.4524110000000  0.5028020000000 1.0
C      1  0.4617200000000  0.4522350000000  0.4960280000000 1.0
C      1  0.5029980000000  0.5375440000000  0.4529100000000 1.0
C      1  0.4961550000000  0.4614790000000  0.4522810000000 1.0
C      1  0.5036020000000  0.4622550000000  0.5468180000000 1.0
C      1  0.4523780000000  0.4959160000000  0.4615970000000 1.0
C      1  0.5471040000000  0.5032510000000  0.4618810000000 1.0
C      1  0.4525040000000  0.5027740000000  0.5377160000000 1.0
C      1  0.4963830000000  0.5471850000000  0.5379910000000 1.0
C      1  0.5475210000000  0.5376860000000  0.4963350000000 1.0
C      1  0.5383380000000  0.4968480000000  0.5471940000000 1.0
C      1  0.5036020000000  0.5467160000000  0.4623570000000 1.0
C      1  0.5029980000000  0.4528080000000  0.5376460000000 1.0
C      1  0.4961550000000  0.4521790000000  0.4615810000000 1.0
C      1  0.4525030000000  0.5376150000000  0.5028760000000 1.0
C      1  0.4523780000000  0.4614950000000  0.4960180000000 1.0
C      1  0.5471040000000  0.4617790000000  0.5033530000000 1.0
C      1  0.4617200000000  0.4959260000000  0.4523370000000 1.0
C      1  0.4619360000000  0.5033870000000  0.5468920000000 1.0
C      1  0.5378640000000  0.5027000000000  0.4525120000000 1.0
C      1  0.5126080000000  0.4458580000000  0.4359990000000 1.0
C      1  0.4361510000000  0.5124150000000  0.4459930000000 1.0
C      1  0.4461590000000  0.4359670000000  0.5125420000000 1.0
C      1  0.4872830000000  0.4460950000000  0.5641130000000 1.0
C      1  0.5126500000000  0.5535820000000  0.5636560000000 1.0
C      1  0.4857780000000  0.5539460000000  0.4360840000000 1.0
C      1  0.5647890000000  0.5126390000000  0.5539580000000 1.0
C      1  0.4357250000000  0.4854230000000  0.5539930000000 1.0
C      1  0.5643140000000  0.4868290000000  0.4456910000000 1.0
C      1  0.5541590000000  0.4355270000000  0.4854920000000 1.0
C      1  0.4457990000000  0.5640180000000  0.4870150000000 1.0
C      1  0.5546470000000  0.5639540000000  0.5142360000000 1.0
C      1  0.4361520000000  0.4458910000000  0.5125170000000 1.0
C      1  0.4461590000000  0.5124400000000  0.4360690000000 1.0
C      1  0.5126080000000  0.4358970000000  0.4459600000000 1.0
C      1  0.5643140000000  0.4455890000000  0.4869300000000 1.0
C      1  0.5647890000000  0.5538560000000  0.5127400000000 1.0
C      1  0.4357250000000  0.5538910000000  0.4855250000000 1.0
C      1  0.5546470000000  0.5141340000000  0.5640550000000 1.0
C      1  0.5541590000000  0.4853910000000  0.4356290000000 1.0
C      1  0.4457990000000  0.4869140000000  0.5641200000000 1.0
C      1  0.4857780000000  0.4359820000000  0.5540480000000 1.0
C      1  0.4872820000000  0.5640110000000  0.4461970000000 1.0
C      1  0.5126500000000  0.5635540000000  0.5536830000000 1.0
C      1  0.5129150000000  0.5618960000000  0.4764630000000 1.0
C      1  0.4758500000000  0.5126630000000  0.5621560000000 1.0
C      1  0.5623900000000  0.4757080000000  0.5125940000000 1.0
C      1  0.4868910000000  0.5622940000000  0.5239970000000 1.0
C      1  0.5121720000000  0.4376550000000  0.5234940000000 1.0
C      1  0.4867010000000  0.4369500000000  0.4754660000000 1.0
C      1  0.5235660000000  0.5119550000000  0.4376220000000 1.0
C      1  0.4755830000000  0.4864930000000  0.4370750000000 1.0
C      1  0.5241060000000  0.4876970000000  0.5621270000000 1.0
C      1  0.4370850000000  0.4753020000000  0.4865390000000 1.0
C      1  0.5625490000000  0.5236220000000  0.4869920000000 1.0
C      1  0.4374810000000  0.5233670000000  0.5120420000000 1.0
C      1  0.4758500000000  0.5620540000000  0.5127650000000 1.0
C      1  0.5623900000000  0.5124920000000  0.4758100000000 1.0
C      1  0.5129160000000  0.4763620000000  0.5619980000000 1.0
C      1  0.5241060000000  0.5620250000000  0.4877980000000 1.0
C      1  0.5235670000000  0.4375200000000  0.5120570000000 1.0
C      1  0.4755830000000  0.4369730000000  0.4865950000000 1.0
C      1  0.4374810000000  0.5119400000000  0.5234690000000 1.0
C      1  0.4370850000000  0.4864370000000  0.4754040000000 1.0
C      1  0.5625490000000  0.4868900000000  0.5237240000000 1.0
C      1  0.4867010000000  0.4753640000000  0.4370520000000 1.0
C      1  0.4868910000000  0.5238950000000  0.5623960000000 1.0
C      1  0.5121720000000  0.5233920000000  0.4377570000000 1.0
C      1  0.5316070000000  0.5436750000000  0.5537980000000 1.0
C      1  0.5607800000000  0.5312830000000  0.5405910000000 1.0
C      1  0.5428750000000  0.5527360000000  0.5355600000000 1.0
C      1  0.4644770000000  0.5422760000000  0.4471790000000 1.0
C      1  0.5313090000000  0.4558160000000  0.4458990000000 1.0
C      1  0.4687240000000  0.4594160000000  0.5601990000000 1.0
C      1  0.4460670000000  0.5311210000000  0.4559980000000 1.0
C      1  0.5603600000000  0.4682700000000  0.4591620000000 1.0
C      1  0.4470620000000  0.4641940000000  0.5424030000000 1.0
C      1  0.4593860000000  0.5601140000000  0.4685880000000 1.0
C      1  0.5425030000000  0.4467980000000  0.4641940000000 1.0
C      1  0.4561560000000  0.4459600000000  0.5312190000000 1.0
C      1  0.5607800000000  0.5404890000000  0.5313840000000 1.0
C      1  0.5428750000000  0.5354590000000  0.5528380000000 1.0
C      1  0.5316070000000  0.5536960000000  0.5437770000000 1.0
C      1  0.4470620000000  0.5423010000000  0.4642960000000 1.0
C      1  0.4460670000000  0.4558960000000  0.5312230000000 1.0
C      1  0.5603600000000  0.4590610000000  0.4683720000000 1.0
C      1  0.4561550000000  0.5311170000000  0.4460620000000 1.0
C      1  0.4593870000000  0.4684860000000  0.5602160000000 1.0
C      1  0.5425030000000  0.4640920000000  0.4468990000000 1.0
C      1  0.4687230000000  0.5600970000000  0.4595180000000 1.0
C      1  0.4644770000000  0.4470770000000  0.5423780000000 1.0
C      1  0.5313090000000  0.4457970000000  0.4559180000000 1.0
C      1  0.4709810000000  0.4492410000000  0.4602200000000 1.0
C      1  0.4603270000000  0.4707620000000  0.4493370000000 1.0
C      1  0.4494400000000  0.4600920000000  0.4708410000000 1.0
C      1  0.5280890000000  0.4499810000000  0.5386330000000 1.0
C      1  0.4710910000000  0.5498040000000  0.5391040000000 1.0
C      1  0.5284380000000  0.5494630000000  0.4610050000000 1.0
C      1  0.5390620000000  0.4715090000000  0.5497030000000 1.0
C      1  0.4605280000000  0.5282820000000  0.5496480000000 1.0
C      1  0.5387130000000  0.5279530000000  0.4498980000000 1.0
C      1  0.5497100000000  0.4605150000000  0.5283190000000 1.0
C      1  0.4497310000000  0.5385350000000  0.5280510000000 1.0
C      1  0.5498800000000  0.5388270000000  0.4712490000000 1.0
C      1  0.4603270000000  0.4492350000000  0.4708640000000 1.0
C      1  0.4494400000000  0.4707390000000  0.4601940000000 1.0
C      1  0.4709810000000  0.4601180000000  0.4493430000000 1.0
C      1  0.5387130000000  0.4497970000000  0.5280550000000 1.0
C      1  0.5390620000000  0.5496020000000  0.4716110000000 1.0
C      1  0.4605280000000  0.5495460000000  0.5283840000000 1.0
C      1  0.5498800000000  0.4711480000000  0.5389290000000 1.0
C      1  0.5497100000000  0.5282170000000  0.4606160000000 1.0
C      1  0.4497310000000  0.5279490000000  0.5386370000000 1.0
C      1  0.5284380000000  0.4609040000000  0.5495650000000 1.0
C      1  0.5280890000000  0.5385310000000  0.4500820000000 1.0
C      1  0.4710910000000  0.5390020000000  0.5499060000000 1.0
C      1  0.5838820000000  0.4889650000000  0.5000010000000 1.0
C      1  0.5001480000000  0.5834010000000  0.4895500000000 1.0
C      1  0.4890980000000  0.5002210000000  0.5836710000000 1.0
C      1  0.4159680000000  0.4885050000000  0.4990360000000 1.0
C      1  0.5839950000000  0.5103070000000  0.4994660000000 1.0
C      1  0.4164890000000  0.5098270000000  0.4994540000000 1.0
C      1  0.4994140000000  0.5834740000000  0.5108420000000 1.0
C      1  0.4996380000000  0.4165240000000  0.5100420000000 1.0
C      1  0.4992110000000  0.4158610000000  0.4887130000000 1.0
C      1  0.5101030000000  0.4994650000000  0.4165490000000 1.0
C      1  0.4887940000000  0.4990460000000  0.4160040000000 1.0
C      1  0.5104720000000  0.5000030000000  0.5832410000000 1.0
C      1  0.5001480000000  0.4894480000000  0.5835030000000 1.0
C      1  0.4890980000000  0.5835690000000  0.5003230000000 1.0
C      1  0.5838820000000  0.4999000000000  0.4890670000000 1.0
C      1  0.4992110000000  0.4886110000000  0.4159630000000 1.0
C      1  0.4994140000000  0.5107410000000  0.5835760000000 1.0
C      1  0.4996380000000  0.5099400000000  0.4166250000000 1.0
C      1  0.5104720000000  0.5831390000000  0.5001050000000 1.0
C      1  0.5101030000000  0.4164470000000  0.4995670000000 1.0
C      1  0.4887940000000  0.4159020000000  0.4991480000000 1.0
C      1  0.4164890000000  0.4993520000000  0.5099290000000 1.0
C      1  0.4159680000000  0.4989340000000  0.4886070000000 1.0
C      1  0.5839950000000  0.4993640000000  0.5104080000000 1.0
C      1  0.4971000000000  0.4418540000000  0.5202520000000 1.0
C      1  0.5203600000000  0.4968500000000  0.4417830000000 1.0
C      1  0.4416960000000  0.5201610000000  0.4969580000000 1.0
C      1  0.5012410000000  0.4413080000000  0.4792060000000 1.0
C      1  0.4981780000000  0.5576290000000  0.4799420000000 1.0
C      1  0.5014870000000  0.5580720000000  0.5204450000000 1.0
C      1  0.4795540000000  0.4979170000000  0.5577490000000 1.0
C      1  0.5208730000000  0.5028210000000  0.5578210000000 1.0
C      1  0.4793530000000  0.5010060000000  0.4415010000000 1.0
C      1  0.5583790000000  0.5201620000000  0.5018400000000 1.0
C      1  0.4414140000000  0.4790530000000  0.5010860000000 1.0
C      1  0.5581010000000  0.4792370000000  0.4978170000000 1.0
C      1  0.5203600000000  0.4416820000000  0.4969520000000 1.0
C      1  0.4416960000000  0.4968560000000  0.5202630000000 1.0
C      1  0.4971000000000  0.5201510000000  0.4419550000000 1.0
C      1  0.4793530000000  0.4413990000000  0.5011080000000 1.0
C      1  0.4795530000000  0.5576470000000  0.4980190000000 1.0
C      1  0.5208730000000  0.5577200000000  0.5029230000000 1.0
C      1  0.5581010000000  0.4977150000000  0.4793390000000 1.0
C      1  0.5583790000000  0.5017390000000  0.5202640000000 1.0
C      1  0.4414140000000  0.5009840000000  0.4791550000000 1.0
C      1  0.5014870000000  0.5203430000000  0.5581740000000 1.0
C      1  0.5012410000000  0.4791040000000  0.4414100000000 1.0
C      1  0.4981780000000  0.4798410000000  0.5577310000000 1.0
C      1  0.5746190000000  0.4719090000000  0.5371490000000 1.0
C      1  0.5372790000000  0.5743220000000  0.4726600000000 1.0
C      1  0.4716500000000  0.5371020000000  0.5746810000000 1.0
C      1  0.4246100000000  0.4715230000000  0.4619610000000 1.0
C      1  0.5744820000000  0.5273490000000  0.4623540000000 1.0
C      1  0.4249710000000  0.5268340000000  0.5366280000000 1.0
C      1  0.4621210000000  0.5743330000000  0.5273970000000 1.0
C      1  0.5367950000000  0.4250600000000  0.5270600000000 1.0
C      1  0.4621400000000  0.4244130000000  0.4717130000000 1.0
C      1  0.5270760000000  0.5366190000000  0.4253020000000 1.0
C      1  0.4717940000000  0.4619410000000  0.4245180000000 1.0
C      1  0.5276010000000  0.4628710000000  0.5743370000000 1.0
C      1  0.5372790000000  0.4725580000000  0.5744230000000 1.0
C      1  0.4716500000000  0.5745800000000  0.5372030000000 1.0
C      1  0.5746190000000  0.5370480000000  0.4720110000000 1.0
C      1  0.4621400000000  0.4716110000000  0.4245150000000 1.0
C      1  0.4621210000000  0.5272950000000  0.5744340000000 1.0
C      1  0.5367940000000  0.5269590000000  0.4251610000000 1.0
C      1  0.5276010000000  0.5742350000000  0.4629730000000 1.0
C      1  0.5270760000000  0.4252000000000  0.5367200000000 1.0
C      1  0.4717940000000  0.4244160000000  0.4620430000000 1.0
C      1  0.4249710000000  0.5365260000000  0.5269350000000 1.0
C      1  0.4246100000000  0.4618590000000  0.4716250000000 1.0
C      1  0.5744820000000  0.4622520000000  0.5274500000000 1.0
C      1  0.5068440000000  0.5466480000000  0.4265130000000 1.0
C      1  0.4260850000000  0.5065060000000  0.5467100000000 1.0
C      1  0.5468690000000  0.4260690000000  0.5066810000000 1.0
C      1  0.4917570000000  0.5472060000000  0.5739230000000 1.0
C      1  0.5073760000000  0.4530150000000  0.5735390000000 1.0
C      1  0.4918280000000  0.4520600000000  0.4255670000000 1.0
C      1  0.5738400000000  0.5069810000000  0.4525370000000 1.0
C      1  0.4256530000000  0.4915960000000  0.4520850000000 1.0
C      1  0.5741730000000  0.4923720000000  0.5470340000000 1.0
C      1  0.4522800000000  0.4254760000000  0.4917710000000 1.0
C      1  0.5473310000000  0.5734580000000  0.4930850000000 1.0
C      1  0.4525400000000  0.5735140000000  0.5070950000000 1.0
C      1  0.4260850000000  0.5466080000000  0.5066080000000 1.0
C      1  0.5468690000000  0.5065790000000  0.4261710000000 1.0
C      1  0.5068440000000  0.4264110000000  0.5467500000000 1.0
C      1  0.5741730000000  0.5469320000000  0.4924730000000 1.0
C      1  0.5738410000000  0.4524360000000  0.5070820000000 1.0
C      1  0.4256540000000  0.4519830000000  0.4916990000000 1.0
C      1  0.4525410000000  0.5069930000000  0.5736160000000 1.0
C      1  0.4522800000000  0.4916690000000  0.4255780000000 1.0
C      1  0.5473320000000  0.4929830000000  0.5735600000000 1.0
C      1  0.4918280000000  0.4254650000000  0.4521620000000 1.0
C      1  0.4917570000000  0.5738210000000  0.5473070000000 1.0
C      1  0.5073760000000  0.5734370000000  0.4531170000000 1.0
C      1  0.5757050000000  0.4932930000000  0.4518170000000 1.0
C      1  0.4518790000000  0.5754480000000  0.4934250000000 1.0
C      1  0.4937160000000  0.4522080000000  0.5754910000000 1.0
C      1  0.4252490000000  0.4926400000000  0.5471460000000 1.0
C      1  0.5760870000000  0.5060630000000  0.5476930000000 1.0
C      1  0.4249400000000  0.5053400000000  0.4517150000000 1.0
C      1  0.5477090000000  0.5743670000000  0.5069660000000 1.0
C      1  0.4518960000000  0.4247510000000  0.5055140000000 1.0
C      1  0.5472960000000  0.4251230000000  0.4928100000000 1.0
C      1  0.5055650000000  0.4516710000000  0.4248190000000 1.0
C      1  0.4929950000000  0.5471490000000  0.4256030000000 1.0
C      1  0.5055040000000  0.5476800000000  0.5747550000000 1.0
C      1  0.4518790000000  0.4933230000000  0.5755500000000 1.0
C      1  0.4937150000000  0.5753890000000  0.4523100000000 1.0
C      1  0.5757050000000  0.4517150000000  0.4933940000000 1.0
C      1  0.5472960000000  0.4927090000000  0.4252250000000 1.0
C      1  0.5477090000000  0.5068650000000  0.5744680000000 1.0
C      1  0.4518960000000  0.5054120000000  0.4248530000000 1.0
C      1  0.5055040000000  0.5746530000000  0.5477810000000 1.0
C      1  0.5055650000000  0.4247170000000  0.4517730000000 1.0
C      1  0.4929950000000  0.4255010000000  0.5472510000000 1.0
C      1  0.4249400000000  0.4516130000000  0.5054420000000 1.0
C      1  0.4252490000000  0.5470440000000  0.4927420000000 1.0
C      1  0.5760870000000  0.5475920000000  0.5061650000000 1.0
C      1  0.4162940000000  0.4975690000000  0.4736160000000 1.0
C      1  0.4738150000000  0.4161830000000  0.4977820000000 1.0
C      1  0.4978270000000  0.4736100000000  0.4162410000000 1.0
C      1  0.5835660000000  0.4979390000000  0.5254030000000 1.0
C      1  0.4170600000000  0.5005220000000  0.5249830000000 1.0
C      1  0.5833390000000  0.5013040000000  0.4740890000000 1.0
C      1  0.5251520000000  0.4170150000000  0.5007540000000 1.0
C      1  0.4741030000000  0.5830530000000  0.5015650000000 1.0
C      1  0.5255530000000  0.5824620000000  0.4989980000000 1.0
C      1  0.5016240000000  0.4745150000000  0.5830480000000 1.0
C      1  0.4978660000000  0.5257060000000  0.5832640000000 1.0
C      1  0.5008240000000  0.5249970000000  0.4173000000000 1.0
C      1  0.4738140000000  0.4976800000000  0.4162850000000 1.0
C      1  0.4978270000000  0.4161400000000  0.4737120000000 1.0
C      1  0.4162940000000  0.4735140000000  0.4976710000000 1.0
C      1  0.5255530000000  0.4988960000000  0.5825640000000 1.0
C      1  0.5251520000000  0.5006530000000  0.4171170000000 1.0
C      1  0.4741030000000  0.5014630000000  0.5831550000000 1.0
C      1  0.5008240000000  0.4171990000000  0.5250980000000 1.0
C      1  0.5016240000000  0.5829460000000  0.4746170000000 1.0
C      1  0.4978660000000  0.5831620000000  0.5258080000000 1.0
C      1  0.5833390000000  0.4739880000000  0.5014060000000 1.0
C      1  0.5835660000000  0.5253010000000  0.4980400000000 1.0
C      1  0.4170600000000  0.5248810000000  0.5006240000000 1.0
C      1  0.4243110000000  0.5325400000000  0.5120500000000 1.0
C      1  0.5122280000000  0.4245420000000  0.5326940000000 1.0
C      1  0.5327910000000  0.5120420000000  0.4244420000000 1.0
C      1  0.5756550000000  0.5329030000000  0.4869010000000 1.0
C      1  0.4239110000000  0.4660160000000  0.4864320000000 1.0
C      1  0.5754410000000  0.4664310000000  0.5125890000000 1.0
C      1  0.4865890000000  0.4237540000000  0.4662110000000 1.0
C      1  0.5128130000000  0.5750430000000  0.4671510000000 1.0
C      1  0.4865660000000  0.5754840000000  0.5332230000000 1.0
C      1  0.4665160000000  0.5125370000000  0.5752160000000 1.0
C      1  0.5332540000000  0.4875200000000  0.5752320000000 1.0
C      1  0.4663190000000  0.4864230000000  0.4238750000000 1.0
C      1  0.5122280000000  0.5325920000000  0.4246440000000 1.0
C      1  0.5327910000000  0.4243410000000  0.5121440000000 1.0
C      1  0.4243110000000  0.5119480000000  0.5326420000000 1.0
C      1  0.4865660000000  0.5331210000000  0.5755860000000 1.0
C      1  0.4865890000000  0.4661090000000  0.4238550000000 1.0
C      1  0.5128130000000  0.4670490000000  0.5751450000000 1.0
C      1  0.4663190000000  0.4237730000000  0.4865250000000 1.0
C      1  0.4665150000000  0.5751140000000  0.5126390000000 1.0
C      1  0.5332540000000  0.5751300000000  0.4876210000000 1.0
C      1  0.5754410000000  0.5124880000000  0.4665330000000 1.0
C      1  0.5756550000000  0.4868000000000  0.5330040000000 1.0
C      1  0.4239110000000  0.4863290000000  0.4661180000000 1.0
C      1  0.4723250000000  0.5604970000000  0.5605990000000 1.0
C      1  0.5606020000000  0.4734000000000  0.5604080000000 1.0
C      1  0.5266360000000  0.5601180000000  0.4395170000000 1.0
C      1  0.5266360000000  0.4394150000000  0.5602190000000 1.0
C      1  0.5601900000000  0.5261450000000  0.4390470000000 1.0
C      1  0.4388740000000  0.5599830000000  0.5262520000000 1.0
C      1  0.5601910000000  0.4389450000000  0.5262470000000 1.0
C      1  0.4388740000000  0.5261500000000  0.5600850000000 1.0
C      1  0.5606020000000  0.5603060000000  0.4735010000000 1.0
C      1  0.4723460000000  0.4385830000000  0.4386850000000 1.0
C      1  0.4387900000000  0.4721580000000  0.4386570000000 1.0
C      1  0.4387910000000  0.4385550000000  0.4722600000000 1.0
C      1  0.4573130000000  0.4571680000000  0.5504000000000 1.0
C      1  0.5505180000000  0.4569450000000  0.4570470000000 1.0
C      1  0.4573130000000  0.5502980000000  0.4572700000000 1.0
C      1  0.5509070000000  0.5426080000000  0.5427090000000 1.0
END
