TITL C-1379268-1316-68 -2.5826272575465e-07 1000000 -3974.67974711461 0 0 560 (Th) n - 1
REM
REM in /nfs/bkarasulu/CARBON/AIRSS/Generating-Clusters/GAP-ML-2020/Higher-Symm/Selected-Sizes/TryA-Only_Ih-Symm/Larger-Clusters/Try2-MINAMP_6A
REM
REM
REM
REM
REM
REM ./C.cell (31579ac4e95a012ec27f3239692ae8a5)
REM
REM compiler GCC version 9.2.1 20190827 (Red Hat 9.2.1-1)
REM options -cpp -mtune=generic -march=x86-64 -g -O0 -fpre-include=/usr/include/finclude/math-vector-fortran.h
REM seed 602465365 -350572674 37015944 -771187905 -839255657 1908733569 182844877 -587757885 -362705263 -1451183578 474236471 1309273707 -1773772156 1627199274 829221475 559394942 -1918997019 -2125316925 1870140453 -871208270 -618839385 1340058408 874543446 -19301506 1342964807 2021043562 464886757 1809010886 -1128097383 1755488617 204564802 -1381096455 -1345020431
REM
CELL 1.54180  100.00000  100.00000  100.00000   90.00000   90.00000   90.00000
LATT -1
SFAC C  
C      1  0.5812940000000  0.5200760000000  0.5189720000000 1.0
C      1  0.5200770000000  0.5188250000000  0.5814400000000 1.0
C      1  0.5188260000000  0.5812940000000  0.5202230000000 1.0
C      1  0.4184130000000  0.5200760000000  0.4810270000000 1.0
C      1  0.4184130000000  0.4796290000000  0.5189720000000 1.0
C      1  0.5812940000000  0.4796290000000  0.4810270000000 1.0
C      1  0.4796300000000  0.5188250000000  0.4185590000000 1.0
C      1  0.4796300000000  0.4808800000000  0.5814400000000 1.0
C      1  0.5200770000000  0.4808800000000  0.4185590000000 1.0
C      1  0.4808810000000  0.5812940000000  0.4797760000000 1.0
C      1  0.4808810000000  0.4184120000000  0.5202230000000 1.0
C      1  0.5188260000000  0.4184120000000  0.4797760000000 1.0
C      1  0.5812940000000  0.4796290000000  0.5189720000000 1.0
C      1  0.5200770000000  0.4808800000000  0.5814400000000 1.0
C      1  0.5188260000000  0.4184120000000  0.5202230000000 1.0
C      1  0.4184130000000  0.4796290000000  0.4810270000000 1.0
C      1  0.4184130000000  0.5200760000000  0.5189720000000 1.0
C      1  0.5812940000000  0.5200760000000  0.4810270000000 1.0
C      1  0.4796300000000  0.4808800000000  0.4185590000000 1.0
C      1  0.4796300000000  0.5188250000000  0.5814400000000 1.0
C      1  0.5200770000000  0.5188250000000  0.4185590000000 1.0
C      1  0.4808810000000  0.4184120000000  0.4797760000000 1.0
C      1  0.4808810000000  0.5812940000000  0.5202230000000 1.0
C      1  0.5188260000000  0.5812940000000  0.4797760000000 1.0
C      1  0.4616110000000  0.4302070000000  0.4545980000000 1.0
C      1  0.4302080000000  0.4544510000000  0.4617570000000 1.0
C      1  0.4544520000000  0.4616100000000  0.4303540000000 1.0
C      1  0.5380960000000  0.4302070000000  0.5454010000000 1.0
C      1  0.5380960000000  0.5694980000000  0.4545980000000 1.0
C      1  0.4616110000000  0.5694980000000  0.5454010000000 1.0
C      1  0.5694990000000  0.4544510000000  0.5382420000000 1.0
C      1  0.5694990000000  0.5452540000000  0.4617570000000 1.0
C      1  0.4302080000000  0.5452540000000  0.5382420000000 1.0
C      1  0.5452550000000  0.4616100000000  0.5696450000000 1.0
C      1  0.5452550000000  0.5380950000000  0.4303540000000 1.0
C      1  0.4544520000000  0.5380950000000  0.5696450000000 1.0
C      1  0.4616110000000  0.5694980000000  0.4545980000000 1.0
C      1  0.4302080000000  0.5452540000000  0.4617570000000 1.0
C      1  0.4544520000000  0.5380950000000  0.4303540000000 1.0
C      1  0.5380960000000  0.5694980000000  0.5454010000000 1.0
C      1  0.5380960000000  0.4302070000000  0.4545980000000 1.0
C      1  0.4616110000000  0.4302070000000  0.5454010000000 1.0
C      1  0.5694990000000  0.5452540000000  0.5382420000000 1.0
C      1  0.5694990000000  0.4544510000000  0.4617570000000 1.0
C      1  0.4302080000000  0.4544510000000  0.5382420000000 1.0
C      1  0.5452550000000  0.5380950000000  0.5696450000000 1.0
C      1  0.5452550000000  0.4616100000000  0.4303540000000 1.0
C      1  0.4544520000000  0.4616100000000  0.5696450000000 1.0
C      1  0.4649020000000  0.4817140000000  0.5845950000000 1.0
C      1  0.4817140000000  0.5844490000000  0.4650470000000 1.0
C      1  0.5844500000000  0.4649010000000  0.4818600000000 1.0
C      1  0.5348050000000  0.4817140000000  0.4154030000000 1.0
C      1  0.5348050000000  0.5179920000000  0.5845950000000 1.0
C      1  0.4649020000000  0.5179920000000  0.4154030000000 1.0
C      1  0.5179920000000  0.5844490000000  0.5349510000000 1.0
C      1  0.5179920000000  0.4152560000000  0.4650470000000 1.0
C      1  0.4817140000000  0.4152560000000  0.5349510000000 1.0
C      1  0.4152570000000  0.4649010000000  0.5181380000000 1.0
C      1  0.4152570000000  0.5348050000000  0.4818600000000 1.0
C      1  0.5844500000000  0.5348050000000  0.5181380000000 1.0
C      1  0.4649020000000  0.5179920000000  0.5845950000000 1.0
C      1  0.4817140000000  0.4152560000000  0.4650470000000 1.0
C      1  0.5844500000000  0.5348050000000  0.4818600000000 1.0
C      1  0.5348050000000  0.5179920000000  0.4154030000000 1.0
C      1  0.5348050000000  0.4817140000000  0.5845950000000 1.0
C      1  0.4649020000000  0.4817140000000  0.4154030000000 1.0
C      1  0.5179920000000  0.4152560000000  0.5349510000000 1.0
C      1  0.5179920000000  0.5844490000000  0.4650480000000 1.0
C      1  0.4817140000000  0.5844490000000  0.5349510000000 1.0
C      1  0.4152570000000  0.5348050000000  0.5181380000000 1.0
C      1  0.4152570000000  0.4649010000000  0.4818600000000 1.0
C      1  0.5844500000000  0.4649010000000  0.5181380000000 1.0
C      1  0.5481620000000  0.5724050000000  0.5354780000000 1.0
C      1  0.5724050000000  0.5353310000000  0.5483080000000 1.0
C      1  0.5353320000000  0.5481620000000  0.5725510000000 1.0
C      1  0.4515440000000  0.5724050000000  0.4645210000000 1.0
C      1  0.4515440000000  0.4273000000000  0.5354780000000 1.0
C      1  0.5481620000000  0.4273000000000  0.4645210000000 1.0
C      1  0.4273010000000  0.5353310000000  0.4516910000000 1.0
C      1  0.4273010000000  0.4643740000000  0.5483080000000 1.0
C      1  0.5724050000000  0.4643740000000  0.4516910000000 1.0
C      1  0.4643750000000  0.5481620000000  0.4274470000000 1.0
C      1  0.4643750000000  0.4515440000000  0.5725510000000 1.0
C      1  0.5353320000000  0.4515440000000  0.4274470000000 1.0
C      1  0.5481620000000  0.4273000000000  0.5354780000000 1.0
C      1  0.5724050000000  0.4643740000000  0.5483080000000 1.0
C      1  0.5353320000000  0.4515440000000  0.5725510000000 1.0
C      1  0.4515440000000  0.4273000000000  0.4645210000000 1.0
C      1  0.4515440000000  0.5724050000000  0.5354780000000 1.0
C      1  0.5481620000000  0.5724050000000  0.4645210000000 1.0
C      1  0.4273010000000  0.4643740000000  0.4516910000000 1.0
C      1  0.4273010000000  0.5353310000000  0.5483080000000 1.0
C      1  0.5724050000000  0.5353310000000  0.4516910000000 1.0
C      1  0.4643750000000  0.4515440000000  0.4274470000000 1.0
C      1  0.4643750000000  0.5481620000000  0.5725510000000 1.0
C      1  0.5353320000000  0.5481620000000  0.4274470000000 1.0
C      1  0.5296950000000  0.4922370000000  0.5612080000000 1.0
C      1  0.4922380000000  0.5610620000000  0.5298420000000 1.0
C      1  0.5610620000000  0.5296950000000  0.4923840000000 1.0
C      1  0.4700110000000  0.4922370000000  0.4387910000000 1.0
C      1  0.4700110000000  0.5074680000000  0.5612080000000 1.0
C      1  0.5296950000000  0.5074680000000  0.4387910000000 1.0
C      1  0.5074690000000  0.5610620000000  0.4701570000000 1.0
C      1  0.5074690000000  0.4386430000000  0.5298420000000 1.0
C      1  0.4922380000000  0.4386430000000  0.4701570000000 1.0
C      1  0.4386450000000  0.5296950000000  0.5076150000000 1.0
C      1  0.4386450000000  0.4700100000000  0.4923840000000 1.0
C      1  0.5610620000000  0.4700100000000  0.5076150000000 1.0
C      1  0.5296950000000  0.5074680000000  0.5612080000000 1.0
C      1  0.4922380000000  0.4386430000000  0.5298420000000 1.0
C      1  0.5610620000000  0.4700100000000  0.4923840000000 1.0
C      1  0.4700110000000  0.5074680000000  0.4387910000000 1.0
C      1  0.4700110000000  0.4922370000000  0.5612080000000 1.0
C      1  0.5296950000000  0.4922370000000  0.4387910000000 1.0
C      1  0.5074690000000  0.4386430000000  0.4701570000000 1.0
C      1  0.5074690000000  0.5610620000000  0.5298420000000 1.0
C      1  0.4922380000000  0.5610620000000  0.4701570000000 1.0
C      1  0.4386450000000  0.4700100000000  0.5076150000000 1.0
C      1  0.4386450000000  0.5296950000000  0.4923840000000 1.0
C      1  0.5610620000000  0.5296950000000  0.5076150000000 1.0
C      1  0.4739100000000  0.5150740000000  0.5499590000000 1.0
C      1  0.5150740000000  0.5498130000000  0.4740560000000 1.0
C      1  0.5498130000000  0.4739090000000  0.5152210000000 1.0
C      1  0.5257970000000  0.5150740000000  0.4500400000000 1.0
C      1  0.5257970000000  0.4846310000000  0.5499590000000 1.0
C      1  0.4739100000000  0.4846310000000  0.4500400000000 1.0
C      1  0.4846320000000  0.5498130000000  0.5259430000000 1.0
C      1  0.4846320000000  0.4498920000000  0.4740560000000 1.0
C      1  0.5150740000000  0.4498920000000  0.5259430000000 1.0
C      1  0.4498940000000  0.4739090000000  0.4847780000000 1.0
C      1  0.4498940000000  0.5257960000000  0.5152210000000 1.0
C      1  0.5498130000000  0.5257960000000  0.4847780000000 1.0
C      1  0.4739100000000  0.4846310000000  0.5499590000000 1.0
C      1  0.5150740000000  0.4498920000000  0.4740560000000 1.0
C      1  0.5498130000000  0.5257960000000  0.5152210000000 1.0
C      1  0.5257970000000  0.4846310000000  0.4500400000000 1.0
C      1  0.5257970000000  0.5150740000000  0.5499590000000 1.0
C      1  0.4739100000000  0.5150740000000  0.4500400000000 1.0
C      1  0.4846320000000  0.4498920000000  0.5259430000000 1.0
C      1  0.4846320000000  0.5498130000000  0.4740560000000 1.0
C      1  0.5150740000000  0.5498130000000  0.5259430000000 1.0
C      1  0.4498940000000  0.5257960000000  0.4847780000000 1.0
C      1  0.4498940000000  0.4739090000000  0.5152200000000 1.0
C      1  0.5498130000000  0.4739090000000  0.4847780000000 1.0
C      1  0.5541500000000  0.5625690000000  0.4719120000000 1.0
C      1  0.5625690000000  0.4717650000000  0.5542960000000 1.0
C      1  0.4717650000000  0.5541490000000  0.5627150000000 1.0
C      1  0.4455570000000  0.5625690000000  0.5280870000000 1.0
C      1  0.4455570000000  0.4371370000000  0.4719120000000 1.0
C      1  0.5541500000000  0.4371370000000  0.5280870000000 1.0
C      1  0.4371380000000  0.4717650000000  0.4457030000000 1.0
C      1  0.4371380000000  0.5279410000000  0.5542960000000 1.0
C      1  0.5625690000000  0.5279410000000  0.4457030000000 1.0
C      1  0.5279410000000  0.5541490000000  0.4372840000000 1.0
C      1  0.5279410000000  0.4455560000000  0.5627150000000 1.0
C      1  0.4717650000000  0.4455560000000  0.4372840000000 1.0
C      1  0.5541500000000  0.4371370000000  0.4719120000000 1.0
C      1  0.5625690000000  0.5279410000000  0.5542960000000 1.0
C      1  0.4717650000000  0.4455560000000  0.5627150000000 1.0
C      1  0.4455570000000  0.4371370000000  0.5280870000000 1.0
C      1  0.4455570000000  0.5625690000000  0.4719120000000 1.0
C      1  0.5541500000000  0.5625690000000  0.5280870000000 1.0
C      1  0.4371380000000  0.5279410000000  0.4457030000000 1.0
C      1  0.4371380000000  0.4717650000000  0.5542960000000 1.0
C      1  0.5625690000000  0.4717650000000  0.4457030000000 1.0
C      1  0.5279410000000  0.4455560000000  0.4372840000000 1.0
C      1  0.5279410000000  0.5541490000000  0.5627150000000 1.0
C      1  0.4717650000000  0.5541490000000  0.4372840000000 1.0
C      1  0.5523230000000  0.5642350000000  0.5141340000000 1.0
C      1  0.5642360000000  0.5139870000000  0.5524690000000 1.0
C      1  0.5139880000000  0.5523230000000  0.5643820000000 1.0
C      1  0.4473830000000  0.5642350000000  0.4858650000000 1.0
C      1  0.4473830000000  0.4354700000000  0.5141340000000 1.0
C      1  0.5523230000000  0.4354700000000  0.4858650000000 1.0
C      1  0.4354710000000  0.5139870000000  0.4475300000000 1.0
C      1  0.4354710000000  0.4857180000000  0.5524690000000 1.0
C      1  0.5642360000000  0.4857180000000  0.4475300000000 1.0
C      1  0.4857190000000  0.5523230000000  0.4356170000000 1.0
C      1  0.4857190000000  0.4473820000000  0.5643820000000 1.0
C      1  0.5139880000000  0.4473820000000  0.4356170000000 1.0
C      1  0.5523230000000  0.4354700000000  0.5141340000000 1.0
C      1  0.5642360000000  0.4857180000000  0.5524690000000 1.0
C      1  0.5139880000000  0.4473820000000  0.5643820000000 1.0
C      1  0.4473830000000  0.4354700000000  0.4858650000000 1.0
C      1  0.4473830000000  0.5642350000000  0.5141340000000 1.0
C      1  0.5523230000000  0.5642350000000  0.4858650000000 1.0
C      1  0.4354710000000  0.4857180000000  0.4475300000000 1.0
C      1  0.4354710000000  0.5139870000000  0.5524690000000 1.0
C      1  0.5642360000000  0.5139870000000  0.4475300000000 1.0
C      1  0.4857190000000  0.4473830000000  0.4356170000000 1.0
C      1  0.4857190000000  0.5523230000000  0.5643820000000 1.0
C      1  0.5139880000000  0.5523230000000  0.4356170000000 1.0
C      1  0.4691370000000  0.4186720000000  0.4596540000000 1.0
C      1  0.4186730000000  0.4595070000000  0.4692830000000 1.0
C      1  0.4595080000000  0.4691360000000  0.4188190000000 1.0
C      1  0.5305700000000  0.4186720000000  0.5403450000000 1.0
C      1  0.5305700000000  0.5810330000000  0.4596540000000 1.0
C      1  0.4691370000000  0.5810330000000  0.5403450000000 1.0
C      1  0.5810330000000  0.4595070000000  0.5307160000000 1.0
C      1  0.5810330000000  0.5401980000000  0.4692830000000 1.0
C      1  0.4186730000000  0.5401980000000  0.5307160000000 1.0
C      1  0.5401990000000  0.4691360000000  0.5811790000000 1.0
C      1  0.5401990000000  0.5305690000000  0.4188190000000 1.0
C      1  0.4595080000000  0.5305690000000  0.5811790000000 1.0
C      1  0.4691370000000  0.5810330000000  0.4596540000000 1.0
C      1  0.4186730000000  0.5401980000000  0.4692830000000 1.0
C      1  0.4595080000000  0.5305690000000  0.4188190000000 1.0
C      1  0.5305700000000  0.5810330000000  0.5403450000000 1.0
C      1  0.5305700000000  0.4186720000000  0.4596540000000 1.0
C      1  0.4691370000000  0.4186720000000  0.5403450000000 1.0
C      1  0.5810330000000  0.5401980000000  0.5307160000000 1.0
C      1  0.5810330000000  0.4595070000000  0.4692830000000 1.0
C      1  0.4186730000000  0.4595070000000  0.5307160000000 1.0
C      1  0.5401990000000  0.5305690000000  0.5811790000000 1.0
C      1  0.5401990000000  0.4691360000000  0.4188190000000 1.0
C      1  0.4595080000000  0.4691360000000  0.5811790000000 1.0
C      1  0.4575370000000  0.4930600000000  0.5806020000000 1.0
C      1  0.4930610000000  0.5804560000000  0.4576830000000 1.0
C      1  0.5804560000000  0.4575360000000  0.4932070000000 1.0
C      1  0.5421700000000  0.4930600000000  0.4193970000000 1.0
C      1  0.5421700000000  0.5066450000000  0.5806020000000 1.0
C      1  0.4575370000000  0.5066450000000  0.4193970000000 1.0
C      1  0.5066460000000  0.5804560000000  0.5423160000000 1.0
C      1  0.5066460000000  0.4192500000000  0.4576830000000 1.0
C      1  0.4930610000000  0.4192500000000  0.5423160000000 1.0
C      1  0.4192510000000  0.4575360000000  0.5067920000000 1.0
C      1  0.4192510000000  0.5421690000000  0.4932070000000 1.0
C      1  0.5804560000000  0.5421690000000  0.5067920000000 1.0
C      1  0.4575370000000  0.5066450000000  0.5806020000000 1.0
C      1  0.4930610000000  0.4192500000000  0.4576830000000 1.0
C      1  0.5804560000000  0.5421690000000  0.4932070000000 1.0
C      1  0.5421700000000  0.5066450000000  0.4193970000000 1.0
C      1  0.5421700000000  0.4930600000000  0.5806020000000 1.0
C      1  0.4575370000000  0.4930600000000  0.4193970000000 1.0
C      1  0.5066460000000  0.4192500000000  0.5423160000000 1.0
C      1  0.5066460000000  0.5804560000000  0.4576830000000 1.0
C      1  0.4930610000000  0.5804560000000  0.5423160000000 1.0
C      1  0.4192510000000  0.5421690000000  0.5067920000000 1.0
C      1  0.4192510000000  0.4575360000000  0.4932070000000 1.0
C      1  0.5804560000000  0.4575360000000  0.5067920000000 1.0
C      1  0.5169440000000  0.5269970000000  0.4735150000000 1.0
C      1  0.5269970000000  0.4733680000000  0.5170900000000 1.0
C      1  0.4733690000000  0.5169450000000  0.5271430000000 1.0
C      1  0.4827620000000  0.5269970000000  0.5264830000000 1.0
C      1  0.4827620000000  0.4727080000000  0.4735150000000 1.0
C      1  0.5169440000000  0.4727080000000  0.5264840000000 1.0
C      1  0.4727090000000  0.4733680000000  0.4829090000000 1.0
C      1  0.4727090000000  0.5263380000000  0.5170900000000 1.0
C      1  0.5269970000000  0.5263380000000  0.4829080000000 1.0
C      1  0.5263370000000  0.5169450000000  0.4728550000000 1.0
C      1  0.5263370000000  0.4827610000000  0.5271430000000 1.0
C      1  0.4733690000000  0.4827610000000  0.4728560000000 1.0
C      1  0.5169440000000  0.4727080000000  0.4735150000000 1.0
C      1  0.5269970000000  0.5263380000000  0.5170900000000 1.0
C      1  0.4733690000000  0.4827610000000  0.5271430000000 1.0
C      1  0.4827620000000  0.4727080000000  0.5264840000000 1.0
C      1  0.4827620000000  0.5269970000000  0.4735150000000 1.0
C      1  0.5169440000000  0.5269970000000  0.5264840000000 1.0
C      1  0.4727090000000  0.5263380000000  0.4829090000000 1.0
C      1  0.4727090000000  0.4733670000000  0.5170900000000 1.0
C      1  0.5269970000000  0.4733680000000  0.4829080000000 1.0
C      1  0.5263370000000  0.4827610000000  0.4728550000000 1.0
C      1  0.5263370000000  0.5169450000000  0.5271430000000 1.0
C      1  0.4733690000000  0.5169450000000  0.4728560000000 1.0
C      1  0.5730640000000  0.4924670000000  0.4574220000000 1.0
C      1  0.4924670000000  0.4572750000000  0.5732100000000 1.0
C      1  0.4572760000000  0.5730630000000  0.4926130000000 1.0
C      1  0.4266430000000  0.4924670000000  0.5425770000000 1.0
C      1  0.4266430000000  0.5072390000000  0.4574220000000 1.0
C      1  0.5730640000000  0.5072390000000  0.5425770000000 1.0
C      1  0.5072390000000  0.4572750000000  0.4267890000000 1.0
C      1  0.5072390000000  0.5424300000000  0.5732100000000 1.0
C      1  0.4924670000000  0.5424300000000  0.4267890000000 1.0
C      1  0.5424310000000  0.5730630000000  0.5073850000000 1.0
C      1  0.5424310000000  0.4266420000000  0.4926130000000 1.0
C      1  0.4572760000000  0.4266420000000  0.5073850000000 1.0
C      1  0.5730640000000  0.5072390000000  0.4574220000000 1.0
C      1  0.4924670000000  0.5424300000000  0.5732100000000 1.0
C      1  0.4572760000000  0.4266420000000  0.4926130000000 1.0
C      1  0.4266430000000  0.5072390000000  0.5425770000000 1.0
C      1  0.4266430000000  0.4924670000000  0.4574220000000 1.0
C      1  0.5730640000000  0.4924670000000  0.5425770000000 1.0
C      1  0.5072390000000  0.5424300000000  0.4267890000000 1.0
C      1  0.5072390000000  0.4572750000000  0.5732100000000 1.0
C      1  0.4924670000000  0.4572750000000  0.4267890000000 1.0
C      1  0.5424310000000  0.4266420000000  0.5073850000000 1.0
C      1  0.5424310000000  0.5730630000000  0.4926130000000 1.0
C      1  0.4572760000000  0.5730630000000  0.5073850000000 1.0
C      1  0.5618800000000  0.4931510000000  0.5143050000000 1.0
C      1  0.4931520000000  0.5141580000000  0.5620260000000 1.0
C      1  0.5141590000000  0.5618800000000  0.4932980000000 1.0
C      1  0.4378270000000  0.4931510000000  0.4856940000000 1.0
C      1  0.4378270000000  0.5065540000000  0.5143050000000 1.0
C      1  0.5618800000000  0.5065540000000  0.4856940000000 1.0
C      1  0.5065550000000  0.5141580000000  0.4379730000000 1.0
C      1  0.5065550000000  0.4855470000000  0.5620260000000 1.0
C      1  0.4931520000000  0.4855470000000  0.4379730000000 1.0
C      1  0.4855480000000  0.5618800000000  0.5067010000000 1.0
C      1  0.4855480000000  0.4378260000000  0.4932980000000 1.0
C      1  0.5141590000000  0.4378260000000  0.5067010000000 1.0
C      1  0.5618800000000  0.5065540000000  0.5143050000000 1.0
C      1  0.4931520000000  0.4855470000000  0.5620260000000 1.0
C      1  0.5141590000000  0.4378260000000  0.4932980000000 1.0
C      1  0.4378270000000  0.5065540000000  0.4856940000000 1.0
C      1  0.4378270000000  0.4931510000000  0.5143050000000 1.0
C      1  0.5618800000000  0.4931510000000  0.4856940000000 1.0
C      1  0.5065550000000  0.4855470000000  0.4379730000000 1.0
C      1  0.5065550000000  0.5141580000000  0.5620260000000 1.0
C      1  0.4931520000000  0.5141580000000  0.4379730000000 1.0
C      1  0.4855480000000  0.4378260000000  0.5067010000000 1.0
C      1  0.4855480000000  0.5618800000000  0.4932980000000 1.0
C      1  0.5141590000000  0.5618800000000  0.5067010000000 1.0
C      1  0.5433150000000  0.5110190000000  0.5665300000000 1.0
C      1  0.5110190000000  0.5663840000000  0.5434610000000 1.0
C      1  0.5663840000000  0.5433140000000  0.5111650000000 1.0
C      1  0.4563920000000  0.5110190000000  0.4334690000000 1.0
C      1  0.4563920000000  0.4886870000000  0.5665290000000 1.0
C      1  0.5433150000000  0.4886870000000  0.4334690000000 1.0
C      1  0.4886870000000  0.5663830000000  0.4565380000000 1.0
C      1  0.4886870000000  0.4333220000000  0.5434610000000 1.0
C      1  0.5110190000000  0.4333220000000  0.4565380000000 1.0
C      1  0.4333230000000  0.5433140000000  0.4888340000000 1.0
C      1  0.4333230000000  0.4563910000000  0.5111650000000 1.0
C      1  0.5663840000000  0.4563910000000  0.4888340000000 1.0
C      1  0.5433150000000  0.4886870000000  0.5665290000000 1.0
C      1  0.5110190000000  0.4333220000000  0.5434610000000 1.0
C      1  0.5663840000000  0.4563910000000  0.5111650000000 1.0
C      1  0.4563920000000  0.4886870000000  0.4334690000000 1.0
C      1  0.4563920000000  0.5110190000000  0.5665290000000 1.0
C      1  0.5433150000000  0.5110190000000  0.4334690000000 1.0
C      1  0.4886870000000  0.4333220000000  0.4565380000000 1.0
C      1  0.4886870000000  0.5663840000000  0.5434610000000 1.0
C      1  0.5110190000000  0.5663840000000  0.4565380000000 1.0
C      1  0.4333230000000  0.4563910000000  0.4888340000000 1.0
C      1  0.4333230000000  0.5433140000000  0.5111650000000 1.0
C      1  0.5663840000000  0.5433140000000  0.4888340000000 1.0
C      1  0.4590660000000  0.5310130000000  0.5426710000000 1.0
C      1  0.5310140000000  0.5425240000000  0.4592120000000 1.0
C      1  0.5425250000000  0.4590650000000  0.5311600000000 1.0
C      1  0.5406400000000  0.5310130000000  0.4573280000000 1.0
C      1  0.5406400000000  0.4686920000000  0.5426710000000 1.0
C      1  0.4590660000000  0.4686920000000  0.4573280000000 1.0
C      1  0.4686930000000  0.5425240000000  0.5407870000000 1.0
C      1  0.4686930000000  0.4571810000000  0.4592120000000 1.0
C      1  0.5310140000000  0.4571810000000  0.5407870000000 1.0
C      1  0.4571820000000  0.4590650000000  0.4688390000000 1.0
C      1  0.4571820000000  0.5406400000000  0.5311600000000 1.0
C      1  0.5425250000000  0.5406400000000  0.4688390000000 1.0
C      1  0.4590660000000  0.4686920000000  0.5426710000000 1.0
C      1  0.5310140000000  0.4571810000000  0.4592120000000 1.0
C      1  0.5425250000000  0.5406400000000  0.5311600000000 1.0
C      1  0.5406400000000  0.4686920000000  0.4573280000000 1.0
C      1  0.5406400000000  0.5310130000000  0.5426710000000 1.0
C      1  0.4590660000000  0.5310130000000  0.4573280000000 1.0
C      1  0.4686930000000  0.4571810000000  0.5407870000000 1.0
C      1  0.4686930000000  0.5425240000000  0.4592120000000 1.0
C      1  0.5310140000000  0.5425240000000  0.5407870000000 1.0
C      1  0.4571820000000  0.5406400000000  0.4688390000000 1.0
C      1  0.4571820000000  0.4590650000000  0.5311600000000 1.0
C      1  0.5425250000000  0.4590650000000  0.4688390000000 1.0
C      1  0.5082580000000  0.5712890000000  0.5164870000000 1.0
C      1  0.5712890000000  0.5163400000000  0.5084040000000 1.0
C      1  0.5163410000000  0.5082570000000  0.5714350000000 1.0
C      1  0.4914490000000  0.5712890000000  0.4835120000000 1.0
C      1  0.4914490000000  0.4284160000000  0.5164870000000 1.0
C      1  0.5082580000000  0.4284160000000  0.4835120000000 1.0
C      1  0.4284170000000  0.5163400000000  0.4915950000000 1.0
C      1  0.4284170000000  0.4833650000000  0.5084040000000 1.0
C      1  0.5712890000000  0.4833650000000  0.4915950000000 1.0
C      1  0.4833660000000  0.5082570000000  0.4285640000000 1.0
C      1  0.4833660000000  0.4914480000000  0.5714350000000 1.0
C      1  0.5163410000000  0.4914480000000  0.4285630000000 1.0
C      1  0.5082580000000  0.4284160000000  0.5164870000000 1.0
C      1  0.5712890000000  0.4833650000000  0.5084040000000 1.0
C      1  0.5163410000000  0.4914480000000  0.5714350000000 1.0
C      1  0.4914490000000  0.4284160000000  0.4835120000000 1.0
C      1  0.4914490000000  0.5712890000000  0.5164870000000 1.0
C      1  0.5082580000000  0.5712890000000  0.4835120000000 1.0
C      1  0.4284170000000  0.4833650000000  0.4915950000000 1.0
C      1  0.4284170000000  0.5163400000000  0.5084040000000 1.0
C      1  0.5712890000000  0.5163400000000  0.4915950000000 1.0
C      1  0.4833660000000  0.4914480000000  0.4285640000000 1.0
C      1  0.4833660000000  0.5082570000000  0.5714350000000 1.0
C      1  0.5163410000000  0.5082570000000  0.4285630000000 1.0
C      1  0.4866310000000  0.5208620000000  0.5514820000000 1.0
C      1  0.5208630000000  0.5513350000000  0.4867770000000 1.0
C      1  0.5513350000000  0.4866310000000  0.5210090000000 1.0
C      1  0.5130750000000  0.5208620000000  0.4485170000000 1.0
C      1  0.5130750000000  0.4788430000000  0.5514820000000 1.0
C      1  0.4866310000000  0.4788430000000  0.4485170000000 1.0
C      1  0.4788440000000  0.5513360000000  0.5132210000000 1.0
C      1  0.4788440000000  0.4483700000000  0.4867770000000 1.0
C      1  0.5208630000000  0.4483700000000  0.5132210000000 1.0
C      1  0.4483710000000  0.4866310000000  0.4789900000000 1.0
C      1  0.4483710000000  0.5130750000000  0.5210090000000 1.0
C      1  0.5513350000000  0.5130750000000  0.4789900000000 1.0
C      1  0.4866310000000  0.4788430000000  0.5514820000000 1.0
C      1  0.5208630000000  0.4483700000000  0.4867770000000 1.0
C      1  0.5513350000000  0.5130750000000  0.5210090000000 1.0
C      1  0.5130750000000  0.4788430000000  0.4485170000000 1.0
C      1  0.5130750000000  0.5208620000000  0.5514820000000 1.0
C      1  0.4866310000000  0.5208620000000  0.4485170000000 1.0
C      1  0.4788440000000  0.4483700000000  0.5132210000000 1.0
C      1  0.4788440000000  0.5513360000000  0.4867770000000 1.0
C      1  0.5208630000000  0.5513360000000  0.5132210000000 1.0
C      1  0.4483710000000  0.5130750000000  0.4789900000000 1.0
C      1  0.4483710000000  0.4866310000000  0.5210090000000 1.0
C      1  0.5513350000000  0.4866310000000  0.4789900000000 1.0
C      1  0.5802220000000  0.5165450000000  0.4663760000000 1.0
C      1  0.5165450000000  0.4662290000000  0.5803680000000 1.0
C      1  0.4662300000000  0.5802220000000  0.5166910000000 1.0
C      1  0.4194840000000  0.5165450000000  0.5336230000000 1.0
C      1  0.4194840000000  0.4831610000000  0.4663760000000 1.0
C      1  0.5802220000000  0.4831610000000  0.5336230000000 1.0
C      1  0.4831610000000  0.4662290000000  0.4196310000000 1.0
C      1  0.4831620000000  0.5334760000000  0.5803680000000 1.0
C      1  0.5165450000000  0.5334760000000  0.4196310000000 1.0
C      1  0.5334770000000  0.5802220000000  0.4833080000000 1.0
C      1  0.5334770000000  0.4194830000000  0.5166910000000 1.0
C      1  0.4662300000000  0.4194830000000  0.4833080000000 1.0
C      1  0.5802220000000  0.4831610000000  0.4663760000000 1.0
C      1  0.5165450000000  0.5334760000000  0.5803680000000 1.0
C      1  0.4662300000000  0.4194830000000  0.5166910000000 1.0
C      1  0.4194840000000  0.4831610000000  0.5336230000000 1.0
C      1  0.4194840000000  0.5165450000000  0.4663760000000 1.0
C      1  0.5802220000000  0.5165450000000  0.5336230000000 1.0
C      1  0.4831610000000  0.5334760000000  0.4196310000000 1.0
C      1  0.4831620000000  0.4662290000000  0.5803680000000 1.0
C      1  0.5165450000000  0.4662290000000  0.4196310000000 1.0
C      1  0.5334770000000  0.4194830000000  0.4833080000000 1.0
C      1  0.5334770000000  0.5802220000000  0.5166910000000 1.0
C      1  0.4662300000000  0.5802220000000  0.4833080000000 1.0
C      1  0.5437160000000  0.4927040000000  0.4684780000000 1.0
C      1  0.4927040000000  0.4683310000000  0.5438620000000 1.0
C      1  0.4683320000000  0.5437160000000  0.4928500000000 1.0
C      1  0.4559900000000  0.4927040000000  0.5315210000000 1.0
C      1  0.4559900000000  0.5070020000000  0.4684780000000 1.0
C      1  0.5437160000000  0.5070020000000  0.5315210000000 1.0
C      1  0.5070020000000  0.4683310000000  0.4561360000000 1.0
C      1  0.5070020000000  0.5313750000000  0.5438620000000 1.0
C      1  0.4927040000000  0.5313750000000  0.4561360000000 1.0
C      1  0.5313750000000  0.5437160000000  0.5071480000000 1.0
C      1  0.5313750000000  0.4559890000000  0.4928500000000 1.0
C      1  0.4683320000000  0.4559890000000  0.5071480000000 1.0
C      1  0.5437160000000  0.5070020000000  0.4684780000000 1.0
C      1  0.4927040000000  0.5313750000000  0.5438620000000 1.0
C      1  0.4683320000000  0.4559890000000  0.4928500000000 1.0
C      1  0.4559900000000  0.5070020000000  0.5315210000000 1.0
C      1  0.4559900000000  0.4927040000000  0.4684780000000 1.0
C      1  0.5437160000000  0.4927040000000  0.5315210000000 1.0
C      1  0.5070020000000  0.5313750000000  0.4561360000000 1.0
C      1  0.5070020000000  0.4683310000000  0.5438620000000 1.0
C      1  0.4927040000000  0.4683310000000  0.4561360000000 1.0
C      1  0.5313750000000  0.4559890000000  0.5071480000000 1.0
C      1  0.5313750000000  0.5437160000000  0.4928500000000 1.0
C      1  0.4683320000000  0.5437160000000  0.5071480000000 1.0
C      1  0.5546060000000  0.5066360000000  0.4406650000000 1.0
C      1  0.5066370000000  0.4405180000000  0.5547530000000 1.0
C      1  0.4405190000000  0.5546060000000  0.5067830000000 1.0
C      1  0.4451000000000  0.5066360000000  0.5593330000000 1.0
C      1  0.4451000000000  0.4930690000000  0.4406650000000 1.0
C      1  0.5546060000000  0.4930690000000  0.5593330000000 1.0
C      1  0.4930700000000  0.4405180000000  0.4452460000000 1.0
C      1  0.4930700000000  0.5591870000000  0.5547530000000 1.0
C      1  0.5066370000000  0.5591870000000  0.4452460000000 1.0
C      1  0.5591880000000  0.5546060000000  0.4932160000000 1.0
C      1  0.5591880000000  0.4450990000000  0.5067830000000 1.0
C      1  0.4405190000000  0.4450990000000  0.4932160000000 1.0
C      1  0.5546060000000  0.4930690000000  0.4406650000000 1.0
C      1  0.5066370000000  0.5591870000000  0.5547530000000 1.0
C      1  0.4405190000000  0.4450990000000  0.5067830000000 1.0
C      1  0.4451000000000  0.4930690000000  0.5593330000000 1.0
C      1  0.4451000000000  0.5066360000000  0.4406650000000 1.0
C      1  0.5546060000000  0.5066360000000  0.5593340000000 1.0
C      1  0.4930700000000  0.5591870000000  0.4452460000000 1.0
C      1  0.4930700000000  0.4405180000000  0.5547530000000 1.0
C      1  0.5066370000000  0.4405180000000  0.4452460000000 1.0
C      1  0.5591870000000  0.4450990000000  0.4932160000000 1.0
C      1  0.5591880000000  0.5546060000000  0.5067830000000 1.0
C      1  0.4405190000000  0.5546060000000  0.4932160000000 1.0
C      1  0.5355220000000  0.4446190000000  0.5497340000000 1.0
C      1  0.4446200000000  0.5495870000000  0.5356680000000 1.0
C      1  0.5495880000000  0.5355210000000  0.4447660000000 1.0
C      1  0.4641850000000  0.4446190000000  0.4502650000000 1.0
C      1  0.4641850000000  0.5550860000000  0.5497340000000 1.0
C      1  0.5355220000000  0.5550860000000  0.4502650000000 1.0
C      1  0.5550860000000  0.5495870000000  0.4643310000000 1.0
C      1  0.5550860000000  0.4501180000000  0.5356680000000 1.0
C      1  0.4446200000000  0.4501180000000  0.4643310000000 1.0
C      1  0.4501190000000  0.5355210000000  0.5552320000000 1.0
C      1  0.4501190000000  0.4641840000000  0.4447660000000 1.0
C      1  0.5495880000000  0.4641840000000  0.5552320000000 1.0
C      1  0.5355220000000  0.5550860000000  0.5497340000000 1.0
C      1  0.4446200000000  0.4501180000000  0.5356680000000 1.0
C      1  0.5495880000000  0.4641840000000  0.4447660000000 1.0
C      1  0.4641850000000  0.5550860000000  0.4502650000000 1.0
C      1  0.4641850000000  0.4446190000000  0.5497340000000 1.0
C      1  0.5355220000000  0.4446190000000  0.4502650000000 1.0
C      1  0.5550860000000  0.4501180000000  0.4643310000000 1.0
C      1  0.5550860000000  0.5495870000000  0.5356680000000 1.0
C      1  0.4446200000000  0.5495870000000  0.4643310000000 1.0
C      1  0.4501190000000  0.4641840000000  0.5552320000000 1.0
C      1  0.4501190000000  0.5355210000000  0.4447660000000 1.0
C      1  0.5495880000000  0.5355210000000  0.5552320000000 1.0
C      1  0.4606250000000  0.5355520000000  0.5171930000000 1.0
C      1  0.5355520000000  0.5170470000000  0.4607720000000 1.0
C      1  0.5170470000000  0.4606240000000  0.5356980000000 1.0
C      1  0.5390810000000  0.5355520000000  0.4828060000000 1.0
C      1  0.5390810000000  0.4641540000000  0.5171930000000 1.0
C      1  0.4606260000000  0.4641540000000  0.4828060000000 1.0
C      1  0.4641550000000  0.5170470000000  0.5392270000000 1.0
C      1  0.4641550000000  0.4826590000000  0.4607720000000 1.0
C      1  0.5355520000000  0.4826590000000  0.5392270000000 1.0
C      1  0.4826590000000  0.4606250000000  0.4643010000000 1.0
C      1  0.4826590000000  0.5390810000000  0.5356980000000 1.0
C      1  0.5170470000000  0.5390810000000  0.4643010000000 1.0
C      1  0.4606260000000  0.4641540000000  0.5171930000000 1.0
C      1  0.5355520000000  0.4826590000000  0.4607720000000 1.0
C      1  0.5170470000000  0.5390810000000  0.5356980000000 1.0
C      1  0.5390810000000  0.4641540000000  0.4828060000000 1.0
C      1  0.5390810000000  0.5355520000000  0.5171930000000 1.0
C      1  0.4606260000000  0.5355520000000  0.4828060000000 1.0
C      1  0.4641550000000  0.4826590000000  0.5392270000000 1.0
C      1  0.4641550000000  0.5170470000000  0.4607720000000 1.0
C      1  0.5355520000000  0.5170470000000  0.5392270000000 1.0
C      1  0.4826590000000  0.5390810000000  0.4643010000000 1.0
C      1  0.4826590000000  0.4606240000000  0.5356980000000 1.0
C      1  0.5170470000000  0.4606240000000  0.4643010000000 1.0
C      1  0.4706660000000  0.4596680000000  0.5826270000000 1.0
C      1  0.4596680000000  0.5824810000000  0.4708120000000 1.0
C      1  0.5824810000000  0.4706650000000  0.4598150000000 1.0
C      1  0.5290410000000  0.4596680000000  0.4173720000000 1.0
C      1  0.5290410000000  0.5400380000000  0.5826270000000 1.0
C      1  0.4706660000000  0.5400380000000  0.4173720000000 1.0
C      1  0.5400380000000  0.5824810000000  0.5291870000000 1.0
C      1  0.5400380000000  0.4172240000000  0.4708120000000 1.0
C      1  0.4596680000000  0.4172240000000  0.5291870000000 1.0
C      1  0.4172250000000  0.4706650000000  0.5401840000000 1.0
C      1  0.4172250000000  0.5290400000000  0.4598150000000 1.0
C      1  0.5824810000000  0.5290400000000  0.5401840000000 1.0
C      1  0.4706660000000  0.5400380000000  0.5826270000000 1.0
C      1  0.4596680000000  0.4172240000000  0.4708120000000 1.0
C      1  0.5824810000000  0.5290400000000  0.4598150000000 1.0
C      1  0.5290410000000  0.5400380000000  0.4173720000000 1.0
C      1  0.5290410000000  0.4596680000000  0.5826270000000 1.0
C      1  0.4706660000000  0.4596680000000  0.4173720000000 1.0
C      1  0.5400380000000  0.4172240000000  0.5291870000000 1.0
C      1  0.5400380000000  0.5824810000000  0.4708120000000 1.0
C      1  0.4596680000000  0.5824810000000  0.5291870000000 1.0
C      1  0.4172250000000  0.5290400000000  0.5401840000000 1.0
C      1  0.4172250000000  0.4706650000000  0.4598150000000 1.0
C      1  0.5824810000000  0.4706650000000  0.5401840000000 1.0
C      1  0.5496170000000  0.4500890000000  0.4502360000000 1.0
C      1  0.4500900000000  0.5496160000000  0.5497630000000 1.0
C      1  0.4500900000000  0.5496160000000  0.4502360000000 1.0
C      1  0.4500900000000  0.4500890000000  0.5497630000000 1.0
C      1  0.5496170000000  0.5496160000000  0.5497630000000 1.0
C      1  0.4500900000000  0.4500890000000  0.4502360000000 1.0
C      1  0.5496170000000  0.5496160000000  0.4502360000000 1.0
C      1  0.5496170000000  0.4500890000000  0.5497630000000 1.0
END
