TITL C-1379265-1223-223 -5.32518301257092e-07 1000000 -2268.60437814337 0 0 320 (Th) n - 1
REM
REM in /nfs/bkarasulu/CARBON/AIRSS/Generating-Clusters/GAP-ML-2020/Higher-Symm/Selected-Sizes/TryA-Only_Ih-Symm/Larger-Clusters/Try2-MINAMP_6A
REM
REM
REM
REM
REM
REM ./C.cell (31579ac4e95a012ec27f3239692ae8a5)
REM
REM compiler GCC version 9.2.1 20190827 (Red Hat 9.2.1-1)
REM options -cpp -mtune=generic -march=x86-64 -g -O0 -fpre-include=/usr/include/finclude/math-vector-fortran.h
REM seed -11939813 1377849719 158932132 1110182221 -1339871339 1541441117 -522927651 763901754 2061398147 781763869 -1523272947 1758335987 264962589 -1593793458 46111752 -1933579545 812004669 99067644 876355922 1961904560 -981889466 -1598477458 1495897900 36584855 397530009 -1759842160 786361735 -1440206318 -1010960172 1499889608 -1557394532 773248692 983751677
REM
CELL 1.54180  100.00000  100.00000  100.00000   90.00000   90.00000   90.00000
LATT -1
SFAC C  
C      1  0.5076900000000  0.4304050000000  0.4822350000000 1.0
C      1  0.4823500000000  0.5076970000000  0.4302820000000 1.0
C      1  0.4303970000000  0.4823580000000  0.5075740000000 1.0
C      1  0.5076900000000  0.5698270000000  0.5177500000000 1.0
C      1  0.4925270000000  0.5698270000000  0.4822350000000 1.0
C      1  0.4925270000000  0.4304050000000  0.5177500000000 1.0
C      1  0.4823500000000  0.4925340000000  0.5697030000000 1.0
C      1  0.5178660000000  0.4925340000000  0.4302820000000 1.0
C      1  0.5178660000000  0.5076970000000  0.5697030000000 1.0
C      1  0.4303970000000  0.5178740000000  0.4924110000000 1.0
C      1  0.5698190000000  0.5178740000000  0.5075740000000 1.0
C      1  0.5698190000000  0.4823580000000  0.4924110000000 1.0
C      1  0.4925270000000  0.4304050000000  0.4822350000000 1.0
C      1  0.5178660000000  0.5076970000000  0.4302820000000 1.0
C      1  0.5698190000000  0.4823580000000  0.5075740000000 1.0
C      1  0.4925270000000  0.5698270000000  0.5177500000000 1.0
C      1  0.5076900000000  0.5698270000000  0.4822350000000 1.0
C      1  0.5076900000000  0.4304050000000  0.5177500000000 1.0
C      1  0.5178660000000  0.4925340000000  0.5697030000000 1.0
C      1  0.4823500000000  0.4925340000000  0.4302820000000 1.0
C      1  0.4823500000000  0.5076970000000  0.5697030000000 1.0
C      1  0.5698190000000  0.5178740000000  0.4924110000000 1.0
C      1  0.4303970000000  0.5178740000000  0.5075740000000 1.0
C      1  0.4303970000000  0.4823580000000  0.4924110000000 1.0
C      1  0.4675020000000  0.4933550000000  0.4548100000000 1.0
C      1  0.4549260000000  0.4675090000000  0.4932320000000 1.0
C      1  0.4933480000000  0.4549330000000  0.4673860000000 1.0
C      1  0.4675020000000  0.5068760000000  0.5451750000000 1.0
C      1  0.5327150000000  0.5068760000000  0.4548100000000 1.0
C      1  0.5327150000000  0.4933550000000  0.5451750000000 1.0
C      1  0.4549260000000  0.5327220000000  0.5067530000000 1.0
C      1  0.5452910000000  0.5327220000000  0.4932320000000 1.0
C      1  0.5452910000000  0.4675090000000  0.5067530000000 1.0
C      1  0.4933480000000  0.5452980000000  0.5325990000000 1.0
C      1  0.5068690000000  0.5452980000000  0.4673860000000 1.0
C      1  0.5068690000000  0.4549330000000  0.5325990000000 1.0
C      1  0.5327150000000  0.4933550000000  0.4548100000000 1.0
C      1  0.5452910000000  0.4675090000000  0.4932320000000 1.0
C      1  0.5068690000000  0.4549330000000  0.4673860000000 1.0
C      1  0.5327150000000  0.5068760000000  0.5451750000000 1.0
C      1  0.4675020000000  0.5068760000000  0.4548100000000 1.0
C      1  0.4675020000000  0.4933550000000  0.5451750000000 1.0
C      1  0.5452910000000  0.5327220000000  0.5067530000000 1.0
C      1  0.4549260000000  0.5327220000000  0.4932320000000 1.0
C      1  0.4549260000000  0.4675090000000  0.5067530000000 1.0
C      1  0.5068690000000  0.5452980000000  0.5325990000000 1.0
C      1  0.4933480000000  0.5452980000000  0.4673860000000 1.0
C      1  0.4933480000000  0.4549330000000  0.5325990000000 1.0
C      1  0.4610760000000  0.5563430000000  0.5401500000000 1.0
C      1  0.5402660000000  0.4610840000000  0.5562200000000 1.0
C      1  0.5563360000000  0.5402730000000  0.4609600000000 1.0
C      1  0.4610760000000  0.4438880000000  0.4598350000000 1.0
C      1  0.5391400000000  0.4438880000000  0.5401500000000 1.0
C      1  0.5391400000000  0.5563430000000  0.4598350000000 1.0
C      1  0.5402660000000  0.5391480000000  0.4437650000000 1.0
C      1  0.4599510000000  0.5391480000000  0.5562200000000 1.0
C      1  0.4599510000000  0.4610840000000  0.4437650000000 1.0
C      1  0.5563360000000  0.4599580000000  0.5390240000000 1.0
C      1  0.4438810000000  0.4599580000000  0.4609600000000 1.0
C      1  0.4438810000000  0.5402730000000  0.5390240000000 1.0
C      1  0.5391400000000  0.5563430000000  0.5401500000000 1.0
C      1  0.4599510000000  0.4610840000000  0.5562200000000 1.0
C      1  0.4438810000000  0.5402730000000  0.4609600000000 1.0
C      1  0.5391400000000  0.4438880000000  0.4598350000000 1.0
C      1  0.4610760000000  0.4438880000000  0.5401500000000 1.0
C      1  0.4610760000000  0.5563430000000  0.4598350000000 1.0
C      1  0.4599510000000  0.5391480000000  0.4437650000000 1.0
C      1  0.5402660000000  0.5391480000000  0.5562200000000 1.0
C      1  0.5402660000000  0.4610840000000  0.4437650000000 1.0
C      1  0.4438810000000  0.4599580000000  0.5390240000000 1.0
C      1  0.5563360000000  0.4599580000000  0.4609600000000 1.0
C      1  0.5563360000000  0.5402730000000  0.5390240000000 1.0
C      1  0.5400850000000  0.5213520000000  0.4710550000000 1.0
C      1  0.4711710000000  0.5400920000000  0.5212290000000 1.0
C      1  0.5213440000000  0.4711780000000  0.5399690000000 1.0
C      1  0.5400850000000  0.4788800000000  0.5289300000000 1.0
C      1  0.4601320000000  0.4788800000000  0.4710550000000 1.0
C      1  0.4601320000000  0.5213520000000  0.5289300000000 1.0
C      1  0.4711710000000  0.4601390000000  0.4787560000000 1.0
C      1  0.5290460000000  0.4601390000000  0.5212290000000 1.0
C      1  0.5290460000000  0.5400920000000  0.4787560000000 1.0
C      1  0.5213440000000  0.5290530000000  0.4600160000000 1.0
C      1  0.4788720000000  0.5290530000000  0.5399690000000 1.0
C      1  0.4788720000000  0.4711780000000  0.4600160000000 1.0
C      1  0.4601320000000  0.5213520000000  0.4710550000000 1.0
C      1  0.5290460000000  0.5400920000000  0.5212290000000 1.0
C      1  0.4788720000000  0.4711780000000  0.5399690000000 1.0
C      1  0.4601320000000  0.4788800000000  0.5289300000000 1.0
C      1  0.5400850000000  0.4788800000000  0.4710550000000 1.0
C      1  0.5400850000000  0.5213520000000  0.5289300000000 1.0
C      1  0.5290460000000  0.4601390000000  0.4787560000000 1.0
C      1  0.4711710000000  0.4601390000000  0.5212290000000 1.0
C      1  0.4711710000000  0.5400920000000  0.4787560000000 1.0
C      1  0.4788720000000  0.5290530000000  0.4600160000000 1.0
C      1  0.5213440000000  0.5290530000000  0.5399690000000 1.0
C      1  0.5213440000000  0.4711780000000  0.4600160000000 1.0
C      1  0.5697650000000  0.4924960000000  0.5172430000000 1.0
C      1  0.5173580000000  0.5697720000000  0.4923720000000 1.0
C      1  0.4924880000000  0.5173660000000  0.5696490000000 1.0
C      1  0.5697650000000  0.5077360000000  0.4827420000000 1.0
C      1  0.4304520000000  0.5077360000000  0.5172430000000 1.0
C      1  0.4304520000000  0.4924960000000  0.4827420000000 1.0
C      1  0.5173580000000  0.4304590000000  0.5076130000000 1.0
C      1  0.4828580000000  0.4304590000000  0.4923720000000 1.0
C      1  0.4828580000000  0.5697720000000  0.5076130000000 1.0
C      1  0.4924880000000  0.4828660000000  0.4303360000000 1.0
C      1  0.5077280000000  0.4828660000000  0.5696490000000 1.0
C      1  0.5077280000000  0.5173660000000  0.4303360000000 1.0
C      1  0.4304520000000  0.4924960000000  0.5172430000000 1.0
C      1  0.4828580000000  0.5697720000000  0.4923720000000 1.0
C      1  0.5077280000000  0.5173660000000  0.5696490000000 1.0
C      1  0.4304520000000  0.5077360000000  0.4827420000000 1.0
C      1  0.5697650000000  0.5077360000000  0.5172430000000 1.0
C      1  0.5697650000000  0.4924960000000  0.4827420000000 1.0
C      1  0.4828580000000  0.4304590000000  0.5076130000000 1.0
C      1  0.5173580000000  0.4304590000000  0.4923720000000 1.0
C      1  0.5173580000000  0.5697720000000  0.5076130000000 1.0
C      1  0.5077280000000  0.4828660000000  0.4303360000000 1.0
C      1  0.4924880000000  0.4828660000000  0.5696490000000 1.0
C      1  0.4924880000000  0.5173660000000  0.4303360000000 1.0
C      1  0.5264230000000  0.4456800000000  0.4548150000000 1.0
C      1  0.4549310000000  0.5264310000000  0.4455570000000 1.0
C      1  0.4456720000000  0.4549380000000  0.5263070000000 1.0
C      1  0.5264230000000  0.5545520000000  0.5451700000000 1.0
C      1  0.4737930000000  0.5545520000000  0.4548150000000 1.0
C      1  0.4737930000000  0.4456800000000  0.5451700000000 1.0
C      1  0.4549310000000  0.4738010000000  0.5544280000000 1.0
C      1  0.5452860000000  0.4738010000000  0.4455570000000 1.0
C      1  0.5452860000000  0.5264310000000  0.5544280000000 1.0
C      1  0.4456720000000  0.5452940000000  0.4736780000000 1.0
C      1  0.5545440000000  0.5452940000000  0.5263070000000 1.0
C      1  0.5545440000000  0.4549380000000  0.4736780000000 1.0
C      1  0.4737930000000  0.4456800000000  0.4548150000000 1.0
C      1  0.5452860000000  0.5264310000000  0.4455570000000 1.0
C      1  0.5545440000000  0.4549380000000  0.5263070000000 1.0
C      1  0.4737930000000  0.5545520000000  0.5451700000000 1.0
C      1  0.5264230000000  0.5545520000000  0.4548150000000 1.0
C      1  0.5264230000000  0.4456800000000  0.5451700000000 1.0
C      1  0.5452860000000  0.4738010000000  0.5544280000000 1.0
C      1  0.4549310000000  0.4738010000000  0.4455570000000 1.0
C      1  0.4549310000000  0.5264310000000  0.5544280000000 1.0
C      1  0.5545440000000  0.5452940000000  0.4736780000000 1.0
C      1  0.4456720000000  0.5452940000000  0.5263070000000 1.0
C      1  0.4456720000000  0.4549380000000  0.4736780000000 1.0
C      1  0.4588950000000  0.5528970000000  0.4741000000000 1.0
C      1  0.4742160000000  0.4589030000000  0.5527740000000 1.0
C      1  0.5528900000000  0.4742230000000  0.4587790000000 1.0
C      1  0.4588950000000  0.4473340000000  0.5258850000000 1.0
C      1  0.5413210000000  0.4473340000000  0.4741000000000 1.0
C      1  0.5413210000000  0.5528970000000  0.5258850000000 1.0
C      1  0.4742160000000  0.5413290000000  0.4472110000000 1.0
C      1  0.5260010000000  0.5413290000000  0.5527740000000 1.0
C      1  0.5260010000000  0.4589030000000  0.4472110000000 1.0
C      1  0.5528900000000  0.5260080000000  0.5412060000000 1.0
C      1  0.4473270000000  0.5260080000000  0.4587790000000 1.0
C      1  0.4473270000000  0.4742230000000  0.5412060000000 1.0
C      1  0.5413210000000  0.5528970000000  0.4741000000000 1.0
C      1  0.5260010000000  0.4589030000000  0.5527740000000 1.0
C      1  0.4473270000000  0.4742230000000  0.4587790000000 1.0
C      1  0.5413210000000  0.4473340000000  0.5258850000000 1.0
C      1  0.4588950000000  0.4473340000000  0.4741000000000 1.0
C      1  0.4588950000000  0.5528970000000  0.5258850000000 1.0
C      1  0.5260010000000  0.5413290000000  0.4472110000000 1.0
C      1  0.4742160000000  0.5413290000000  0.5527740000000 1.0
C      1  0.4742160000000  0.4589030000000  0.4472110000000 1.0
C      1  0.4473270000000  0.5260080000000  0.5412060000000 1.0
C      1  0.5528900000000  0.5260080000000  0.4587790000000 1.0
C      1  0.5528900000000  0.4742230000000  0.5412060000000 1.0
C      1  0.5318940000000  0.5671100000000  0.5072490000000 1.0
C      1  0.5073650000000  0.5319010000000  0.5669860000000 1.0
C      1  0.5671020000000  0.5073720000000  0.5317780000000 1.0
C      1  0.5318940000000  0.4331220000000  0.4927360000000 1.0
C      1  0.4683230000000  0.4331220000000  0.5072490000000 1.0
C      1  0.4683230000000  0.5671100000000  0.4927360000000 1.0
C      1  0.5073650000000  0.4683300000000  0.4329990000000 1.0
C      1  0.4928520000000  0.4683300000000  0.5669860000000 1.0
C      1  0.4928520000000  0.5319010000000  0.4329990000000 1.0
C      1  0.5671020000000  0.4928590000000  0.4682070000000 1.0
C      1  0.4331150000000  0.4928590000000  0.5317780000000 1.0
C      1  0.4331150000000  0.5073720000000  0.4682070000000 1.0
C      1  0.4683230000000  0.5671100000000  0.5072490000000 1.0
C      1  0.4928520000000  0.5319010000000  0.5669860000000 1.0
C      1  0.4331150000000  0.5073720000000  0.5317780000000 1.0
C      1  0.4683230000000  0.4331220000000  0.4927360000000 1.0
C      1  0.5318940000000  0.4331220000000  0.5072490000000 1.0
C      1  0.5318940000000  0.5671100000000  0.4927360000000 1.0
C      1  0.4928520000000  0.4683300000000  0.4329990000000 1.0
C      1  0.5073650000000  0.4683300000000  0.5669860000000 1.0
C      1  0.5073650000000  0.5319010000000  0.4329990000000 1.0
C      1  0.4331150000000  0.4928590000000  0.4682070000000 1.0
C      1  0.5671020000000  0.4928590000000  0.5317780000000 1.0
C      1  0.5671020000000  0.5073720000000  0.4682070000000 1.0
C      1  0.5607280000000  0.5139940000000  0.4577710000000 1.0
C      1  0.4578870000000  0.5607360000000  0.5138700000000 1.0
C      1  0.5139860000000  0.4578940000000  0.5606120000000 1.0
C      1  0.5607280000000  0.4862380000000  0.5422140000000 1.0
C      1  0.4394890000000  0.4862380000000  0.4577710000000 1.0
C      1  0.4394890000000  0.5139940000000  0.5422140000000 1.0
C      1  0.4578870000000  0.4394960000000  0.4861150000000 1.0
C      1  0.5423300000000  0.4394960000000  0.5138700000000 1.0
C      1  0.5423300000000  0.5607360000000  0.4861150000000 1.0
C      1  0.5139860000000  0.5423370000000  0.4393730000000 1.0
C      1  0.4862310000000  0.5423370000000  0.5606120000000 1.0
C      1  0.4862310000000  0.4578940000000  0.4393730000000 1.0
C      1  0.4394890000000  0.5139940000000  0.4577710000000 1.0
C      1  0.5423300000000  0.5607360000000  0.5138700000000 1.0
C      1  0.4862310000000  0.4578940000000  0.5606120000000 1.0
C      1  0.4394890000000  0.4862380000000  0.5422140000000 1.0
C      1  0.5607280000000  0.4862380000000  0.4577710000000 1.0
C      1  0.5607280000000  0.5139940000000  0.5422140000000 1.0
C      1  0.5423300000000  0.4394960000000  0.4861150000000 1.0
C      1  0.4578870000000  0.4394960000000  0.5138700000000 1.0
C      1  0.4578870000000  0.5607360000000  0.4861150000000 1.0
C      1  0.4862310000000  0.5423370000000  0.4393730000000 1.0
C      1  0.5139860000000  0.5423370000000  0.5606120000000 1.0
C      1  0.5139860000000  0.4578940000000  0.4393730000000 1.0
C      1  0.5679100000000  0.5325590000000  0.4926680000000 1.0
C      1  0.4927840000000  0.5679170000000  0.5324360000000 1.0
C      1  0.5325520000000  0.4927920000000  0.5677940000000 1.0
C      1  0.5679100000000  0.4676720000000  0.5073170000000 1.0
C      1  0.4323070000000  0.4676720000000  0.4926680000000 1.0
C      1  0.4323070000000  0.5325590000000  0.5073170000000 1.0
C      1  0.4927840000000  0.4323140000000  0.4675490000000 1.0
C      1  0.5074320000000  0.4323140000000  0.5324360000000 1.0
C      1  0.5074320000000  0.5679170000000  0.4675490000000 1.0
C      1  0.5325520000000  0.5074400000000  0.4321910000000 1.0
C      1  0.4676650000000  0.5074400000000  0.5677940000000 1.0
C      1  0.4676650000000  0.4927920000000  0.4321910000000 1.0
C      1  0.4323070000000  0.5325590000000  0.4926680000000 1.0
C      1  0.5074320000000  0.5679170000000  0.5324360000000 1.0
C      1  0.4676650000000  0.4927920000000  0.5677940000000 1.0
C      1  0.4323070000000  0.4676720000000  0.5073170000000 1.0
C      1  0.5679100000000  0.4676720000000  0.4926680000000 1.0
C      1  0.5679100000000  0.5325590000000  0.5073170000000 1.0
C      1  0.5074320000000  0.4323140000000  0.4675490000000 1.0
C      1  0.4927840000000  0.4323140000000  0.5324360000000 1.0
C      1  0.4927840000000  0.5679170000000  0.4675490000000 1.0
C      1  0.4676650000000  0.5074400000000  0.4321910000000 1.0
C      1  0.5325520000000  0.5074400000000  0.5677940000000 1.0
C      1  0.5325520000000  0.4927920000000  0.4321910000000 1.0
C      1  0.5574630000000  0.5414730000000  0.4872380000000 1.0
C      1  0.4873540000000  0.5574700000000  0.5413500000000 1.0
C      1  0.5414660000000  0.4873620000000  0.5573470000000 1.0
C      1  0.5574630000000  0.4587580000000  0.5127470000000 1.0
C      1  0.4427540000000  0.4587580000000  0.4872380000000 1.0
C      1  0.4427540000000  0.5414730000000  0.5127470000000 1.0
C      1  0.4873540000000  0.4427610000000  0.4586350000000 1.0
C      1  0.5128620000000  0.4427610000000  0.5413500000000 1.0
C      1  0.5128620000000  0.5574700000000  0.4586350000000 1.0
C      1  0.5414660000000  0.5128700000000  0.4426380000000 1.0
C      1  0.4587510000000  0.5128700000000  0.5573470000000 1.0
C      1  0.4587510000000  0.4873620000000  0.4426380000000 1.0
C      1  0.4427540000000  0.5414730000000  0.4872380000000 1.0
C      1  0.5128620000000  0.5574700000000  0.5413500000000 1.0
C      1  0.4587510000000  0.4873620000000  0.5573470000000 1.0
C      1  0.4427540000000  0.4587580000000  0.5127470000000 1.0
C      1  0.5574630000000  0.4587580000000  0.4872380000000 1.0
C      1  0.5574630000000  0.5414730000000  0.5127470000000 1.0
C      1  0.5128620000000  0.4427610000000  0.4586350000000 1.0
C      1  0.4873540000000  0.4427610000000  0.5413500000000 1.0
C      1  0.4873540000000  0.5574700000000  0.4586350000000 1.0
C      1  0.4587510000000  0.5128700000000  0.4426380000000 1.0
C      1  0.5414660000000  0.5128700000000  0.5573470000000 1.0
C      1  0.5414660000000  0.4873620000000  0.4426380000000 1.0
C      1  0.4713940000000  0.4829050000000  0.4632910000000 1.0
C      1  0.4634070000000  0.4714020000000  0.4827820000000 1.0
C      1  0.4828970000000  0.4634140000000  0.4712780000000 1.0
C      1  0.4713940000000  0.5173270000000  0.5366940000000 1.0
C      1  0.5288220000000  0.5173270000000  0.4632910000000 1.0
C      1  0.5288220000000  0.4829050000000  0.5366940000000 1.0
C      1  0.4634070000000  0.5288300000000  0.5172030000000 1.0
C      1  0.5368100000000  0.5288300000000  0.4827820000000 1.0
C      1  0.5368100000000  0.4714020000000  0.5172030000000 1.0
C      1  0.4828970000000  0.5368170000000  0.5287070000000 1.0
C      1  0.5173190000000  0.5368170000000  0.4712780000000 1.0
C      1  0.5173190000000  0.4634140000000  0.5287070000000 1.0
C      1  0.5288220000000  0.4829050000000  0.4632910000000 1.0
C      1  0.5368100000000  0.4714020000000  0.4827820000000 1.0
C      1  0.5173190000000  0.4634140000000  0.4712780000000 1.0
C      1  0.5288220000000  0.5173270000000  0.5366940000000 1.0
C      1  0.4713940000000  0.5173270000000  0.4632910000000 1.0
C      1  0.4713940000000  0.4829050000000  0.5366940000000 1.0
C      1  0.5368100000000  0.5288300000000  0.5172030000000 1.0
C      1  0.4634070000000  0.5288300000000  0.4827820000000 1.0
C      1  0.4634070000000  0.4714020000000  0.5172030000000 1.0
C      1  0.5173190000000  0.5368170000000  0.5287070000000 1.0
C      1  0.4828970000000  0.5368170000000  0.4712780000000 1.0
C      1  0.4828970000000  0.4634140000000  0.5287070000000 1.0
C      1  0.4450930000000  0.5068260000000  0.5533100000000 1.0
C      1  0.5534260000000  0.4451010000000  0.5067020000000 1.0
C      1  0.5068180000000  0.5534340000000  0.4449770000000 1.0
C      1  0.4450930000000  0.4934060000000  0.4466750000000 1.0
C      1  0.5551230000000  0.4934060000000  0.5533100000000 1.0
C      1  0.5551230000000  0.5068260000000  0.4466750000000 1.0
C      1  0.5534260000000  0.5551310000000  0.4932830000000 1.0
C      1  0.4467900000000  0.5551310000000  0.5067020000000 1.0
C      1  0.4467900000000  0.4451010000000  0.4932830000000 1.0
C      1  0.5068180000000  0.4467980000000  0.5550080000000 1.0
C      1  0.4933980000000  0.4467980000000  0.4449770000000 1.0
C      1  0.4933980000000  0.5534340000000  0.5550080000000 1.0
C      1  0.5551230000000  0.5068260000000  0.5533100000000 1.0
C      1  0.4467900000000  0.4451010000000  0.5067020000000 1.0
C      1  0.4933980000000  0.5534340000000  0.4449770000000 1.0
C      1  0.5551230000000  0.4934060000000  0.4466750000000 1.0
C      1  0.4450930000000  0.4934060000000  0.5533100000000 1.0
C      1  0.4450930000000  0.5068260000000  0.4466750000000 1.0
C      1  0.4467900000000  0.5551310000000  0.4932830000000 1.0
C      1  0.5534260000000  0.5551310000000  0.5067020000000 1.0
C      1  0.5534260000000  0.4451010000000  0.4932830000000 1.0
C      1  0.4933980000000  0.4467980000000  0.5550080000000 1.0
C      1  0.5068180000000  0.4467980000000  0.4449770000000 1.0
C      1  0.5068180000000  0.5534340000000  0.5550080000000 1.0
C      1  0.5479350000000  0.4522890000000  0.5478190000000 1.0
C      1  0.5479350000000  0.5479420000000  0.4521660000000 1.0
C      1  0.4522820000000  0.5479420000000  0.5478190000000 1.0
C      1  0.4522820000000  0.4522890000000  0.4521660000000 1.0
C      1  0.4522820000000  0.4522890000000  0.5478190000000 1.0
C      1  0.4522820000000  0.5479420000000  0.4521660000000 1.0
C      1  0.5479350000000  0.5479420000000  0.5478190000000 1.0
C      1  0.5479350000000  0.4522890000000  0.4521660000000 1.0
END
