TITL C-1379267-1329-172 -9.74206921248016e-07 1000000 -3439.1362160707 0 0 500 (Th) n - 1
REM
REM in /nfs/bkarasulu/CARBON/AIRSS/Generating-Clusters/GAP-ML-2020/Higher-Symm/Selected-Sizes/TryA-Only_Ih-Symm/Larger-Clusters/Try2-MINAMP_6A
REM
REM
REM
REM
REM
REM ./C.cell (31579ac4e95a012ec27f3239692ae8a5)
REM
REM compiler GCC version 9.2.1 20190827 (Red Hat 9.2.1-1)
REM options -cpp -mtune=generic -march=x86-64 -g -O0 -fpre-include=/usr/include/finclude/math-vector-fortran.h
REM seed -839519862 -641922358 -863226467 1805889055 -1703563937 -1890144974 -116798197 1374150214 1788955746 -1306905174 483252708 -1360158722 -1222905584 -582532729 -445839306 807992740 -2066471201 -47146159 -1355602285 72062388 1683397532 -259070812 -68252872 -1284886318 -2120968433 -688581223 -1919687213 1096993563 125730619 -188642772 -1057056906 -247656576 -1663504774
REM
CELL 1.54180  100.00000  100.00000  100.00000   90.00000   90.00000   90.00000
LATT -1
SFAC C  
C      1  0.4664430000000  0.4680130000000  0.5597100000000 1.0
C      1  0.4681340000000  0.5595750000000  0.4664560000000 1.0
C      1  0.5596960000000  0.4663220000000  0.4681480000000 1.0
C      1  0.5338260000000  0.5320140000000  0.5597100000000 1.0
C      1  0.4664430000000  0.5320140000000  0.4405860000000 1.0
C      1  0.5338260000000  0.4680130000000  0.4405860000000 1.0
C      1  0.5321340000000  0.4404520000000  0.4664560000000 1.0
C      1  0.4681340000000  0.4404520000000  0.5338400000000 1.0
C      1  0.5321340000000  0.5595750000000  0.5338400000000 1.0
C      1  0.4405730000000  0.5337050000000  0.4681480000000 1.0
C      1  0.5596960000000  0.5337050000000  0.5321480000000 1.0
C      1  0.4405730000000  0.4663220000000  0.5321480000000 1.0
C      1  0.4664430000000  0.4680130000000  0.4405860000000 1.0
C      1  0.4681340000000  0.5595750000000  0.5338400000000 1.0
C      1  0.5596960000000  0.4663220000000  0.5321480000000 1.0
C      1  0.5338260000000  0.5320140000000  0.4405860000000 1.0
C      1  0.4664430000000  0.5320140000000  0.5597100000000 1.0
C      1  0.5338260000000  0.4680130000000  0.5597100000000 1.0
C      1  0.5321340000000  0.4404520000000  0.5338400000000 1.0
C      1  0.4681340000000  0.4404520000000  0.4664560000000 1.0
C      1  0.5321340000000  0.5595750000000  0.4664560000000 1.0
C      1  0.4405730000000  0.5337050000000  0.5321480000000 1.0
C      1  0.5596960000000  0.5337050000000  0.4681480000000 1.0
C      1  0.4405730000000  0.4663220000000  0.4681480000000 1.0
C      1  0.5617630000000  0.5124600000000  0.4880700000000 1.0
C      1  0.5125810000000  0.4879360000000  0.5617770000000 1.0
C      1  0.4880560000000  0.5616430000000  0.5125940000000 1.0
C      1  0.4385050000000  0.4875670000000  0.4880700000000 1.0
C      1  0.5617630000000  0.4875670000000  0.5122260000000 1.0
C      1  0.4385050000000  0.5124600000000  0.5122260000000 1.0
C      1  0.4876880000000  0.5120920000000  0.5617770000000 1.0
C      1  0.5125810000000  0.5120920000000  0.4385190000000 1.0
C      1  0.4876880000000  0.4879360000000  0.4385190000000 1.0
C      1  0.5122120000000  0.4383840000000  0.5125940000000 1.0
C      1  0.4880560000000  0.4383850000000  0.4877020000000 1.0
C      1  0.5122120000000  0.5616430000000  0.4877020000000 1.0
C      1  0.5617630000000  0.5124600000000  0.5122260000000 1.0
C      1  0.5125810000000  0.4879360000000  0.4385190000000 1.0
C      1  0.4880560000000  0.5616430000000  0.4877020000000 1.0
C      1  0.4385050000000  0.4875670000000  0.5122260000000 1.0
C      1  0.5617630000000  0.4875670000000  0.4880700000000 1.0
C      1  0.4385050000000  0.5124600000000  0.4880700000000 1.0
C      1  0.4876880000000  0.5120920000000  0.4385190000000 1.0
C      1  0.5125810000000  0.5120920000000  0.5617770000000 1.0
C      1  0.4876880000000  0.4879360000000  0.5617770000000 1.0
C      1  0.5122120000000  0.4383850000000  0.4877020000000 1.0
C      1  0.4880560000000  0.4383840000000  0.5125940000000 1.0
C      1  0.5122120000000  0.5616430000000  0.5125940000000 1.0
C      1  0.4478700000000  0.4297300000000  0.5266800000000 1.0
C      1  0.4298500000000  0.5265460000000  0.4478830000000 1.0
C      1  0.5266660000000  0.4477490000000  0.4298640000000 1.0
C      1  0.5523990000000  0.5702980000000  0.5266800000000 1.0
C      1  0.4478700000000  0.5702980000000  0.4736160000000 1.0
C      1  0.5523990000000  0.4297300000000  0.4736160000000 1.0
C      1  0.5704180000000  0.4734810000000  0.4478830000000 1.0
C      1  0.4298500000000  0.4734810000000  0.5524120000000 1.0
C      1  0.5704180000000  0.5265460000000  0.5524120000000 1.0
C      1  0.4736020000000  0.5522780000000  0.4298640000000 1.0
C      1  0.5266660000000  0.5522780000000  0.5704320000000 1.0
C      1  0.4736020000000  0.4477490000000  0.5704320000000 1.0
C      1  0.4478700000000  0.4297300000000  0.4736160000000 1.0
C      1  0.4298500000000  0.5265460000000  0.5524120000000 1.0
C      1  0.5266660000000  0.4477490000000  0.5704320000000 1.0
C      1  0.5523990000000  0.5702980000000  0.4736160000000 1.0
C      1  0.4478700000000  0.5702980000000  0.5266800000000 1.0
C      1  0.5523990000000  0.4297300000000  0.5266800000000 1.0
C      1  0.5704180000000  0.4734810000000  0.5524120000000 1.0
C      1  0.4298500000000  0.4734810000000  0.4478830000000 1.0
C      1  0.5704180000000  0.5265460000000  0.4478830000000 1.0
C      1  0.4736020000000  0.5522780000000  0.5704320000000 1.0
C      1  0.5266660000000  0.5522780000000  0.4298640000000 1.0
C      1  0.4736020000000  0.4477490000000  0.4298640000000 1.0
C      1  0.4851200000000  0.5430760000000  0.4574210000000 1.0
C      1  0.5431970000000  0.4572870000000  0.4851340000000 1.0
C      1  0.4574080000000  0.4849990000000  0.5432110000000 1.0
C      1  0.5151480000000  0.4569510000000  0.4574220000000 1.0
C      1  0.4851200000000  0.4569510000000  0.5428740000000 1.0
C      1  0.5151480000000  0.5430760000000  0.5428740000000 1.0
C      1  0.4570710000000  0.5427400000000  0.4851340000000 1.0
C      1  0.5431970000000  0.5427400000000  0.5151620000000 1.0
C      1  0.4570710000000  0.4572870000000  0.5151620000000 1.0
C      1  0.5428610000000  0.5150280000000  0.5432110000000 1.0
C      1  0.4574080000000  0.5150280000000  0.4570850000000 1.0
C      1  0.5428610000000  0.4849990000000  0.4570850000000 1.0
C      1  0.4851200000000  0.5430760000000  0.5428740000000 1.0
C      1  0.5431970000000  0.4572870000000  0.5151620000000 1.0
C      1  0.4574080000000  0.4849990000000  0.4570850000000 1.0
C      1  0.5151480000000  0.4569510000000  0.5428740000000 1.0
C      1  0.4851200000000  0.4569510000000  0.4574220000000 1.0
C      1  0.5151480000000  0.5430760000000  0.4574220000000 1.0
C      1  0.4570710000000  0.5427400000000  0.5151620000000 1.0
C      1  0.5431970000000  0.5427400000000  0.4851340000000 1.0
C      1  0.4570710000000  0.4572870000000  0.4851340000000 1.0
C      1  0.5428610000000  0.5150280000000  0.4570850000000 1.0
C      1  0.4574080000000  0.5150280000000  0.5432110000000 1.0
C      1  0.5428610000000  0.4849990000000  0.5432110000000 1.0
C      1  0.5065010000000  0.4100920000000  0.5269960000000 1.0
C      1  0.4102120000000  0.5268610000000  0.5065150000000 1.0
C      1  0.5269820000000  0.5063800000000  0.4102260000000 1.0
C      1  0.4937680000000  0.5899360000000  0.5269950000000 1.0
C      1  0.5065010000000  0.5899360000000  0.4733000000000 1.0
C      1  0.4937680000000  0.4100920000000  0.4733000000000 1.0
C      1  0.5900560000000  0.4731660000000  0.5065150000000 1.0
C      1  0.4102120000000  0.4731660000000  0.4937810000000 1.0
C      1  0.5900560000000  0.5268610000000  0.4937810000000 1.0
C      1  0.4732870000000  0.4936470000000  0.4102260000000 1.0
C      1  0.5269820000000  0.4936470000000  0.5900700000000 1.0
C      1  0.4732870000000  0.5063800000000  0.5900700000000 1.0
C      1  0.5065010000000  0.4100920000000  0.4733000000000 1.0
C      1  0.4102120000000  0.5268610000000  0.4937810000000 1.0
C      1  0.5269820000000  0.5063800000000  0.5900700000000 1.0
C      1  0.4937680000000  0.5899360000000  0.4733000000000 1.0
C      1  0.5065010000000  0.5899360000000  0.5269950000000 1.0
C      1  0.4937680000000  0.4100920000000  0.5269960000000 1.0
C      1  0.5900560000000  0.4731660000000  0.4937810000000 1.0
C      1  0.4102120000000  0.4731660000000  0.5065150000000 1.0
C      1  0.5900560000000  0.5268610000000  0.5065150000000 1.0
C      1  0.4732870000000  0.4936470000000  0.5900700000000 1.0
C      1  0.5269820000000  0.4936470000000  0.4102260000000 1.0
C      1  0.4732870000000  0.5063800000000  0.4102260000000 1.0
C      1  0.5715470000000  0.4742240000000  0.4615370000000 1.0
C      1  0.4743440000000  0.4614030000000  0.5715610000000 1.0
C      1  0.4615230000000  0.5714270000000  0.4743580000000 1.0
C      1  0.4287210000000  0.5258030000000  0.4615370000000 1.0
C      1  0.5715470000000  0.5258030000000  0.5387590000000 1.0
C      1  0.4287210000000  0.4742240000000  0.5387590000000 1.0
C      1  0.5259240000000  0.5386240000000  0.5715610000000 1.0
C      1  0.4743440000000  0.5386240000000  0.4287350000000 1.0
C      1  0.5259240000000  0.4614030000000  0.4287350000000 1.0
C      1  0.5387450000000  0.4286010000000  0.4743580000000 1.0
C      1  0.4615230000000  0.4286010000000  0.5259380000000 1.0
C      1  0.5387450000000  0.5714270000000  0.5259380000000 1.0
C      1  0.5715470000000  0.4742240000000  0.5387590000000 1.0
C      1  0.4743440000000  0.4614030000000  0.4287350000000 1.0
C      1  0.4615230000000  0.5714270000000  0.5259380000000 1.0
C      1  0.4287210000000  0.5258030000000  0.5387590000000 1.0
C      1  0.5715470000000  0.5258030000000  0.4615370000000 1.0
C      1  0.4287210000000  0.4742240000000  0.4615370000000 1.0
C      1  0.5259240000000  0.5386240000000  0.4287350000000 1.0
C      1  0.4743440000000  0.5386240000000  0.5715610000000 1.0
C      1  0.5259240000000  0.4614030000000  0.5715610000000 1.0
C      1  0.5387450000000  0.4286010000000  0.5259380000000 1.0
C      1  0.4615230000000  0.4286010000000  0.4743580000000 1.0
C      1  0.5387450000000  0.5714270000000  0.4743580000000 1.0
C      1  0.4697960000000  0.4860510000000  0.5784860000000 1.0
C      1  0.4861720000000  0.5783520000000  0.4698090000000 1.0
C      1  0.5784730000000  0.4696750000000  0.4861850000000 1.0
C      1  0.5304730000000  0.5139760000000  0.5784860000000 1.0
C      1  0.4697960000000  0.5139760000000  0.4218090000000 1.0
C      1  0.5304730000000  0.4860510000000  0.4218090000000 1.0
C      1  0.5140970000000  0.4216750000000  0.4698090000000 1.0
C      1  0.4861720000000  0.4216750000000  0.5304870000000 1.0
C      1  0.5140970000000  0.5783520000000  0.5304870000000 1.0
C      1  0.4217960000000  0.5303520000000  0.4861850000000 1.0
C      1  0.5784730000000  0.5303520000000  0.5141110000000 1.0
C      1  0.4217960000000  0.4696750000000  0.5141110000000 1.0
C      1  0.4697960000000  0.4860510000000  0.4218090000000 1.0
C      1  0.4861720000000  0.5783520000000  0.5304870000000 1.0
C      1  0.5784730000000  0.4696750000000  0.5141110000000 1.0
C      1  0.5304730000000  0.5139760000000  0.4218090000000 1.0
C      1  0.4697960000000  0.5139760000000  0.5784860000000 1.0
C      1  0.5304730000000  0.4860510000000  0.5784860000000 1.0
C      1  0.5140970000000  0.4216750000000  0.5304870000000 1.0
C      1  0.4861720000000  0.4216750000000  0.4698090000000 1.0
C      1  0.5140970000000  0.5783520000000  0.4698090000000 1.0
C      1  0.4217960000000  0.5303520000000  0.5141110000000 1.0
C      1  0.5784730000000  0.5303520000000  0.4861850000000 1.0
C      1  0.4217960000000  0.4696750000000  0.4861850000000 1.0
C      1  0.4509630000000  0.4843940000000  0.4801770000000 1.0
C      1  0.4845140000000  0.4800430000000  0.4509770000000 1.0
C      1  0.4801630000000  0.4508420000000  0.4845280000000 1.0
C      1  0.5493060000000  0.5156340000000  0.4801770000000 1.0
C      1  0.4509630000000  0.5156340000000  0.5201190000000 1.0
C      1  0.5493060000000  0.4843940000000  0.5201190000000 1.0
C      1  0.5157540000000  0.5199840000000  0.4509770000000 1.0
C      1  0.4845140000000  0.5199840000000  0.5493190000000 1.0
C      1  0.5157540000000  0.4800430000000  0.5493190000000 1.0
C      1  0.5201050000000  0.5491850000000  0.4845280000000 1.0
C      1  0.4801630000000  0.5491850000000  0.5157680000000 1.0
C      1  0.5201050000000  0.4508420000000  0.5157680000000 1.0
C      1  0.4509630000000  0.4843940000000  0.5201190000000 1.0
C      1  0.4845140000000  0.4800430000000  0.5493190000000 1.0
C      1  0.4801630000000  0.4508420000000  0.5157680000000 1.0
C      1  0.5493060000000  0.5156340000000  0.5201190000000 1.0
C      1  0.4509630000000  0.5156340000000  0.4801770000000 1.0
C      1  0.5493060000000  0.4843940000000  0.4801770000000 1.0
C      1  0.5157540000000  0.5199840000000  0.5493190000000 1.0
C      1  0.4845140000000  0.5199840000000  0.4509770000000 1.0
C      1  0.5157540000000  0.4800430000000  0.4509770000000 1.0
C      1  0.5201050000000  0.5491850000000  0.5157680000000 1.0
C      1  0.4801630000000  0.5491850000000  0.4845280000000 1.0
C      1  0.5201050000000  0.4508420000000  0.4845280000000 1.0
C      1  0.4383680000000  0.5600520000000  0.4745250000000 1.0
C      1  0.5601720000000  0.4743910000000  0.4383820000000 1.0
C      1  0.4745110000000  0.4382480000000  0.5601860000000 1.0
C      1  0.5619000000000  0.4399760000000  0.4745250000000 1.0
C      1  0.4383680000000  0.4399760000000  0.5257710000000 1.0
C      1  0.5619000000000  0.5600520000000  0.5257710000000 1.0
C      1  0.4400960000000  0.5256360000000  0.4383820000000 1.0
C      1  0.5601720000000  0.5256360000000  0.5619140000000 1.0
C      1  0.4400960000000  0.4743910000000  0.5619140000000 1.0
C      1  0.5257570000000  0.5617800000000  0.5601860000000 1.0
C      1  0.4745110000000  0.5617800000000  0.4401100000000 1.0
C      1  0.5257570000000  0.4382480000000  0.4401100000000 1.0
C      1  0.4383680000000  0.5600520000000  0.5257710000000 1.0
C      1  0.5601720000000  0.4743910000000  0.5619140000000 1.0
C      1  0.4745110000000  0.4382480000000  0.4401100000000 1.0
C      1  0.5619000000000  0.4399760000000  0.5257710000000 1.0
C      1  0.4383680000000  0.4399760000000  0.4745250000000 1.0
C      1  0.5619000000000  0.5600520000000  0.4745250000000 1.0
C      1  0.4400960000000  0.5256360000000  0.5619140000000 1.0
C      1  0.5601720000000  0.5256360000000  0.4383820000000 1.0
C      1  0.4400960000000  0.4743910000000  0.4383820000000 1.0
C      1  0.5257570000000  0.5617800000000  0.4401100000000 1.0
C      1  0.4745110000000  0.5617800000000  0.5601860000000 1.0
C      1  0.5257570000000  0.4382480000000  0.5601860000000 1.0
C      1  0.4733780000000  0.5077290000000  0.4354480000000 1.0
C      1  0.5078490000000  0.4353140000000  0.4733910000000 1.0
C      1  0.4354350000000  0.4732570000000  0.5078630000000 1.0
C      1  0.5268910000000  0.4922990000000  0.4354480000000 1.0
C      1  0.4733780000000  0.4922990000000  0.5648470000000 1.0
C      1  0.5268910000000  0.5077290000000  0.5648470000000 1.0
C      1  0.4924190000000  0.5647130000000  0.4733910000000 1.0
C      1  0.5078490000000  0.5647130000000  0.5269040000000 1.0
C      1  0.4924190000000  0.4353140000000  0.5269040000000 1.0
C      1  0.5648340000000  0.5267700000000  0.5078630000000 1.0
C      1  0.4354350000000  0.5267700000000  0.4924330000000 1.0
C      1  0.5648340000000  0.4732570000000  0.4924330000000 1.0
C      1  0.4733780000000  0.5077290000000  0.5648470000000 1.0
C      1  0.5078490000000  0.4353140000000  0.5269040000000 1.0
C      1  0.4354350000000  0.4732570000000  0.4924330000000 1.0
C      1  0.5268910000000  0.4922990000000  0.5648470000000 1.0
C      1  0.4733780000000  0.4922990000000  0.4354480000000 1.0
C      1  0.5268910000000  0.5077290000000  0.4354480000000 1.0
C      1  0.4924190000000  0.5647130000000  0.5269040000000 1.0
C      1  0.5078490000000  0.5647130000000  0.4733910000000 1.0
C      1  0.4924190000000  0.4353140000000  0.4733910000000 1.0
C      1  0.5648340000000  0.5267700000000  0.4924330000000 1.0
C      1  0.4354350000000  0.5267700000000  0.5078630000000 1.0
C      1  0.5648340000000  0.4732570000000  0.5078630000000 1.0
C      1  0.4650030000000  0.4375000000000  0.5488080000000 1.0
C      1  0.4376210000000  0.5486740000000  0.4650170000000 1.0
C      1  0.5487950000000  0.4648820000000  0.4376350000000 1.0
C      1  0.5352660000000  0.5625270000000  0.5488080000000 1.0
C      1  0.4650030000000  0.5625270000000  0.4514870000000 1.0
C      1  0.5352660000000  0.4375000000000  0.4514870000000 1.0
C      1  0.5626480000000  0.4513530000000  0.4650170000000 1.0
C      1  0.4376210000000  0.4513530000000  0.5352790000000 1.0
C      1  0.5626480000000  0.5486740000000  0.5352790000000 1.0
C      1  0.4514740000000  0.5351450000000  0.4376350000000 1.0
C      1  0.5487950000000  0.5351450000000  0.5626610000000 1.0
C      1  0.4514740000000  0.4648820000000  0.5626610000000 1.0
C      1  0.4650030000000  0.4375000000000  0.4514870000000 1.0
C      1  0.4376210000000  0.5486740000000  0.5352790000000 1.0
C      1  0.5487950000000  0.4648820000000  0.5626610000000 1.0
C      1  0.5352660000000  0.5625270000000  0.4514870000000 1.0
C      1  0.4650030000000  0.5625270000000  0.5488080000000 1.0
C      1  0.5352660000000  0.4375000000000  0.5488080000000 1.0
C      1  0.5626480000000  0.4513530000000  0.5352790000000 1.0
C      1  0.4376210000000  0.4513530000000  0.4650170000000 1.0
C      1  0.5626480000000  0.5486740000000  0.4650170000000 1.0
C      1  0.4514740000000  0.5351450000000  0.5626610000000 1.0
C      1  0.5487950000000  0.5351450000000  0.4376350000000 1.0
C      1  0.4514740000000  0.4648820000000  0.4376350000000 1.0
C      1  0.5594460000000  0.4478340000000  0.4520730000000 1.0
C      1  0.4479550000000  0.4519390000000  0.5594600000000 1.0
C      1  0.4520600000000  0.5593250000000  0.4479680000000 1.0
C      1  0.4408220000000  0.5521930000000  0.4520730000000 1.0
C      1  0.5594460000000  0.5521930000000  0.5482220000000 1.0
C      1  0.4408220000000  0.4478340000000  0.5482220000000 1.0
C      1  0.5523140000000  0.5480880000000  0.5594600000000 1.0
C      1  0.4479550000000  0.5480880000000  0.4408360000000 1.0
C      1  0.5523140000000  0.4519390000000  0.4408360000000 1.0
C      1  0.5482090000000  0.4407020000000  0.4479680000000 1.0
C      1  0.4520600000000  0.4407020000000  0.5523270000000 1.0
C      1  0.5482090000000  0.5593250000000  0.5523270000000 1.0
C      1  0.5594460000000  0.4478340000000  0.5482220000000 1.0
C      1  0.4479550000000  0.4519390000000  0.4408360000000 1.0
C      1  0.4520600000000  0.5593250000000  0.5523270000000 1.0
C      1  0.4408220000000  0.5521930000000  0.5482220000000 1.0
C      1  0.5594460000000  0.5521930000000  0.4520730000000 1.0
C      1  0.4408220000000  0.4478340000000  0.4520730000000 1.0
C      1  0.5523140000000  0.5480880000000  0.4408360000000 1.0
C      1  0.4479550000000  0.5480880000000  0.5594600000000 1.0
C      1  0.5523140000000  0.4519390000000  0.5594600000000 1.0
C      1  0.5482090000000  0.4407020000000  0.5523270000000 1.0
C      1  0.4520600000000  0.4407020000000  0.4479680000000 1.0
C      1  0.5482090000000  0.5593250000000  0.4479680000000 1.0
C      1  0.4872520000000  0.4349760000000  0.4458430000000 1.0
C      1  0.4350970000000  0.4457090000000  0.4872660000000 1.0
C      1  0.4458290000000  0.4871310000000  0.4351100000000 1.0
C      1  0.5130160000000  0.5650510000000  0.4458430000000 1.0
C      1  0.4872520000000  0.5650510000000  0.5544530000000 1.0
C      1  0.5130160000000  0.4349760000000  0.5544530000000 1.0
C      1  0.5651720000000  0.5543190000000  0.4872660000000 1.0
C      1  0.4350970000000  0.5543190000000  0.5130300000000 1.0
C      1  0.5651720000000  0.4457090000000  0.5130300000000 1.0
C      1  0.5544390000000  0.5128960000000  0.4351100000000 1.0
C      1  0.4458290000000  0.5128960000000  0.5651850000000 1.0
C      1  0.5544390000000  0.4871310000000  0.5651850000000 1.0
C      1  0.4872520000000  0.4349760000000  0.5544530000000 1.0
C      1  0.4350970000000  0.4457090000000  0.5130300000000 1.0
C      1  0.4458290000000  0.4871310000000  0.5651850000000 1.0
C      1  0.5130160000000  0.5650510000000  0.5544530000000 1.0
C      1  0.4872520000000  0.5650510000000  0.4458430000000 1.0
C      1  0.5130160000000  0.4349760000000  0.4458430000000 1.0
C      1  0.5651720000000  0.5543190000000  0.5130300000000 1.0
C      1  0.4350970000000  0.5543190000000  0.4872660000000 1.0
C      1  0.5651720000000  0.4457090000000  0.4872660000000 1.0
C      1  0.5544390000000  0.5128960000000  0.5651850000000 1.0
C      1  0.4458290000000  0.5128960000000  0.4351100000000 1.0
C      1  0.5544390000000  0.4871310000000  0.4351100000000 1.0
C      1  0.4609250000000  0.4527610000000  0.5288390000000 1.0
C      1  0.4528810000000  0.5287050000000  0.4609390000000 1.0
C      1  0.5288250000000  0.4608050000000  0.4528950000000 1.0
C      1  0.5393430000000  0.5472670000000  0.5288390000000 1.0
C      1  0.4609250000000  0.5472670000000  0.4714570000000 1.0
C      1  0.5393430000000  0.4527610000000  0.4714570000000 1.0
C      1  0.5473870000000  0.4713220000000  0.4609390000000 1.0
C      1  0.4528810000000  0.4713220000000  0.5393570000000 1.0
C      1  0.5473870000000  0.5287050000000  0.5393570000000 1.0
C      1  0.4714430000000  0.5392230000000  0.4528950000000 1.0
C      1  0.5288250000000  0.5392230000000  0.5474010000000 1.0
C      1  0.4714430000000  0.4608050000000  0.5474010000000 1.0
C      1  0.4609250000000  0.4527610000000  0.4714570000000 1.0
C      1  0.4528810000000  0.5287050000000  0.5393570000000 1.0
C      1  0.5288250000000  0.4608050000000  0.5474010000000 1.0
C      1  0.5393430000000  0.5472670000000  0.4714570000000 1.0
C      1  0.4609250000000  0.5472670000000  0.5288390000000 1.0
C      1  0.5393430000000  0.4527610000000  0.5288390000000 1.0
C      1  0.5473870000000  0.4713220000000  0.5393570000000 1.0
C      1  0.4528810000000  0.4713220000000  0.4609390000000 1.0
C      1  0.5473870000000  0.5287050000000  0.4609390000000 1.0
C      1  0.4714430000000  0.5392230000000  0.5474010000000 1.0
C      1  0.5288250000000  0.5392230000000  0.4528950000000 1.0
C      1  0.4714430000000  0.4608050000000  0.4528950000000 1.0
C      1  0.5525070000000  0.5510860000000  0.5069840000000 1.0
C      1  0.5512070000000  0.5068500000000  0.5525200000000 1.0
C      1  0.5069700000000  0.5523860000000  0.5512200000000 1.0
C      1  0.4477620000000  0.4489410000000  0.5069840000000 1.0
C      1  0.5525070000000  0.4489410000000  0.4933120000000 1.0
C      1  0.4477620000000  0.5510860000000  0.4933120000000 1.0
C      1  0.4490620000000  0.4931770000000  0.5525200000000 1.0
C      1  0.5512070000000  0.4931770000000  0.4477760000000 1.0
C      1  0.4490620000000  0.5068500000000  0.4477760000000 1.0
C      1  0.4932980000000  0.4476410000000  0.5512200000000 1.0
C      1  0.5069700000000  0.4476410000000  0.4490750000000 1.0
C      1  0.4932980000000  0.5523860000000  0.4490750000000 1.0
C      1  0.5525070000000  0.5510860000000  0.4933120000000 1.0
C      1  0.5512070000000  0.5068500000000  0.4477760000000 1.0
C      1  0.5069700000000  0.5523860000000  0.4490750000000 1.0
C      1  0.4477620000000  0.4489410000000  0.4933120000000 1.0
C      1  0.5525070000000  0.4489410000000  0.5069840000000 1.0
C      1  0.4477620000000  0.5510860000000  0.5069840000000 1.0
C      1  0.4490620000000  0.4931770000000  0.4477760000000 1.0
C      1  0.5512070000000  0.4931770000000  0.5525200000000 1.0
C      1  0.4490620000000  0.5068500000000  0.5525200000000 1.0
C      1  0.4932980000000  0.4476410000000  0.4490750000000 1.0
C      1  0.5069700000000  0.4476410000000  0.5512200000000 1.0
C      1  0.4932980000000  0.5523860000000  0.5512200000000 1.0
C      1  0.4931060000000  0.5210830000000  0.5737500000000 1.0
C      1  0.5212040000000  0.5736150000000  0.4931200000000 1.0
C      1  0.5737360000000  0.4929850000000  0.5212180000000 1.0
C      1  0.5071620000000  0.4789440000000  0.5737500000000 1.0
C      1  0.4931060000000  0.4789440000000  0.4265460000000 1.0
C      1  0.5071620000000  0.5210830000000  0.4265460000000 1.0
C      1  0.4790650000000  0.4264120000000  0.4931200000000 1.0
C      1  0.5212040000000  0.4264120000000  0.5071760000000 1.0
C      1  0.4790650000000  0.5736150000000  0.5071760000000 1.0
C      1  0.4265330000000  0.5070420000000  0.5212180000000 1.0
C      1  0.5737360000000  0.5070420000000  0.4790780000000 1.0
C      1  0.4265330000000  0.4929850000000  0.4790780000000 1.0
C      1  0.4931060000000  0.5210830000000  0.4265460000000 1.0
C      1  0.5212040000000  0.5736150000000  0.5071760000000 1.0
C      1  0.5737360000000  0.4929850000000  0.4790780000000 1.0
C      1  0.5071620000000  0.4789440000000  0.4265460000000 1.0
C      1  0.4931060000000  0.4789440000000  0.5737500000000 1.0
C      1  0.5071620000000  0.5210830000000  0.5737500000000 1.0
C      1  0.4790650000000  0.4264120000000  0.5071760000000 1.0
C      1  0.5212040000000  0.4264120000000  0.4931200000000 1.0
C      1  0.4790650000000  0.5736150000000  0.4931200000000 1.0
C      1  0.4265330000000  0.5070420000000  0.4790780000000 1.0
C      1  0.5737360000000  0.5070420000000  0.5212180000000 1.0
C      1  0.4265330000000  0.4929850000000  0.5212180000000 1.0
C      1  0.5184500000000  0.5531170000000  0.4697440000000 1.0
C      1  0.5532370000000  0.4696090000000  0.5184640000000 1.0
C      1  0.4697300000000  0.5183300000000  0.5532510000000 1.0
C      1  0.4818180000000  0.4469110000000  0.4697440000000 1.0
C      1  0.5184500000000  0.4469110000000  0.5305520000000 1.0
C      1  0.4818180000000  0.5531170000000  0.5305520000000 1.0
C      1  0.4470310000000  0.5304180000000  0.5184640000000 1.0
C      1  0.5532370000000  0.5304180000000  0.4818320000000 1.0
C      1  0.4470310000000  0.4696090000000  0.4818320000000 1.0
C      1  0.5305380000000  0.4816980000000  0.5532510000000 1.0
C      1  0.4697300000000  0.4816980000000  0.4470450000000 1.0
C      1  0.5305380000000  0.5183300000000  0.4470450000000 1.0
C      1  0.5184500000000  0.5531170000000  0.5305520000000 1.0
C      1  0.5532370000000  0.4696090000000  0.4818320000000 1.0
C      1  0.4697300000000  0.5183300000000  0.4470450000000 1.0
C      1  0.4818180000000  0.4469110000000  0.5305520000000 1.0
C      1  0.5184500000000  0.4469110000000  0.4697440000000 1.0
C      1  0.4818180000000  0.5531170000000  0.4697440000000 1.0
C      1  0.4470310000000  0.5304180000000  0.4818320000000 1.0
C      1  0.5532370000000  0.5304180000000  0.5184640000000 1.0
C      1  0.4470310000000  0.4696090000000  0.5184640000000 1.0
C      1  0.5305380000000  0.4816980000000  0.4470450000000 1.0
C      1  0.4697300000000  0.4816980000000  0.5532510000000 1.0
C      1  0.5305380000000  0.5183300000000  0.5532510000000 1.0
C      1  0.4729880000000  0.5773570000000  0.4805220000000 1.0
C      1  0.5774780000000  0.4803870000000  0.4730020000000 1.0
C      1  0.4805080000000  0.4728680000000  0.5774910000000 1.0
C      1  0.5272800000000  0.4226700000000  0.4805220000000 1.0
C      1  0.4729880000000  0.4226700000000  0.5197740000000 1.0
C      1  0.5272800000000  0.5773570000000  0.5197740000000 1.0
C      1  0.4227910000000  0.5196400000000  0.4730020000000 1.0
C      1  0.5774780000000  0.5196400000000  0.5272940000000 1.0
C      1  0.4227910000000  0.4803870000000  0.5272940000000 1.0
C      1  0.5197610000000  0.5271600000000  0.5774910000000 1.0
C      1  0.4805080000000  0.5271600000000  0.4228040000000 1.0
C      1  0.5197610000000  0.4728680000000  0.4228040000000 1.0
C      1  0.4729880000000  0.5773570000000  0.5197740000000 1.0
C      1  0.5774780000000  0.4803870000000  0.5272940000000 1.0
C      1  0.4805080000000  0.4728680000000  0.4228040000000 1.0
C      1  0.5272800000000  0.4226700000000  0.5197740000000 1.0
C      1  0.4729880000000  0.4226700000000  0.4805220000000 1.0
C      1  0.5272800000000  0.5773570000000  0.4805220000000 1.0
C      1  0.4227910000000  0.5196400000000  0.5272940000000 1.0
C      1  0.5774780000000  0.5196400000000  0.4730020000000 1.0
C      1  0.4227910000000  0.4803870000000  0.4730020000000 1.0
C      1  0.5197610000000  0.5271600000000  0.4228040000000 1.0
C      1  0.4805080000000  0.5271600000000  0.5774910000000 1.0
C      1  0.5197610000000  0.4728680000000  0.5774910000000 1.0
C      1  0.4703520000000  0.5432410000000  0.4927650000000 1.0
C      1  0.5433610000000  0.4926310000000  0.4703660000000 1.0
C      1  0.4927520000000  0.4702320000000  0.5433750000000 1.0
C      1  0.5299160000000  0.4567870000000  0.4927650000000 1.0
C      1  0.4703520000000  0.4567870000000  0.5075310000000 1.0
C      1  0.5299160000000  0.5432410000000  0.5075310000000 1.0
C      1  0.4569070000000  0.5073960000000  0.4703660000000 1.0
C      1  0.5433610000000  0.5073960000000  0.5299300000000 1.0
C      1  0.4569070000000  0.4926310000000  0.5299300000000 1.0
C      1  0.5075170000000  0.5297960000000  0.5433750000000 1.0
C      1  0.4927520000000  0.5297960000000  0.4569210000000 1.0
C      1  0.5075170000000  0.4702320000000  0.4569210000000 1.0
C      1  0.4703520000000  0.5432410000000  0.5075310000000 1.0
C      1  0.5433610000000  0.4926310000000  0.5299300000000 1.0
C      1  0.4927520000000  0.4702320000000  0.4569210000000 1.0
C      1  0.5299160000000  0.4567870000000  0.5075310000000 1.0
C      1  0.4703520000000  0.4567870000000  0.4927650000000 1.0
C      1  0.5299160000000  0.5432410000000  0.4927650000000 1.0
C      1  0.4569070000000  0.5073960000000  0.5299300000000 1.0
C      1  0.5433610000000  0.5073960000000  0.4703660000000 1.0
C      1  0.4569070000000  0.4926310000000  0.4703660000000 1.0
C      1  0.5075170000000  0.5297960000000  0.4569210000000 1.0
C      1  0.4927520000000  0.5297960000000  0.5433750000000 1.0
C      1  0.5075170000000  0.4702320000000  0.5433750000000 1.0
C      1  0.4250510000000  0.5463140000000  0.4930340000000 1.0
C      1  0.5464340000000  0.4929000000000  0.4250650000000 1.0
C      1  0.4930210000000  0.4249310000000  0.5464480000000 1.0
C      1  0.5752170000000  0.4537130000000  0.4930340000000 1.0
C      1  0.4250510000000  0.4537130000000  0.5072620000000 1.0
C      1  0.5752170000000  0.5463140000000  0.5072620000000 1.0
C      1  0.4538340000000  0.5071270000000  0.4250650000000 1.0
C      1  0.5464340000000  0.5071270000000  0.5752310000000 1.0
C      1  0.4538340000000  0.4929000000000  0.5752310000000 1.0
C      1  0.5072480000000  0.5750960000000  0.5464480000000 1.0
C      1  0.4930210000000  0.5750960000000  0.4538480000000 1.0
C      1  0.5072480000000  0.4249310000000  0.4538480000000 1.0
C      1  0.4250510000000  0.5463140000000  0.5072620000000 1.0
C      1  0.5464340000000  0.4929000000000  0.5752310000000 1.0
C      1  0.4930210000000  0.4249310000000  0.4538480000000 1.0
C      1  0.5752170000000  0.4537130000000  0.5072620000000 1.0
C      1  0.4250510000000  0.4537130000000  0.4930340000000 1.0
C      1  0.5752170000000  0.5463140000000  0.4930340000000 1.0
C      1  0.4538340000000  0.5071270000000  0.5752310000000 1.0
C      1  0.5464340000000  0.5071270000000  0.4250650000000 1.0
C      1  0.4538340000000  0.4929000000000  0.4250650000000 1.0
C      1  0.5072480000000  0.5750960000000  0.4538480000000 1.0
C      1  0.4930210000000  0.5750960000000  0.5464480000000 1.0
C      1  0.5072480000000  0.4249310000000  0.5464480000000 1.0
C      1  0.5001340000000  0.4425470000000  0.4935600000000 1.0
C      1  0.5001340000000  0.5574800000000  0.5067360000000 1.0
C      1  0.5001340000000  0.4425470000000  0.5067360000000 1.0
C      1  0.4426680000000  0.5066020000000  0.5001480000000 1.0
C      1  0.5067220000000  0.5000140000000  0.4426810000000 1.0
C      1  0.5001340000000  0.5574800000000  0.4935600000000 1.0
C      1  0.5576010000000  0.4934250000000  0.5001480000000 1.0
C      1  0.4426680000000  0.4934250000000  0.5001480000000 1.0
C      1  0.5576010000000  0.5066020000000  0.5001480000000 1.0
C      1  0.4935460000000  0.5000140000000  0.4426810000000 1.0
C      1  0.5067220000000  0.5000140000000  0.5576150000000 1.0
C      1  0.4935460000000  0.5000140000000  0.5576150000000 1.0
C      1  0.4637790000000  0.4636580000000  0.5365030000000 1.0
C      1  0.5364890000000  0.4636580000000  0.4637930000000 1.0
C      1  0.5364890000000  0.5363690000000  0.4637930000000 1.0
C      1  0.4637790000000  0.5363690000000  0.5365030000000 1.0
C      1  0.5364890000000  0.5363690000000  0.5365030000000 1.0
C      1  0.4637790000000  0.5363690000000  0.4637930000000 1.0
C      1  0.4637790000000  0.4636580000000  0.4637930000000 1.0
C      1  0.5364890000000  0.4636580000000  0.5365030000000 1.0
END
