TITL C-1379265-1223-26 1.14246854533622e-09 1000000 -1771.37625896125 0 0 240 (Td) n - 1
REM
REM in /nfs/bkarasulu/CARBON/AIRSS/Generating-Clusters/GAP-ML-2020/Higher-Symm/Selected-Sizes/TryA-Only_Ih-Symm/Larger-Clusters/Try2-MINAMP_6A
REM
REM
REM
REM
REM
REM ./C.cell (31579ac4e95a012ec27f3239692ae8a5)
REM
REM compiler GCC version 9.2.1 20190827 (Red Hat 9.2.1-1)
REM options -cpp -mtune=generic -march=x86-64 -g -O0 -fpre-include=/usr/include/finclude/math-vector-fortran.h
REM seed -2115409048 -1699784926 1945935193 1148168885 -1280469361 1749356116 279245324 309796030 -1629347315 -1334334778 -1090196154 -206047508 -1982514816 1140785914 -1675896903 -852322965 1433580871 -1646870058 -509903624 -2114276382 -17749741 -517888818 -341026512 -1094478829 893134077 -1826650721 1212891960 461011171 2113859218 17902970 -1154313949 -510684247 697706537
REM
CELL 1.54180  100.00000  100.00000  100.00000   90.00000   90.00000   90.00000
LATT -1
SFAC C  
C      1  0.5703640000000  0.5063850000000  0.5168170000000 1.0
C      1  0.5168170000000  0.5703640000000  0.5063850000000 1.0
C      1  0.5063850000000  0.5168170000000  0.5703640000000 1.0
C      1  0.4296360000000  0.4936150000000  0.5168170000000 1.0
C      1  0.4296360000000  0.5063850000000  0.4831830000000 1.0
C      1  0.5703640000000  0.4936150000000  0.4831830000000 1.0
C      1  0.4831830000000  0.4296360000000  0.5063850000000 1.0
C      1  0.4831830000000  0.5703640000000  0.4936150000000 1.0
C      1  0.5168170000000  0.4296360000000  0.4936150000000 1.0
C      1  0.4936150000000  0.4831830000000  0.5703640000000 1.0
C      1  0.4936150000000  0.5168170000000  0.4296360000000 1.0
C      1  0.5063850000000  0.4831830000000  0.4296360000000 1.0
C      1  0.5063850000000  0.5703640000000  0.5168170000000 1.0
C      1  0.5703640000000  0.5168170000000  0.5063850000000 1.0
C      1  0.5168170000000  0.5063850000000  0.5703640000000 1.0
C      1  0.4936150000000  0.4296360000000  0.5168170000000 1.0
C      1  0.5063850000000  0.4296360000000  0.4831830000000 1.0
C      1  0.4936150000000  0.5703640000000  0.4831830000000 1.0
C      1  0.4296360000000  0.4831830000000  0.5063850000000 1.0
C      1  0.5703640000000  0.4831830000000  0.4936150000000 1.0
C      1  0.4296360000000  0.5168170000000  0.4936150000000 1.0
C      1  0.4831830000000  0.4936150000000  0.5703640000000 1.0
C      1  0.5168170000000  0.4936150000000  0.4296360000000 1.0
C      1  0.4831830000000  0.5063850000000  0.4296360000000 1.0
C      1  0.4708000000000  0.4504990000000  0.5393870000000 1.0
C      1  0.5393870000000  0.4708000000000  0.4504990000000 1.0
C      1  0.4504990000000  0.5393870000000  0.4708000000000 1.0
C      1  0.5292000000000  0.5495010000000  0.5393870000000 1.0
C      1  0.5292000000000  0.4504990000000  0.4606130000000 1.0
C      1  0.4708000000000  0.5495010000000  0.4606130000000 1.0
C      1  0.4606130000000  0.5292000000000  0.4504990000000 1.0
C      1  0.4606130000000  0.4708000000000  0.5495010000000 1.0
C      1  0.5393870000000  0.5292000000000  0.5495010000000 1.0
C      1  0.5495010000000  0.4606130000000  0.4708000000000 1.0
C      1  0.5495010000000  0.5393870000000  0.5292000000000 1.0
C      1  0.4504990000000  0.4606130000000  0.5292000000000 1.0
C      1  0.4504990000000  0.4708000000000  0.5393870000000 1.0
C      1  0.4708000000000  0.5393870000000  0.4504990000000 1.0
C      1  0.5393870000000  0.4504990000000  0.4708000000000 1.0
C      1  0.5495010000000  0.5292000000000  0.5393870000000 1.0
C      1  0.4504990000000  0.5292000000000  0.4606130000000 1.0
C      1  0.5495010000000  0.4708000000000  0.4606130000000 1.0
C      1  0.5292000000000  0.4606130000000  0.4504990000000 1.0
C      1  0.4708000000000  0.4606130000000  0.5495010000000 1.0
C      1  0.5292000000000  0.5393870000000  0.5495010000000 1.0
C      1  0.4606130000000  0.5495010000000  0.4708000000000 1.0
C      1  0.5393870000000  0.5495010000000  0.5292000000000 1.0
C      1  0.4606130000000  0.4504990000000  0.5292000000000 1.0
C      1  0.4734750000000  0.5658970000000  0.4834780000000 1.0
C      1  0.4834780000000  0.4734750000000  0.5658970000000 1.0
C      1  0.5658970000000  0.4834780000000  0.4734750000000 1.0
C      1  0.5265250000000  0.4341030000000  0.4834780000000 1.0
C      1  0.5265250000000  0.5658970000000  0.5165220000000 1.0
C      1  0.4734750000000  0.4341030000000  0.5165220000000 1.0
C      1  0.5165220000000  0.5265250000000  0.5658970000000 1.0
C      1  0.5165220000000  0.4734750000000  0.4341030000000 1.0
C      1  0.4834780000000  0.5265250000000  0.4341030000000 1.0
C      1  0.4341030000000  0.5165220000000  0.4734750000000 1.0
C      1  0.4341030000000  0.4834780000000  0.5265250000000 1.0
C      1  0.5658970000000  0.5165220000000  0.5265250000000 1.0
C      1  0.5658970000000  0.4734750000000  0.4834780000000 1.0
C      1  0.4734750000000  0.4834780000000  0.5658970000000 1.0
C      1  0.4834780000000  0.5658970000000  0.4734750000000 1.0
C      1  0.4341030000000  0.5265250000000  0.4834780000000 1.0
C      1  0.5658970000000  0.5265250000000  0.5165220000000 1.0
C      1  0.4341030000000  0.4734750000000  0.5165220000000 1.0
C      1  0.5265250000000  0.5165220000000  0.5658970000000 1.0
C      1  0.4734750000000  0.5165220000000  0.4341030000000 1.0
C      1  0.5265250000000  0.4834780000000  0.4341030000000 1.0
C      1  0.5165220000000  0.4341030000000  0.4734750000000 1.0
C      1  0.4834780000000  0.4341030000000  0.5265250000000 1.0
C      1  0.5165220000000  0.5658970000000  0.5265250000000 1.0
C      1  0.5308080000000  0.5663000000000  0.4881290000000 1.0
C      1  0.4881290000000  0.5308080000000  0.5663000000000 1.0
C      1  0.5663000000000  0.4881290000000  0.5308080000000 1.0
C      1  0.4691920000000  0.4337000000000  0.4881290000000 1.0
C      1  0.4691920000000  0.5663000000000  0.5118710000000 1.0
C      1  0.5308080000000  0.4337000000000  0.5118710000000 1.0
C      1  0.5118710000000  0.4691920000000  0.5663000000000 1.0
C      1  0.5118710000000  0.5308080000000  0.4337000000000 1.0
C      1  0.4881290000000  0.4691920000000  0.4337000000000 1.0
C      1  0.4337000000000  0.5118710000000  0.5308080000000 1.0
C      1  0.4337000000000  0.4881290000000  0.4691920000000 1.0
C      1  0.5663000000000  0.5118710000000  0.4691920000000 1.0
C      1  0.5663000000000  0.5308080000000  0.4881290000000 1.0
C      1  0.5308080000000  0.4881290000000  0.5663000000000 1.0
C      1  0.4881290000000  0.5663000000000  0.5308080000000 1.0
C      1  0.4337000000000  0.4691920000000  0.4881290000000 1.0
C      1  0.5663000000000  0.4691920000000  0.5118710000000 1.0
C      1  0.4337000000000  0.5308080000000  0.5118710000000 1.0
C      1  0.4691920000000  0.5118710000000  0.5663000000000 1.0
C      1  0.5308080000000  0.5118710000000  0.4337000000000 1.0
C      1  0.4691920000000  0.4881290000000  0.4337000000000 1.0
C      1  0.5118710000000  0.4337000000000  0.5308080000000 1.0
C      1  0.4881290000000  0.4337000000000  0.4691920000000 1.0
C      1  0.5118710000000  0.5663000000000  0.4691920000000 1.0
C      1  0.4403040000000  0.4801420000000  0.4601740000000 1.0
C      1  0.4601740000000  0.4403040000000  0.4801420000000 1.0
C      1  0.4801420000000  0.4601740000000  0.4403040000000 1.0
C      1  0.5596960000000  0.5198580000000  0.4601740000000 1.0
C      1  0.5596960000000  0.4801420000000  0.5398260000000 1.0
C      1  0.4403040000000  0.5198580000000  0.5398260000000 1.0
C      1  0.5398260000000  0.5596960000000  0.4801420000000 1.0
C      1  0.5398260000000  0.4403040000000  0.5198580000000 1.0
C      1  0.4601740000000  0.5596960000000  0.5198580000000 1.0
C      1  0.5198580000000  0.5398260000000  0.4403040000000 1.0
C      1  0.5198580000000  0.4601740000000  0.5596960000000 1.0
C      1  0.4801420000000  0.5398260000000  0.5596960000000 1.0
C      1  0.4801420000000  0.4403040000000  0.4601740000000 1.0
C      1  0.4403040000000  0.4601740000000  0.4801420000000 1.0
C      1  0.4601740000000  0.4801420000000  0.4403040000000 1.0
C      1  0.5198580000000  0.5596960000000  0.4601740000000 1.0
C      1  0.4801420000000  0.5596960000000  0.5398260000000 1.0
C      1  0.5198580000000  0.4403040000000  0.5398260000000 1.0
C      1  0.5596960000000  0.5398260000000  0.4801420000000 1.0
C      1  0.4403040000000  0.5398260000000  0.5198580000000 1.0
C      1  0.5596960000000  0.4601740000000  0.5198580000000 1.0
C      1  0.5398260000000  0.5198580000000  0.4403040000000 1.0
C      1  0.4601740000000  0.5198580000000  0.5596960000000 1.0
C      1  0.5398260000000  0.4801420000000  0.5596960000000 1.0
C      1  0.4683780000000  0.4584480000000  0.4485010000000 1.0
C      1  0.4485010000000  0.4683780000000  0.4584480000000 1.0
C      1  0.4584480000000  0.4485010000000  0.4683780000000 1.0
C      1  0.5316220000000  0.5415520000000  0.4485010000000 1.0
C      1  0.5316220000000  0.4584480000000  0.5514990000000 1.0
C      1  0.4683780000000  0.5415520000000  0.5514990000000 1.0
C      1  0.5514990000000  0.5316220000000  0.4584480000000 1.0
C      1  0.5514990000000  0.4683780000000  0.5415520000000 1.0
C      1  0.4485010000000  0.5316220000000  0.5415520000000 1.0
C      1  0.5415520000000  0.5514990000000  0.4683780000000 1.0
C      1  0.5415520000000  0.4485010000000  0.5316220000000 1.0
C      1  0.4584480000000  0.5514990000000  0.5316220000000 1.0
C      1  0.4584480000000  0.4683780000000  0.4485010000000 1.0
C      1  0.4683780000000  0.4485010000000  0.4584480000000 1.0
C      1  0.4485010000000  0.4584480000000  0.4683780000000 1.0
C      1  0.5415520000000  0.5316220000000  0.4485010000000 1.0
C      1  0.4584480000000  0.5316220000000  0.5514990000000 1.0
C      1  0.5415520000000  0.4683780000000  0.5514990000000 1.0
C      1  0.5316220000000  0.5514990000000  0.4584480000000 1.0
C      1  0.4683780000000  0.5514990000000  0.5415520000000 1.0
C      1  0.5316220000000  0.4485010000000  0.5415520000000 1.0
C      1  0.5514990000000  0.5415520000000  0.4683780000000 1.0
C      1  0.4485010000000  0.5415520000000  0.5316220000000 1.0
C      1  0.5514990000000  0.4584480000000  0.5316220000000 1.0
C      1  0.4935950000000  0.4578190000000  0.4386420000000 1.0
C      1  0.4386420000000  0.4935950000000  0.4578190000000 1.0
C      1  0.4578190000000  0.4386420000000  0.4935950000000 1.0
C      1  0.5064050000000  0.5421810000000  0.4386420000000 1.0
C      1  0.5064050000000  0.4578190000000  0.5613580000000 1.0
C      1  0.4935950000000  0.5421810000000  0.5613580000000 1.0
C      1  0.5613580000000  0.5064050000000  0.4578190000000 1.0
C      1  0.5613580000000  0.4935950000000  0.5421810000000 1.0
C      1  0.4386420000000  0.5064050000000  0.5421810000000 1.0
C      1  0.5421810000000  0.5613580000000  0.4935950000000 1.0
C      1  0.5421810000000  0.4386420000000  0.5064050000000 1.0
C      1  0.4578190000000  0.5613580000000  0.5064050000000 1.0
C      1  0.4578190000000  0.4935950000000  0.4386420000000 1.0
C      1  0.4935950000000  0.4386420000000  0.4578190000000 1.0
C      1  0.4386420000000  0.4578190000000  0.4935950000000 1.0
C      1  0.5421810000000  0.5064050000000  0.4386420000000 1.0
C      1  0.4578190000000  0.5064050000000  0.5613580000000 1.0
C      1  0.5421810000000  0.4935950000000  0.5613580000000 1.0
C      1  0.5064050000000  0.5613580000000  0.4578190000000 1.0
C      1  0.4935950000000  0.5613580000000  0.5421810000000 1.0
C      1  0.5064050000000  0.4386420000000  0.5421810000000 1.0
C      1  0.5613580000000  0.5421810000000  0.4935950000000 1.0
C      1  0.4386420000000  0.5421810000000  0.5064050000000 1.0
C      1  0.5613580000000  0.4578190000000  0.5064050000000 1.0
C      1  0.5176000000000  0.4300520000000  0.5076000000000 1.0
C      1  0.5076000000000  0.5176000000000  0.4300520000000 1.0
C      1  0.4300520000000  0.5076000000000  0.5176000000000 1.0
C      1  0.4824000000000  0.5699480000000  0.5076000000000 1.0
C      1  0.4824000000000  0.4300520000000  0.4924000000000 1.0
C      1  0.5176000000000  0.5699480000000  0.4924000000000 1.0
C      1  0.4924000000000  0.4824000000000  0.4300520000000 1.0
C      1  0.4924000000000  0.5176000000000  0.5699480000000 1.0
C      1  0.5076000000000  0.4824000000000  0.5699480000000 1.0
C      1  0.5699480000000  0.4924000000000  0.5176000000000 1.0
C      1  0.5699480000000  0.5076000000000  0.4824000000000 1.0
C      1  0.4300520000000  0.4924000000000  0.4824000000000 1.0
C      1  0.4300520000000  0.5176000000000  0.5076000000000 1.0
C      1  0.5176000000000  0.5076000000000  0.4300520000000 1.0
C      1  0.5076000000000  0.4300520000000  0.5176000000000 1.0
C      1  0.5699480000000  0.4824000000000  0.5076000000000 1.0
C      1  0.4300520000000  0.4824000000000  0.4924000000000 1.0
C      1  0.5699480000000  0.5176000000000  0.4924000000000 1.0
C      1  0.4824000000000  0.4924000000000  0.4300520000000 1.0
C      1  0.5176000000000  0.4924000000000  0.5699480000000 1.0
C      1  0.4824000000000  0.5076000000000  0.5699480000000 1.0
C      1  0.4924000000000  0.5699480000000  0.5176000000000 1.0
C      1  0.5076000000000  0.5699480000000  0.4824000000000 1.0
C      1  0.4924000000000  0.4300520000000  0.4824000000000 1.0
C      1  0.5380450000000  0.5580100000000  0.5175480000000 1.0
C      1  0.5175480000000  0.5380450000000  0.5580100000000 1.0
C      1  0.5580100000000  0.5175480000000  0.5380450000000 1.0
C      1  0.4619550000000  0.4419900000000  0.5175480000000 1.0
C      1  0.4619550000000  0.5580100000000  0.4824520000000 1.0
C      1  0.5380450000000  0.4419900000000  0.4824520000000 1.0
C      1  0.4824520000000  0.4619550000000  0.5580100000000 1.0
C      1  0.4824520000000  0.5380450000000  0.4419900000000 1.0
C      1  0.5175480000000  0.4619550000000  0.4419900000000 1.0
C      1  0.4419900000000  0.4824520000000  0.5380450000000 1.0
C      1  0.4419900000000  0.5175480000000  0.4619550000000 1.0
C      1  0.5580100000000  0.4824520000000  0.4619550000000 1.0
C      1  0.5580100000000  0.5380450000000  0.5175480000000 1.0
C      1  0.5380450000000  0.5175480000000  0.5580100000000 1.0
C      1  0.5175480000000  0.5580100000000  0.5380450000000 1.0
C      1  0.4419900000000  0.4619550000000  0.5175480000000 1.0
C      1  0.5580100000000  0.4619550000000  0.4824520000000 1.0
C      1  0.4419900000000  0.5380450000000  0.4824520000000 1.0
C      1  0.4619550000000  0.4824520000000  0.5580100000000 1.0
C      1  0.5380450000000  0.4824520000000  0.4419900000000 1.0
C      1  0.4619550000000  0.5175480000000  0.4419900000000 1.0
C      1  0.4824520000000  0.4419900000000  0.5380450000000 1.0
C      1  0.5175480000000  0.4419900000000  0.4619550000000 1.0
C      1  0.4824520000000  0.5580100000000  0.4619550000000 1.0
C      1  0.5560900000000  0.5463900000000  0.5061920000000 1.0
C      1  0.5061920000000  0.5560900000000  0.5463900000000 1.0
C      1  0.5463900000000  0.5061920000000  0.5560900000000 1.0
C      1  0.4439100000000  0.4536100000000  0.5061920000000 1.0
C      1  0.4439100000000  0.5463900000000  0.4938080000000 1.0
C      1  0.5560900000000  0.4536100000000  0.4938080000000 1.0
C      1  0.4938080000000  0.4439100000000  0.5463900000000 1.0
C      1  0.4938080000000  0.5560900000000  0.4536100000000 1.0
C      1  0.5061920000000  0.4439100000000  0.4536100000000 1.0
C      1  0.4536100000000  0.4938080000000  0.5560900000000 1.0
C      1  0.4536100000000  0.5061920000000  0.4439100000000 1.0
C      1  0.5463900000000  0.4938080000000  0.4439100000000 1.0
C      1  0.5463900000000  0.5560900000000  0.5061920000000 1.0
C      1  0.5560900000000  0.5061920000000  0.5463900000000 1.0
C      1  0.5061920000000  0.5463900000000  0.5560900000000 1.0
C      1  0.4536100000000  0.4439100000000  0.5061920000000 1.0
C      1  0.5463900000000  0.4439100000000  0.4938080000000 1.0
C      1  0.4536100000000  0.5560900000000  0.4938080000000 1.0
C      1  0.4439100000000  0.4938080000000  0.5463900000000 1.0
C      1  0.5560900000000  0.4938080000000  0.4536100000000 1.0
C      1  0.4439100000000  0.5061920000000  0.4536100000000 1.0
C      1  0.4938080000000  0.4536100000000  0.5560900000000 1.0
C      1  0.5061920000000  0.4536100000000  0.4439100000000 1.0
C      1  0.4938080000000  0.5463900000000  0.4439100000000 1.0
END
