TITL C-1379268-1316-222 -9.77699273535329e-08 1000000 -3078.812626862 0 0 440 (C1) n - 1
REM
REM in /nfs/bkarasulu/CARBON/AIRSS/Generating-Clusters/GAP-ML-2020/Higher-Symm/Selected-Sizes/TryA-Only_Ih-Symm/Larger-Clusters/Try2-MINAMP_6A
REM
REM
REM
REM
REM
REM ./C.cell (31579ac4e95a012ec27f3239692ae8a5)
REM
REM compiler GCC version 9.2.1 20190827 (Red Hat 9.2.1-1)
REM options -cpp -mtune=generic -march=x86-64 -g -O0 -fpre-include=/usr/include/finclude/math-vector-fortran.h
REM seed -1432821379 775777815 -406778425 -1338190610 1711175424 1713940732 87264137 -1968417746 1850627867 1152937184 -92799812 -372480442 343774107 1379568081 -1072779239 -750435132 -1974585087 1973190686 1065511662 -1501948025 516413370 -370802825 414228532 648327173 -1856988005 -2006083125 1887027853 605727342 -1578590703 -1418357732 -937777195 -1875879651 1639009429
REM
CELL 1.54180  100.00000  100.00000  100.00000   90.00000   90.00000   90.00000
LATT -1
SFAC C  
C      1  0.5782360000000  0.5068490000000  0.5493850000000 1.0
C      1  0.5517400000000  0.5750640000000  0.5092990000000 1.0
C      1  0.5070090000000  0.5506360000000  0.5780280000000 1.0
C      1  0.4295350000000  0.4940660000000  0.5560270000000 1.0
C      1  0.4304330000000  0.5077450000000  0.4440160000000 1.0
C      1  0.5623350000000  0.4946220000000  0.4472580000000 1.0
C      1  0.4557380000000  0.4388790000000  0.5072740000000 1.0
C      1  0.4484650000000  0.5766820000000  0.4940190000000 1.0
C      1  0.5450300000000  0.4391790000000  0.4940560000000 1.0
C      1  0.4935980000000  0.4492180000000  0.5780900000000 1.0
C      1  0.4940440000000  0.5499530000000  0.4232110000000 1.0
C      1  0.5065860000000  0.4500990000000  0.4234940000000 1.0
C      1  0.5675940000000  0.5063950000000  0.4437330000000 1.0
C      1  0.5517890000000  0.5753100000000  0.4963860000000 1.0
C      1  0.5069070000000  0.5497910000000  0.4233740000000 1.0
C      1  0.4308590000000  0.4950730000000  0.4442910000000 1.0
C      1  0.4300290000000  0.5067430000000  0.5556340000000 1.0
C      1  0.5782250000000  0.4938610000000  0.5495680000000 1.0
C      1  0.4562860000000  0.4388850000000  0.4940030000000 1.0
C      1  0.4485050000000  0.5765600000000  0.5069330000000 1.0
C      1  0.5448260000000  0.4392820000000  0.5074060000000 1.0
C      1  0.4937250000000  0.4501640000000  0.4236430000000 1.0
C      1  0.4941000000000  0.5507580000000  0.5780540000000 1.0
C      1  0.5064780000000  0.4501100000000  0.5779170000000 1.0
C      1  0.5138060000000  0.4541230000000  0.4619660000000 1.0
C      1  0.4654310000000  0.5135680000000  0.4518620000000 1.0
C      1  0.4545820000000  0.4627470000000  0.5164100000000 1.0
C      1  0.4865630000000  0.5470240000000  0.4645060000000 1.0
C      1  0.4865120000000  0.4535360000000  0.5393950000000 1.0
C      1  0.5132710000000  0.5467150000000  0.5357340000000 1.0
C      1  0.5373790000000  0.4866000000000  0.4506910000000 1.0
C      1  0.5330310000000  0.5136910000000  0.5446800000000 1.0
C      1  0.4645940000000  0.4873990000000  0.5499490000000 1.0
C      1  0.5457130000000  0.5351290000000  0.5133200000000 1.0
C      1  0.5466420000000  0.4629580000000  0.4839390000000 1.0
C      1  0.4545040000000  0.5354340000000  0.4867620000000 1.0
C      1  0.5127000000000  0.4543070000000  0.5384870000000 1.0
C      1  0.4644300000000  0.5137570000000  0.5481320000000 1.0
C      1  0.4550320000000  0.4629900000000  0.4852090000000 1.0
C      1  0.4864280000000  0.5466060000000  0.5358080000000 1.0
C      1  0.4874850000000  0.4542120000000  0.4621860000000 1.0
C      1  0.5135410000000  0.5466780000000  0.4647140000000 1.0
C      1  0.5329540000000  0.4878610000000  0.5449070000000 1.0
C      1  0.5345570000000  0.5128190000000  0.4518990000000 1.0
C      1  0.4648930000000  0.4872440000000  0.4521530000000 1.0
C      1  0.5456670000000  0.5349760000000  0.4868740000000 1.0
C      1  0.5453180000000  0.4635500000000  0.5148580000000 1.0
C      1  0.4546100000000  0.5351610000000  0.5133940000000 1.0
C      1  0.4579900000000  0.4942170000000  0.5623220000000 1.0
C      1  0.5580570000000  0.4663000000000  0.4918070000000 1.0
C      1  0.4924880000000  0.5596350000000  0.4676810000000 1.0
C      1  0.5287420000000  0.5083530000000  0.5571890000000 1.0
C      1  0.5364690000000  0.4933310000000  0.4377320000000 1.0
C      1  0.4592420000000  0.5075270000000  0.4387680000000 1.0
C      1  0.4422030000000  0.5309540000000  0.4924370000000 1.0
C      1  0.4432080000000  0.4662810000000  0.5084690000000 1.0
C      1  0.5579800000000  0.5304750000000  0.5077090000000 1.0
C      1  0.5081470000000  0.4419670000000  0.4667370000000 1.0
C      1  0.5076620000000  0.5592860000000  0.5322850000000 1.0
C      1  0.4924500000000  0.4415860000000  0.5344920000000 1.0
C      1  0.4629440000000  0.4936720000000  0.4385570000000 1.0
C      1  0.5570620000000  0.4668640000000  0.5072970000000 1.0
C      1  0.4923320000000  0.5592130000000  0.5324550000000 1.0
C      1  0.5401030000000  0.5073810000000  0.4381650000000 1.0
C      1  0.5287970000000  0.4935080000000  0.5572550000000 1.0
C      1  0.4619550000000  0.5080030000000  0.5620000000000 1.0
C      1  0.4422950000000  0.5307980000000  0.5076700000000 1.0
C      1  0.4434290000000  0.4663130000000  0.4929380000000 1.0
C      1  0.5582020000000  0.5309430000000  0.4924620000000 1.0
C      1  0.5074750000000  0.4418570000000  0.5341870000000 1.0
C      1  0.5078600000000  0.5594220000000  0.4678020000000 1.0
C      1  0.4931040000000  0.4420240000000  0.4668880000000 1.0
C      1  0.5537260000000  0.4697010000000  0.5521030000000 1.0
C      1  0.5624640000000  0.5516090000000  0.4724620000000 1.0
C      1  0.4723640000000  0.5636750000000  0.5533920000000 1.0
C      1  0.4461680000000  0.5367100000000  0.5507120000000 1.0
C      1  0.4456150000000  0.4643240000000  0.4483670000000 1.0
C      1  0.5537560000000  0.5370400000000  0.4498940000000 1.0
C      1  0.4363600000000  0.4450840000000  0.4704780000000 1.0
C      1  0.4383610000000  0.5508890000000  0.5290410000000 1.0
C      1  0.5640850000000  0.4481210000000  0.5311390000000 1.0
C      1  0.5299220000000  0.4401800000000  0.5534630000000 1.0
C      1  0.5285620000000  0.5643390000000  0.4474460000000 1.0
C      1  0.4713520000000  0.4376040000000  0.4479690000000 1.0
C      1  0.5554860000000  0.4626330000000  0.4465620000000 1.0
C      1  0.5626620000000  0.5488000000000  0.5303840000000 1.0
C      1  0.4719390000000  0.5646330000000  0.4467200000000 1.0
C      1  0.4464400000000  0.5375080000000  0.4494580000000 1.0
C      1  0.4446670000000  0.4633290000000  0.5528070000000 1.0
C      1  0.5540060000000  0.5313760000000  0.5513840000000 1.0
C      1  0.4357110000000  0.4449760000000  0.5309030000000 1.0
C      1  0.4381490000000  0.5514880000000  0.4714590000000 1.0
C      1  0.5647780000000  0.4442640000000  0.4701660000000 1.0
C      1  0.5289830000000  0.4368080000000  0.4474940000000 1.0
C      1  0.5297700000000  0.5606520000000  0.5528350000000 1.0
C      1  0.4712360000000  0.4368700000000  0.5537700000000 1.0
C      1  0.5250140000000  0.5442490000000  0.5289830000000 1.0
C      1  0.5272850000000  0.5257500000000  0.5432030000000 1.0
C      1  0.5428730000000  0.5285630000000  0.5249120000000 1.0
C      1  0.4743920000000  0.4553350000000  0.5336450000000 1.0
C      1  0.4747550000000  0.5445860000000  0.4711500000000 1.0
C      1  0.5260440000000  0.4558510000000  0.4676690000000 1.0
C      1  0.4697230000000  0.4740490000000  0.5475660000000 1.0
C      1  0.4706410000000  0.5266480000000  0.4554090000000 1.0
C      1  0.5306110000000  0.4747700000000  0.4537970000000 1.0
C      1  0.4565590000000  0.4703410000000  0.5277450000000 1.0
C      1  0.4566520000000  0.5293760000000  0.4746880000000 1.0
C      1  0.5447200000000  0.4704560000000  0.4724480000000 1.0
C      1  0.5252800000000  0.5440240000000  0.4714030000000 1.0
C      1  0.5293180000000  0.5259230000000  0.4556950000000 1.0
C      1  0.5433820000000  0.5286040000000  0.4749360000000 1.0
C      1  0.4753750000000  0.4559190000000  0.4681940000000 1.0
C      1  0.4747900000000  0.5440950000000  0.5289940000000 1.0
C      1  0.5246860000000  0.4563230000000  0.5322420000000 1.0
C      1  0.4709120000000  0.4747960000000  0.4546720000000 1.0
C      1  0.4708890000000  0.5258470000000  0.5447170000000 1.0
C      1  0.5273150000000  0.4756490000000  0.5443420000000 1.0
C      1  0.4571700000000  0.4707960000000  0.4739570000000 1.0
C      1  0.4568460000000  0.5288240000000  0.5253800000000 1.0
C      1  0.5424660000000  0.4717790000000  0.5256170000000 1.0
C      1  0.4927450000000  0.4429050000000  0.5190310000000 1.0
C      1  0.5226330000000  0.4940330000000  0.4424820000000 1.0
C      1  0.4434030000000  0.5155690000000  0.4927890000000 1.0
C      1  0.5071670000000  0.5583900000000  0.5170840000000 1.0
C      1  0.5077830000000  0.4430900000000  0.4822650000000 1.0
C      1  0.4929950000000  0.5585390000000  0.4829350000000 1.0
C      1  0.4787460000000  0.5081050000000  0.4464200000000 1.0
C      1  0.4779490000000  0.4927980000000  0.5557600000000 1.0
C      1  0.5132830000000  0.5078390000000  0.5565980000000 1.0
C      1  0.5582640000000  0.4814930000000  0.4917980000000 1.0
C      1  0.5566130000000  0.5151540000000  0.5066180000000 1.0
C      1  0.4433650000000  0.4815360000000  0.5077850000000 1.0
C      1  0.4937050000000  0.4430750000000  0.4823560000000 1.0
C      1  0.5133120000000  0.4938270000000  0.5568150000000 1.0
C      1  0.4435060000000  0.5154510000000  0.5068810000000 1.0
C      1  0.5070150000000  0.5583480000000  0.4830610000000 1.0
C      1  0.5068410000000  0.4428860000000  0.5188360000000 1.0
C      1  0.4931040000000  0.5582520000000  0.5170840000000 1.0
C      1  0.4762370000000  0.5069320000000  0.5576960000000 1.0
C      1  0.4770610000000  0.4942090000000  0.4435810000000 1.0
C      1  0.5208670000000  0.5074720000000  0.4465670000000 1.0
C      1  0.5569420000000  0.4820810000000  0.5057470000000 1.0
C      1  0.5568920000000  0.5155200000000  0.4926680000000 1.0
C      1  0.4435030000000  0.4815710000000  0.4937390000000 1.0
C      1  0.5524060000000  0.4482390000000  0.5391440000000 1.0
C      1  0.5353780000000  0.5523680000000  0.4461240000000 1.0
C      1  0.4531870000000  0.5486800000000  0.5484470000000 1.0
C      1  0.4496990000000  0.5545050000000  0.5360110000000 1.0
C      1  0.4480290000000  0.4444030000000  0.4624370000000 1.0
C      1  0.5510250000000  0.5549790000000  0.4654390000000 1.0
C      1  0.4641790000000  0.4489880000000  0.4449030000000 1.0
C      1  0.4651930000000  0.5519540000000  0.5553410000000 1.0
C      1  0.5365520000000  0.4519260000000  0.5571620000000 1.0
C      1  0.5485810000000  0.4564000000000  0.5510350000000 1.0
C      1  0.5474570000000  0.5491850000000  0.4529570000000 1.0
C      1  0.4514470000000  0.4517630000000  0.4506120000000 1.0
C      1  0.5530910000000  0.4435670000000  0.4619510000000 1.0
C      1  0.5362880000000  0.5488980000000  0.5563710000000 1.0
C      1  0.4529290000000  0.5496430000000  0.4519410000000 1.0
C      1  0.4494580000000  0.5552440000000  0.4644800000000 1.0
C      1  0.4473150000000  0.4437480000000  0.5390170000000 1.0
C      1  0.5512130000000  0.5511860000000  0.5376350000000 1.0
C      1  0.4635820000000  0.4479480000000  0.5570490000000 1.0
C      1  0.4649900000000  0.5527740000000  0.4451500000000 1.0
C      1  0.5364490000000  0.4479920000000  0.4443970000000 1.0
C      1  0.5494380000000  0.4503740000000  0.4497260000000 1.0
C      1  0.5479610000000  0.5441470000000  0.5500170000000 1.0
C      1  0.4508410000000  0.4507840000000  0.5510670000000 1.0
C      1  0.4702230000000  0.5083930000000  0.4173250000000 1.0
C      1  0.4183680000000  0.4694940000000  0.5077440000000 1.0
C      1  0.5077840000000  0.4182950000000  0.4712700000000 1.0
C      1  0.5294990000000  0.4936710000000  0.4155330000000 1.0
C      1  0.5285740000000  0.5084310000000  0.5809040000000 1.0
C      1  0.4678880000000  0.4941580000000  0.5842000000000 1.0
C      1  0.5821890000000  0.5277580000000  0.5073490000000 1.0
C      1  0.5827910000000  0.4695430000000  0.4925800000000 1.0
C      1  0.4183390000000  0.5281370000000  0.4927320000000 1.0
C      1  0.4930360000000  0.5833190000000  0.4705980000000 1.0
C      1  0.4933190000000  0.4178960000000  0.5301880000000 1.0
C      1  0.5076470000000  0.5831270000000  0.5301370000000 1.0
C      1  0.4682050000000  0.5089550000000  0.5846040000000 1.0
C      1  0.4186450000000  0.4696060000000  0.4929570000000 1.0
C      1  0.5079170000000  0.4181180000000  0.5300840000000 1.0
C      1  0.5283940000000  0.4938350000000  0.5810730000000 1.0
C      1  0.5293330000000  0.5085340000000  0.4168490000000 1.0
C      1  0.4703580000000  0.4935820000000  0.4163500000000 1.0
C      1  0.5820410000000  0.5280850000000  0.4927000000000 1.0
C      1  0.5822430000000  0.4700440000000  0.5073250000000 1.0
C      1  0.4183830000000  0.5279530000000  0.5074200000000 1.0
C      1  0.4928490000000  0.5829980000000  0.5300930000000 1.0
C      1  0.4932040000000  0.4182860000000  0.4714150000000 1.0
C      1  0.5078110000000  0.5831270000000  0.4707370000000 1.0
C      1  0.5615900000000  0.4726650000000  0.4550690000000 1.0
C      1  0.4569990000000  0.5623950000000  0.4747870000000 1.0
C      1  0.4738540000000  0.4561760000000  0.5638690000000 1.0
C      1  0.4402300000000  0.5271890000000  0.4577240000000 1.0
C      1  0.4392650000000  0.4736270000000  0.5438350000000 1.0
C      1  0.5614220000000  0.5250110000000  0.5403830000000 1.0
C      1  0.5441550000000  0.4369980000000  0.4713280000000 1.0
C      1  0.5435810000000  0.5598010000000  0.5281260000000 1.0
C      1  0.4561930000000  0.4367760000000  0.5299080000000 1.0
C      1  0.5252690000000  0.5418820000000  0.5628730000000 1.0
C      1  0.5262030000000  0.4565240000000  0.4378060000000 1.0
C      1  0.4750440000000  0.5440730000000  0.4386290000000 1.0
C      1  0.5607500000000  0.4761560000000  0.5408510000000 1.0
C      1  0.4571590000000  0.5619170000000  0.5258170000000 1.0
C      1  0.4745050000000  0.4571670000000  0.4381530000000 1.0
C      1  0.4403760000000  0.5263060000000  0.5422420000000 1.0
C      1  0.4406360000000  0.4749970000000  0.4569850000000 1.0
C      1  0.5600110000000  0.5264570000000  0.4576950000000 1.0
C      1  0.5439510000000  0.4397850000000  0.5305150000000 1.0
C      1  0.5432600000000  0.5620820000000  0.4757760000000 1.0
C      1  0.4571040000000  0.4372870000000  0.4713420000000 1.0
C      1  0.5253740000000  0.5437760000000  0.4393970000000 1.0
C      1  0.5255270000000  0.4589360000000  0.5636850000000 1.0
C      1  0.4750690000000  0.5433850000000  0.5623400000000 1.0
C      1  0.4504530000000  0.5253300000000  0.5744080000000 1.0
C      1  0.5717630000000  0.4473850000000  0.5080250000000 1.0
C      1  0.5075590000000  0.5726280000000  0.4480950000000 1.0
C      1  0.5494630000000  0.4926570000000  0.5670930000000 1.0
C      1  0.5466750000000  0.5257800000000  0.4268120000000 1.0
C      1  0.4520520000000  0.4767800000000  0.4254230000000 1.0
C      1  0.4289950000000  0.5501470000000  0.5075470000000 1.0
C      1  0.4290170000000  0.4466100000000  0.4932960000000 1.0
C      1  0.5715200000000  0.5502010000000  0.4940880000000 1.0
C      1  0.4928640000000  0.4278420000000  0.4483930000000 1.0
C      1  0.4938480000000  0.5717700000000  0.5523490000000 1.0
C      1  0.5082990000000  0.4287130000000  0.5529430000000 1.0
C      1  0.4525060000000  0.5254830000000  0.4266240000000 1.0
C      1  0.5720690000000  0.4466340000000  0.4934060000000 1.0
C      1  0.5083740000000  0.5714820000000  0.5521380000000 1.0
C      1  0.5480610000000  0.4767840000000  0.4242790000000 1.0
C      1  0.5496190000000  0.5088790000000  0.5669350000000 1.0
C      1  0.4505860000000  0.4767470000000  0.5749990000000 1.0
C      1  0.4289610000000  0.5503020000000  0.4930160000000 1.0
C      1  0.4286970000000  0.4465950000000  0.5078170000000 1.0
C      1  0.5715670000000  0.5495940000000  0.5086700000000 1.0
C      1  0.4934970000000  0.4279910000000  0.5531270000000 1.0
C      1  0.4932480000000  0.5727520000000  0.4479890000000 1.0
C      1  0.5074310000000  0.4277260000000  0.4482280000000 1.0
C      1  0.5180360000000  0.5637680000000  0.5594300000000 1.0
C      1  0.5570360000000  0.5189860000000  0.5595000000000 1.0
C      1  0.5650510000000  0.5566750000000  0.5192780000000 1.0
C      1  0.4830940000000  0.4347450000000  0.5604760000000 1.0
C      1  0.4837100000000  0.5658500000000  0.4398610000000 1.0
C      1  0.5173070000000  0.4348400000000  0.4406090000000 1.0
C      1  0.4433970000000  0.4728470000000  0.5639190000000 1.0
C      1  0.4449770000000  0.5288620000000  0.4376850000000 1.0
C      1  0.5555760000000  0.4724500000000  0.4351020000000 1.0
C      1  0.4350270000000  0.4387700000000  0.5183400000000 1.0
C      1  0.4355670000000  0.5582720000000  0.4832130000000 1.0
C      1  0.5655240000000  0.4386270000000  0.4829960000000 1.0
C      1  0.5171040000000  0.5656360000000  0.4400910000000 1.0
C      1  0.5545240000000  0.5285680000000  0.4378810000000 1.0
C      1  0.5647750000000  0.5582860000000  0.4843680000000 1.0
C      1  0.4829530000000  0.4352530000000  0.4410560000000 1.0
C      1  0.4841120000000  0.5650070000000  0.5603270000000 1.0
C      1  0.5181170000000  0.4368120000000  0.5598490000000 1.0
C      1  0.4447550000000  0.4734790000000  0.4368000000000 1.0
C      1  0.4437770000000  0.5283380000000  0.5625760000000 1.0
C      1  0.5566820000000  0.4823080000000  0.5598730000000 1.0
C      1  0.4356310000000  0.4387550000000  0.4829570000000 1.0
C      1  0.4356740000000  0.5579190000000  0.5174570000000 1.0
C      1  0.5652660000000  0.4406490000000  0.5192130000000 1.0
C      1  0.4833170000000  0.4466800000000  0.5694840000000 1.0
C      1  0.5637260000000  0.4813780000000  0.4437010000000 1.0
C      1  0.4469990000000  0.5678020000000  0.4838140000000 1.0
C      1  0.5168510000000  0.5521520000000  0.5687400000000 1.0
C      1  0.5168770000000  0.4471850000000  0.4320100000000 1.0
C      1  0.4840380000000  0.5530670000000  0.4319110000000 1.0
C      1  0.4360080000000  0.5198780000000  0.4457290000000 1.0
C      1  0.4350590000000  0.4818030000000  0.5551070000000 1.0
C      1  0.5682440000000  0.5160560000000  0.5498490000000 1.0
C      1  0.5520850000000  0.4332020000000  0.4832750000000 1.0
C      1  0.5535790000000  0.5661870000000  0.5195570000000 1.0
C      1  0.4483770000000  0.4330980000000  0.5179790000000 1.0
C      1  0.4835250000000  0.4474980000000  0.4323250000000 1.0
C      1  0.5678120000000  0.4850030000000  0.5499820000000 1.0
C      1  0.4470720000000  0.5674970000000  0.5169780000000 1.0
C      1  0.5167900000000  0.5527940000000  0.4322580000000 1.0
C      1  0.5167910000000  0.4485490000000  0.5690970000000 1.0
C      1  0.4843350000000  0.5526590000000  0.5687200000000 1.0
C      1  0.4360350000000  0.5187590000000  0.5540470000000 1.0
C      1  0.4370760000000  0.4831440000000  0.4454900000000 1.0
C      1  0.5636000000000  0.5191740000000  0.4453990000000 1.0
C      1  0.5521060000000  0.4349680000000  0.5190660000000 1.0
C      1  0.5530270000000  0.5672820000000  0.4854070000000 1.0
C      1  0.4491010000000  0.4332610000000  0.4831300000000 1.0
C      1  0.5385710000000  0.4514360000000  0.5131890000000 1.0
C      1  0.5071000000000  0.5380230000000  0.4554950000000 1.0
C      1  0.4559840000000  0.5070470000000  0.5384400000000 1.0
C      1  0.4625610000000  0.5451060000000  0.5072100000000 1.0
C      1  0.4618600000000  0.4510260000000  0.4873630000000 1.0
C      1  0.5374760000000  0.5447660000000  0.4931010000000 1.0
C      1  0.4936230000000  0.4632260000000  0.4533540000000 1.0
C      1  0.4926270000000  0.5381020000000  0.5452760000000 1.0
C      1  0.5064230000000  0.4628160000000  0.5476350000000 1.0
C      1  0.5427820000000  0.4936520000000  0.5365220000000 1.0
C      1  0.5440000000000  0.5069630000000  0.4616740000000 1.0
C      1  0.4564120000000  0.4933680000000  0.4621770000000 1.0
C      1  0.5396750000000  0.4511700000000  0.4866650000000 1.0
C      1  0.5067170000000  0.5383990000000  0.5451180000000 1.0
C      1  0.4562960000000  0.5073810000000  0.4619680000000 1.0
C      1  0.4625220000000  0.5452500000000  0.4930300000000 1.0
C      1  0.4612810000000  0.4507620000000  0.5142750000000 1.0
C      1  0.5377620000000  0.5450800000000  0.5072820000000 1.0
C      1  0.4924350000000  0.4625370000000  0.5482370000000 1.0
C      1  0.4929310000000  0.5382200000000  0.4553710000000 1.0
C      1  0.5076530000000  0.4631590000000  0.4531880000000 1.0
C      1  0.5483460000000  0.4931860000000  0.4584370000000 1.0
C      1  0.5429060000000  0.5075320000000  0.5366150000000 1.0
C      1  0.4559760000000  0.4930060000000  0.5390420000000 1.0
C      1  0.5312950000000  0.4448580000000  0.4762910000000 1.0
C      1  0.4818830000000  0.5316190000000  0.4468170000000 1.0
C      1  0.4474000000000  0.4816560000000  0.5320600000000 1.0
C      1  0.4693420000000  0.5542890000000  0.4821060000000 1.0
C      1  0.4692220000000  0.4444000000000  0.5249900000000 1.0
C      1  0.5309030000000  0.5537320000000  0.5188190000000 1.0
C      1  0.5191370000000  0.4699780000000  0.4451930000000 1.0
C      1  0.5172090000000  0.5311530000000  0.5536790000000 1.0
C      1  0.4808250000000  0.4691940000000  0.5564300000000 1.0
C      1  0.5524340000000  0.5176800000000  0.5297930000000 1.0
C      1  0.5545590000000  0.4809880000000  0.4674100000000 1.0
C      1  0.4475350000000  0.5183780000000  0.4691690000000 1.0
C      1  0.5304580000000  0.4456020000000  0.5241550000000 1.0
C      1  0.4817620000000  0.5307880000000  0.5539640000000 1.0
C      1  0.4480270000000  0.4821440000000  0.4695120000000 1.0
C      1  0.4694320000000  0.5539740000000  0.5181970000000 1.0
C      1  0.4701040000000  0.4449510000000  0.4767100000000 1.0
C      1  0.5306370000000  0.5538180000000  0.4823280000000 1.0
C      1  0.5174860000000  0.4703870000000  0.5551840000000 1.0
C      1  0.5181480000000  0.5311420000000  0.4471260000000 1.0
C      1  0.4820510000000  0.4702350000000  0.4457380000000 1.0
C      1  0.5524640000000  0.5176410000000  0.4692020000000 1.0
C      1  0.5518650000000  0.4831020000000  0.5295660000000 1.0
C      1  0.4475650000000  0.5178250000000  0.5305880000000 1.0
C      1  0.5105500000000  0.5205040000000  0.5619000000000 1.0
C      1  0.5613340000000  0.5113030000000  0.5191400000000 1.0
C      1  0.5200300000000  0.5632720000000  0.5138530000000 1.0
C      1  0.4835050000000  0.4822020000000  0.5636370000000 1.0
C      1  0.4851740000000  0.5188110000000  0.4396450000000 1.0
C      1  0.5152350000000  0.4824180000000  0.4379080000000 1.0
C      1  0.4383030000000  0.4852700000000  0.5204270000000 1.0
C      1  0.4384640000000  0.5123330000000  0.4799930000000 1.0
C      1  0.5633560000000  0.4848230000000  0.4789300000000 1.0
C      1  0.4801480000000  0.4376840000000  0.5156580000000 1.0
C      1  0.4805150000000  0.5635270000000  0.4867900000000 1.0
C      1  0.5204770000000  0.4381800000000  0.4857880000000 1.0
C      1  0.5146090000000  0.5184180000000  0.4398940000000 1.0
C      1  0.5617970000000  0.5120020000000  0.4801610000000 1.0
C      1  0.5194920000000  0.5630790000000  0.4870920000000 1.0
C      1  0.4851480000000  0.4830100000000  0.4384710000000 1.0
C      1  0.4841650000000  0.5182900000000  0.5623520000000 1.0
C      1  0.5108570000000  0.4814800000000  0.5629840000000 1.0
C      1  0.4387340000000  0.4854830000000  0.4810820000000 1.0
C      1  0.4385520000000  0.5120810000000  0.5195650000000 1.0
C      1  0.5613840000000  0.4863830000000  0.5182870000000 1.0
C      1  0.4810430000000  0.4381480000000  0.4860300000000 1.0
C      1  0.4805670000000  0.5632740000000  0.5134890000000 1.0
C      1  0.5196860000000  0.4381970000000  0.5153640000000 1.0
C      1  0.4851510000000  0.4938630000000  0.4174540000000 1.0
C      1  0.4180440000000  0.4841260000000  0.4928980000000 1.0
C      1  0.4932160000000  0.4176160000000  0.4861820000000 1.0
C      1  0.5146300000000  0.5084000000000  0.4180830000000 1.0
C      1  0.5137440000000  0.4940190000000  0.5830310000000 1.0
C      1  0.4829340000000  0.5086060000000  0.5841340000000 1.0
C      1  0.5828390000000  0.5135710000000  0.4922560000000 1.0
C      1  0.5829060000000  0.4844540000000  0.5070150000000 1.0
C      1  0.4176620000000  0.5134370000000  0.5074410000000 1.0
C      1  0.5077830000000  0.5840300000000  0.4852820000000 1.0
C      1  0.5078890000000  0.4175820000000  0.5152960000000 1.0
C      1  0.4927460000000  0.5840250000000  0.5155560000000 1.0
C      1  0.4826020000000  0.4937610000000  0.5842030000000 1.0
C      1  0.4177900000000  0.4839610000000  0.5079120000000 1.0
C      1  0.4930130000000  0.4173470000000  0.5154510000000 1.0
C      1  0.5139850000000  0.5087620000000  0.5827090000000 1.0
C      1  0.5147150000000  0.4937320000000  0.4170680000000 1.0
C      1  0.4849510000000  0.5085350000000  0.4181860000000 1.0
C      1  0.5830000000000  0.5133760000000  0.5071950000000 1.0
C      1  0.5833090000000  0.4840960000000  0.4920950000000 1.0
C      1  0.4176090000000  0.5136620000000  0.4923660000000 1.0
C      1  0.5077270000000  0.5840150000000  0.5155930000000 1.0
C      1  0.5080730000000  0.4176070000000  0.4859970000000 1.0
C      1  0.4928270000000  0.5841720000000  0.4851570000000 1.0
C      1  0.4283450000000  0.4608040000000  0.5127790000000 1.0
C      1  0.5130950000000  0.4278960000000  0.4621610000000 1.0
C      1  0.4600830000000  0.5141700000000  0.4257100000000 1.0
C      1  0.5717180000000  0.5354260000000  0.5131090000000 1.0
C      1  0.5728590000000  0.4606060000000  0.4878690000000 1.0
C      1  0.4285980000000  0.5364760000000  0.4876340000000 1.0
C      1  0.4878610000000  0.5733250000000  0.4618700000000 1.0
C      1  0.4879880000000  0.4274930000000  0.5392210000000 1.0
C      1  0.5128150000000  0.5726120000000  0.5381610000000 1.0
C      1  0.5387900000000  0.4868410000000  0.4240930000000 1.0
C      1  0.5359480000000  0.5133940000000  0.5697330000000 1.0
C      1  0.4581400000000  0.4881120000000  0.5756140000000 1.0
C      1  0.4287490000000  0.4608570000000  0.4882550000000 1.0
C      1  0.5130480000000  0.4282010000000  0.5388550000000 1.0
C      1  0.4594320000000  0.5151640000000  0.5752340000000 1.0
C      1  0.5718130000000  0.5366190000000  0.4879670000000 1.0
C      1  0.5719070000000  0.4617730000000  0.5122840000000 1.0
C      1  0.4286570000000  0.5361970000000  0.5126620000000 1.0
C      1  0.4878810000000  0.5727570000000  0.5386300000000 1.0
C      1  0.4878110000000  0.4280010000000  0.4624770000000 1.0
C      1  0.5129610000000  0.5729980000000  0.4620740000000 1.0
C      1  0.5356890000000  0.4884710000000  0.5699700000000 1.0
C      1  0.5389950000000  0.5145320000000  0.4255030000000 1.0
C      1  0.4610540000000  0.4869970000000  0.4250970000000 1.0
C      1  0.5752560000000  0.5059130000000  0.4825800000000 1.0
C      1  0.4832110000000  0.5766100000000  0.5073890000000 1.0
C      1  0.5049860000000  0.4846020000000  0.5761880000000 1.0
C      1  0.4256450000000  0.4919360000000  0.4831970000000 1.0
C      1  0.4252770000000  0.5058380000000  0.5172800000000 1.0
C      1  0.5748960000000  0.4920420000000  0.5163280000000 1.0
C      1  0.5176230000000  0.4257170000000  0.5078090000000 1.0
C      1  0.5171860000000  0.5763940000000  0.4933990000000 1.0
C      1  0.4833350000000  0.4256050000000  0.4936400000000 1.0
C      1  0.4909890000000  0.5166190000000  0.5751850000000 1.0
C      1  0.4929500000000  0.4855840000000  0.4264620000000 1.0
C      1  0.5069890000000  0.5160880000000  0.4276820000000 1.0
C      1  0.5751510000000  0.5060130000000  0.5169110000000 1.0
C      1  0.4831750000000  0.5767240000000  0.4931670000000 1.0
C      1  0.5072240000000  0.4851770000000  0.4260800000000 1.0
C      1  0.4252270000000  0.4917030000000  0.5177430000000 1.0
C      1  0.4251920000000  0.5060830000000  0.4825030000000 1.0
C      1  0.5759200000000  0.4917820000000  0.4822320000000 1.0
C      1  0.5179630000000  0.4256490000000  0.4934030000000 1.0
C      1  0.5172680000000  0.5765180000000  0.5076140000000 1.0
C      1  0.4830030000000  0.4253180000000  0.5080490000000 1.0
C      1  0.4927510000000  0.5163360000000  0.4275500000000 1.0
C      1  0.4906510000000  0.4851000000000  0.5760870000000 1.0
C      1  0.5052410000000  0.5178800000000  0.5754560000000 1.0
C      1  0.4675170000000  0.5332700000000  0.4671480000000 1.0
C      1  0.5317860000000  0.4680280000000  0.5337740000000 1.0
C      1  0.5338230000000  0.4670550000000  0.4647570000000 1.0
C      1  0.4668700000000  0.4668140000000  0.5362020000000 1.0
C      1  0.5324510000000  0.5325390000000  0.4674560000000 1.0
C      1  0.4676560000000  0.5327130000000  0.5329990000000 1.0
C      1  0.5319210000000  0.5328330000000  0.5322900000000 1.0
C      1  0.4676880000000  0.4672740000000  0.4657450000000 1.0
END
