TITL C-1379265-1223-291 1.48075739659527e-06 1000000 -2635.71557347787 0 0 380 (Th) n - 1
REM
REM in /nfs/bkarasulu/CARBON/AIRSS/Generating-Clusters/GAP-ML-2020/Higher-Symm/Selected-Sizes/TryA-Only_Ih-Symm/Larger-Clusters/Try2-MINAMP_6A
REM
REM
REM
REM
REM
REM ./C.cell (31579ac4e95a012ec27f3239692ae8a5)
REM
REM compiler GCC version 9.2.1 20190827 (Red Hat 9.2.1-1)
REM options -cpp -mtune=generic -march=x86-64 -g -O0 -fpre-include=/usr/include/finclude/math-vector-fortran.h
REM seed -707792612 1162159851 -603302535 1436259928 -434750377 1719751819 -744300101 -106145294 -250671323 -569152125 1184472982 -1139726543 -1327708458 661266528 1098370316 1105594263 1631214986 -686432642 -482644236 -41158592 1317366704 -113428081 1515673384 869855148 861849154 1294072086 498084385 -1850473371 791619985 -1226362545 1205593858 52744153 -1503103525
REM
CELL 1.54180  100.00000  100.00000  100.00000   90.00000   90.00000   90.00000
LATT -1
SFAC C  
C      1  0.5697140000000  0.5138160000000  0.5120350000000 1.0
C      1  0.5119970000000  0.5697410000000  0.5138270000000 1.0
C      1  0.5137890000000  0.5120230000000  0.5697520000000 1.0
C      1  0.4302640000000  0.5138160000000  0.4880190000000 1.0
C      1  0.5697140000000  0.4862150000000  0.4880190000000 1.0
C      1  0.4302630000000  0.4862150000000  0.5120340000000 1.0
C      1  0.4879810000000  0.5697410000000  0.4862260000000 1.0
C      1  0.5119970000000  0.4302900000000  0.4862260000000 1.0
C      1  0.4879810000000  0.4302900000000  0.5138270000000 1.0
C      1  0.4861890000000  0.5120230000000  0.4303010000000 1.0
C      1  0.5137890000000  0.4880070000000  0.4303010000000 1.0
C      1  0.4861890000000  0.4880070000000  0.5697520000000 1.0
C      1  0.5697140000000  0.4862150000000  0.5120340000000 1.0
C      1  0.5119970000000  0.4302900000000  0.5138270000000 1.0
C      1  0.5137890000000  0.4880070000000  0.5697520000000 1.0
C      1  0.4302630000000  0.4862150000000  0.4880190000000 1.0
C      1  0.5697140000000  0.5138160000000  0.4880190000000 1.0
C      1  0.4302630000000  0.5138160000000  0.5120350000000 1.0
C      1  0.4879810000000  0.4302900000000  0.4862260000000 1.0
C      1  0.5119970000000  0.5697410000000  0.4862260000000 1.0
C      1  0.4879810000000  0.5697410000000  0.5138270000000 1.0
C      1  0.4861890000000  0.4880070000000  0.4303010000000 1.0
C      1  0.5137890000000  0.5120230000000  0.4303010000000 1.0
C      1  0.4861890000000  0.5120230000000  0.5697520000000 1.0
C      1  0.5459130000000  0.5670380000000  0.5303820000000 1.0
C      1  0.5303440000000  0.5459390000000  0.5670490000000 1.0
C      1  0.5670110000000  0.5303710000000  0.5459500000000 1.0
C      1  0.4540650000000  0.5670370000000  0.4696710000000 1.0
C      1  0.5459130000000  0.4329930000000  0.4696710000000 1.0
C      1  0.4540650000000  0.4329930000000  0.5303820000000 1.0
C      1  0.4696330000000  0.5459390000000  0.4330040000000 1.0
C      1  0.5303440000000  0.4540910000000  0.4330040000000 1.0
C      1  0.4696340000000  0.4540910000000  0.5670490000000 1.0
C      1  0.4329660000000  0.5303710000000  0.4541030000000 1.0
C      1  0.5670110000000  0.4696600000000  0.4541030000000 1.0
C      1  0.4329670000000  0.4696600000000  0.5459510000000 1.0
C      1  0.5459130000000  0.4329930000000  0.5303820000000 1.0
C      1  0.5303440000000  0.4540910000000  0.5670490000000 1.0
C      1  0.5670110000000  0.4696600000000  0.5459500000000 1.0
C      1  0.4540650000000  0.4329930000000  0.4696710000000 1.0
C      1  0.5459130000000  0.5670370000000  0.4696710000000 1.0
C      1  0.4540650000000  0.5670370000000  0.5303820000000 1.0
C      1  0.4696340000000  0.4540920000000  0.4330040000000 1.0
C      1  0.5303440000000  0.5459390000000  0.4330040000000 1.0
C      1  0.4696330000000  0.5459390000000  0.5670490000000 1.0
C      1  0.4329670000000  0.4696600000000  0.4541030000000 1.0
C      1  0.5670110000000  0.5303710000000  0.4541030000000 1.0
C      1  0.4329660000000  0.5303710000000  0.5459500000000 1.0
C      1  0.5481060000000  0.5160280000000  0.4343690000000 1.0
C      1  0.4343310000000  0.5481320000000  0.5160390000000 1.0
C      1  0.5160010000000  0.4343570000000  0.5481430000000 1.0
C      1  0.4518720000000  0.5160280000000  0.5656850000000 1.0
C      1  0.5481060000000  0.4840030000000  0.5656850000000 1.0
C      1  0.4518720000000  0.4840030000000  0.4343690000000 1.0
C      1  0.5656470000000  0.5481320000000  0.4840140000000 1.0
C      1  0.4343300000000  0.4518990000000  0.4840140000000 1.0
C      1  0.5656470000000  0.4518990000000  0.5160390000000 1.0
C      1  0.4839760000000  0.4343570000000  0.4519100000000 1.0
C      1  0.5160020000000  0.5656740000000  0.4519100000000 1.0
C      1  0.4839760000000  0.5656740000000  0.5481430000000 1.0
C      1  0.5481060000000  0.4840030000000  0.4343680000000 1.0
C      1  0.4343300000000  0.4518990000000  0.5160390000000 1.0
C      1  0.5160020000000  0.5656740000000  0.5481430000000 1.0
C      1  0.4518720000000  0.4840030000000  0.5656850000000 1.0
C      1  0.5481060000000  0.5160280000000  0.5656850000000 1.0
C      1  0.4518720000000  0.5160280000000  0.4343690000000 1.0
C      1  0.5656470000000  0.4518990000000  0.4840140000000 1.0
C      1  0.4343310000000  0.5481320000000  0.4840140000000 1.0
C      1  0.5656470000000  0.5481320000000  0.5160390000000 1.0
C      1  0.4839760000000  0.5656740000000  0.4519100000000 1.0
C      1  0.5160010000000  0.4343570000000  0.4519100000000 1.0
C      1  0.4839760000000  0.4343570000000  0.5481430000000 1.0
C      1  0.4927850000000  0.4787760000000  0.5608220000000 1.0
C      1  0.5607840000000  0.4928120000000  0.4787870000000 1.0
C      1  0.4787490000000  0.5608110000000  0.4928230000000 1.0
C      1  0.5071920000000  0.4787760000000  0.4392310000000 1.0
C      1  0.4927850000000  0.5212550000000  0.4392310000000 1.0
C      1  0.5071920000000  0.5212550000000  0.5608230000000 1.0
C      1  0.4391930000000  0.4928120000000  0.5212660000000 1.0
C      1  0.5607840000000  0.5072190000000  0.5212660000000 1.0
C      1  0.4391930000000  0.5072190000000  0.4787870000000 1.0
C      1  0.5212280000000  0.5608110000000  0.5072300000000 1.0
C      1  0.4787490000000  0.4392190000000  0.5072300000000 1.0
C      1  0.5212280000000  0.4392190000000  0.4928230000000 1.0
C      1  0.4927850000000  0.5212550000000  0.5608220000000 1.0
C      1  0.5607840000000  0.5072190000000  0.4787870000000 1.0
C      1  0.4787490000000  0.4392190000000  0.4928230000000 1.0
C      1  0.5071920000000  0.5212550000000  0.4392310000000 1.0
C      1  0.4927850000000  0.4787760000000  0.4392310000000 1.0
C      1  0.5071920000000  0.4787760000000  0.5608220000000 1.0
C      1  0.4391930000000  0.5072190000000  0.5212660000000 1.0
C      1  0.5607850000000  0.4928120000000  0.5212660000000 1.0
C      1  0.4391930000000  0.4928120000000  0.4787870000000 1.0
C      1  0.5212290000000  0.4392190000000  0.5072300000000 1.0
C      1  0.4787490000000  0.5608110000000  0.5072300000000 1.0
C      1  0.5212280000000  0.5608110000000  0.4928230000000 1.0
C      1  0.4864270000000  0.5297150000000  0.5514220000000 1.0
C      1  0.5513840000000  0.4864530000000  0.5297250000000 1.0
C      1  0.5296870000000  0.5514110000000  0.4864650000000 1.0
C      1  0.5135510000000  0.5297150000000  0.4486310000000 1.0
C      1  0.4864270000000  0.4703160000000  0.4486310000000 1.0
C      1  0.5135510000000  0.4703160000000  0.5514220000000 1.0
C      1  0.4485930000000  0.4864530000000  0.4703280000000 1.0
C      1  0.5513840000000  0.5135770000000  0.4703280000000 1.0
C      1  0.4485940000000  0.5135770000000  0.5297260000000 1.0
C      1  0.4702900000000  0.5514110000000  0.5135880000000 1.0
C      1  0.5296880000000  0.4486200000000  0.5135880000000 1.0
C      1  0.4702900000000  0.4486190000000  0.4864650000000 1.0
C      1  0.4864270000000  0.4703160000000  0.5514220000000 1.0
C      1  0.5513840000000  0.5135770000000  0.5297260000000 1.0
C      1  0.5296880000000  0.4486200000000  0.4864650000000 1.0
C      1  0.5135510000000  0.4703160000000  0.4486310000000 1.0
C      1  0.4864270000000  0.5297150000000  0.4486310000000 1.0
C      1  0.5135510000000  0.5297150000000  0.5514220000000 1.0
C      1  0.4485940000000  0.5135770000000  0.4703280000000 1.0
C      1  0.5513840000000  0.4864530000000  0.4703280000000 1.0
C      1  0.4485930000000  0.4864530000000  0.5297250000000 1.0
C      1  0.4702900000000  0.4486190000000  0.5135880000000 1.0
C      1  0.5296870000000  0.5514110000000  0.5135890000000 1.0
C      1  0.4702900000000  0.5514110000000  0.4864650000000 1.0
C      1  0.4935270000000  0.4530240000000  0.4222330000000 1.0
C      1  0.4221950000000  0.4935540000000  0.4530350000000 1.0
C      1  0.4529980000000  0.4222220000000  0.4935650000000 1.0
C      1  0.5064500000000  0.4530240000000  0.5778200000000 1.0
C      1  0.4935270000000  0.5470060000000  0.5778200000000 1.0
C      1  0.5064500000000  0.5470050000000  0.4222330000000 1.0
C      1  0.5777820000000  0.4935540000000  0.5470170000000 1.0
C      1  0.4221950000000  0.5064770000000  0.5470180000000 1.0
C      1  0.5777830000000  0.5064770000000  0.4530360000000 1.0
C      1  0.5469790000000  0.4222220000000  0.5064880000000 1.0
C      1  0.4529980000000  0.5778090000000  0.5064880000000 1.0
C      1  0.5469800000000  0.5778090000000  0.4935650000000 1.0
C      1  0.4935270000000  0.5470050000000  0.4222330000000 1.0
C      1  0.4221950000000  0.5064770000000  0.4530350000000 1.0
C      1  0.4529980000000  0.5778090000000  0.4935650000000 1.0
C      1  0.5064500000000  0.5470060000000  0.5778200000000 1.0
C      1  0.4935270000000  0.4530240000000  0.5778200000000 1.0
C      1  0.5064500000000  0.4530240000000  0.4222330000000 1.0
C      1  0.5777820000000  0.5064770000000  0.5470170000000 1.0
C      1  0.4221950000000  0.4935540000000  0.5470180000000 1.0
C      1  0.5777830000000  0.4935540000000  0.4530360000000 1.0
C      1  0.5469800000000  0.5778090000000  0.5064880000000 1.0
C      1  0.4529980000000  0.4222220000000  0.5064880000000 1.0
C      1  0.5469790000000  0.4222220000000  0.4935650000000 1.0
C      1  0.4253350000000  0.5263280000000  0.4921920000000 1.0
C      1  0.4921540000000  0.4253620000000  0.5263390000000 1.0
C      1  0.5263010000000  0.4921810000000  0.4253730000000 1.0
C      1  0.5746420000000  0.5263280000000  0.5078610000000 1.0
C      1  0.4253350000000  0.4737030000000  0.5078610000000 1.0
C      1  0.5746420000000  0.4737030000000  0.4921920000000 1.0
C      1  0.5078230000000  0.4253620000000  0.4737140000000 1.0
C      1  0.4921540000000  0.5746690000000  0.4737140000000 1.0
C      1  0.5078230000000  0.5746690000000  0.5263390000000 1.0
C      1  0.4736760000000  0.4921810000000  0.5746800000000 1.0
C      1  0.5263010000000  0.5078500000000  0.5746800000000 1.0
C      1  0.4736760000000  0.5078500000000  0.4253730000000 1.0
C      1  0.4253350000000  0.4737030000000  0.4921920000000 1.0
C      1  0.4921540000000  0.5746690000000  0.5263390000000 1.0
C      1  0.5263010000000  0.5078500000000  0.4253730000000 1.0
C      1  0.5746430000000  0.4737030000000  0.5078610000000 1.0
C      1  0.4253350000000  0.5263280000000  0.5078610000000 1.0
C      1  0.5746420000000  0.5263280000000  0.4921920000000 1.0
C      1  0.5078230000000  0.5746690000000  0.4737140000000 1.0
C      1  0.4921540000000  0.4253620000000  0.4737140000000 1.0
C      1  0.5078230000000  0.4253620000000  0.5263390000000 1.0
C      1  0.4736760000000  0.5078500000000  0.5746800000000 1.0
C      1  0.5263010000000  0.4921810000000  0.5746800000000 1.0
C      1  0.4736760000000  0.4921810000000  0.4253730000000 1.0
C      1  0.5416920000000  0.5418350000000  0.5602120000000 1.0
C      1  0.5601740000000  0.5417180000000  0.5418460000000 1.0
C      1  0.5418080000000  0.5602010000000  0.5417300000000 1.0
C      1  0.4582860000000  0.5418350000000  0.4398410000000 1.0
C      1  0.5416920000000  0.4581960000000  0.4398410000000 1.0
C      1  0.4582860000000  0.4581960000000  0.5602120000000 1.0
C      1  0.4398030000000  0.5417180000000  0.4582070000000 1.0
C      1  0.5601740000000  0.4583120000000  0.4582070000000 1.0
C      1  0.4398030000000  0.4583120000000  0.5418460000000 1.0
C      1  0.4581690000000  0.5602010000000  0.4583230000000 1.0
C      1  0.5418080000000  0.4398300000000  0.4583230000000 1.0
C      1  0.4581690000000  0.4398300000000  0.5417300000000 1.0
C      1  0.5416920000000  0.4581960000000  0.5602120000000 1.0
C      1  0.5601740000000  0.4583120000000  0.5418460000000 1.0
C      1  0.5418080000000  0.4398300000000  0.5417300000000 1.0
C      1  0.4582860000000  0.4581960000000  0.4398410000000 1.0
C      1  0.5416920000000  0.5418350000000  0.4398410000000 1.0
C      1  0.4582860000000  0.5418350000000  0.5602120000000 1.0
C      1  0.4398030000000  0.4583120000000  0.4582070000000 1.0
C      1  0.5601740000000  0.5417180000000  0.4582070000000 1.0
C      1  0.4398030000000  0.5417180000000  0.5418460000000 1.0
C      1  0.4581690000000  0.4398300000000  0.4583230000000 1.0
C      1  0.5418080000000  0.5602010000000  0.4583240000000 1.0
C      1  0.4581690000000  0.5602010000000  0.5417300000000 1.0
C      1  0.5739760000000  0.4595450000000  0.4924270000000 1.0
C      1  0.4923890000000  0.5740030000000  0.4595560000000 1.0
C      1  0.4595180000000  0.4924150000000  0.5740140000000 1.0
C      1  0.4260020000000  0.4595450000000  0.5076260000000 1.0
C      1  0.5739760000000  0.5404860000000  0.5076260000000 1.0
C      1  0.4260020000000  0.5404860000000  0.4924270000000 1.0
C      1  0.5075890000000  0.5740030000000  0.5404970000000 1.0
C      1  0.4923890000000  0.4260280000000  0.5404980000000 1.0
C      1  0.5075890000000  0.4260280000000  0.4595560000000 1.0
C      1  0.5404600000000  0.4924150000000  0.4260390000000 1.0
C      1  0.4595180000000  0.5076150000000  0.4260400000000 1.0
C      1  0.5404600000000  0.5076150000000  0.5740140000000 1.0
C      1  0.5739760000000  0.5404860000000  0.4924270000000 1.0
C      1  0.4923890000000  0.4260280000000  0.4595560000000 1.0
C      1  0.4595180000000  0.5076150000000  0.5740140000000 1.0
C      1  0.4260020000000  0.5404860000000  0.5076260000000 1.0
C      1  0.5739760000000  0.4595450000000  0.5076260000000 1.0
C      1  0.4260020000000  0.4595450000000  0.4924270000000 1.0
C      1  0.5075890000000  0.4260280000000  0.5404980000000 1.0
C      1  0.4923890000000  0.5740030000000  0.5404970000000 1.0
C      1  0.5075890000000  0.5740030000000  0.4595560000000 1.0
C      1  0.5404600000000  0.5076150000000  0.4260390000000 1.0
C      1  0.4595180000000  0.4924150000000  0.4260400000000 1.0
C      1  0.5404600000000  0.4924150000000  0.5740140000000 1.0
C      1  0.5070420000000  0.4446550000000  0.5523310000000 1.0
C      1  0.5522930000000  0.5070680000000  0.4446660000000 1.0
C      1  0.4446280000000  0.5523190000000  0.5070790000000 1.0
C      1  0.4929360000000  0.4446540000000  0.4477220000000 1.0
C      1  0.5070420000000  0.5553770000000  0.4477220000000 1.0
C      1  0.4929360000000  0.5553770000000  0.5523310000000 1.0
C      1  0.4476850000000  0.5070680000000  0.5553870000000 1.0
C      1  0.5522930000000  0.4929620000000  0.5553870000000 1.0
C      1  0.4476850000000  0.4929620000000  0.4446660000000 1.0
C      1  0.5553490000000  0.5523190000000  0.4929740000000 1.0
C      1  0.4446270000000  0.4477110000000  0.4929740000000 1.0
C      1  0.5553500000000  0.4477110000000  0.5070790000000 1.0
C      1  0.5070420000000  0.5553770000000  0.5523310000000 1.0
C      1  0.5522930000000  0.4929620000000  0.4446660000000 1.0
C      1  0.4446270000000  0.4477110000000  0.5070790000000 1.0
C      1  0.4929360000000  0.5553770000000  0.4477220000000 1.0
C      1  0.5070420000000  0.4446540000000  0.4477220000000 1.0
C      1  0.4929360000000  0.4446550000000  0.5523310000000 1.0
C      1  0.4476850000000  0.4929620000000  0.5553870000000 1.0
C      1  0.5522930000000  0.5070680000000  0.5553870000000 1.0
C      1  0.4476850000000  0.5070680000000  0.4446660000000 1.0
C      1  0.5553500000000  0.4477110000000  0.4929740000000 1.0
C      1  0.4446280000000  0.5523190000000  0.4929740000000 1.0
C      1  0.5553490000000  0.5523190000000  0.5070790000000 1.0
C      1  0.5441610000000  0.5254290000000  0.5302280000000 1.0
C      1  0.5301890000000  0.5441880000000  0.5254410000000 1.0
C      1  0.5254030000000  0.5302160000000  0.5442000000000 1.0
C      1  0.4558160000000  0.5254300000000  0.4698260000000 1.0
C      1  0.5441620000000  0.4746010000000  0.4698260000000 1.0
C      1  0.4558160000000  0.4746010000000  0.5302270000000 1.0
C      1  0.4697880000000  0.5441880000000  0.4746120000000 1.0
C      1  0.5301900000000  0.4558420000000  0.4746120000000 1.0
C      1  0.4697880000000  0.4558420000000  0.5254410000000 1.0
C      1  0.4745750000000  0.5302170000000  0.4558540000000 1.0
C      1  0.5254030000000  0.4698140000000  0.4558540000000 1.0
C      1  0.4745750000000  0.4698140000000  0.5441990000000 1.0
C      1  0.5441620000000  0.4746010000000  0.5302270000000 1.0
C      1  0.5301900000000  0.4558420000000  0.5254410000000 1.0
C      1  0.5254030000000  0.4698150000000  0.5441990000000 1.0
C      1  0.4558160000000  0.4746010000000  0.4698260000000 1.0
C      1  0.5441610000000  0.5254290000000  0.4698260000000 1.0
C      1  0.4558160000000  0.5254290000000  0.5302280000000 1.0
C      1  0.4697880000000  0.4558420000000  0.4746120000000 1.0
C      1  0.5301890000000  0.5441880000000  0.4746120000000 1.0
C      1  0.4697880000000  0.5441880000000  0.5254410000000 1.0
C      1  0.4745750000000  0.4698140000000  0.4558540000000 1.0
C      1  0.5254030000000  0.5302160000000  0.4558530000000 1.0
C      1  0.4745750000000  0.5302160000000  0.5442000000000 1.0
C      1  0.4617280000000  0.4766090000000  0.4559320000000 1.0
C      1  0.4558940000000  0.4617540000000  0.4766200000000 1.0
C      1  0.4765820000000  0.4559200000000  0.4617660000000 1.0
C      1  0.5382490000000  0.4766090000000  0.5441210000000 1.0
C      1  0.4617290000000  0.5234220000000  0.5441210000000 1.0
C      1  0.5382490000000  0.5234220000000  0.4559320000000 1.0
C      1  0.5440840000000  0.4617550000000  0.5234330000000 1.0
C      1  0.4558940000000  0.5382760000000  0.5234330000000 1.0
C      1  0.5440830000000  0.5382760000000  0.4766200000000 1.0
C      1  0.5233950000000  0.4559210000000  0.5382870000000 1.0
C      1  0.4765820000000  0.5441100000000  0.5382870000000 1.0
C      1  0.5233950000000  0.5441100000000  0.4617660000000 1.0
C      1  0.4617290000000  0.5234220000000  0.4559320000000 1.0
C      1  0.4558940000000  0.5382760000000  0.4766200000000 1.0
C      1  0.4765820000000  0.5441110000000  0.4617660000000 1.0
C      1  0.5382490000000  0.5234220000000  0.5441220000000 1.0
C      1  0.4617280000000  0.4766090000000  0.5441210000000 1.0
C      1  0.5382490000000  0.4766090000000  0.4559320000000 1.0
C      1  0.5440830000000  0.5382760000000  0.5234330000000 1.0
C      1  0.4558940000000  0.4617550000000  0.5234330000000 1.0
C      1  0.5440840000000  0.4617550000000  0.4766200000000 1.0
C      1  0.5233950000000  0.5441100000000  0.5382870000000 1.0
C      1  0.4765820000000  0.4559200000000  0.5382870000000 1.0
C      1  0.5233950000000  0.4559200000000  0.4617660000000 1.0
C      1  0.5274470000000  0.4420700000000  0.5442740000000 1.0
C      1  0.5442370000000  0.5274730000000  0.4420810000000 1.0
C      1  0.4420430000000  0.5442630000000  0.5274850000000 1.0
C      1  0.4725310000000  0.4420700000000  0.4557790000000 1.0
C      1  0.5274470000000  0.5579610000000  0.4557790000000 1.0
C      1  0.4725310000000  0.5579610000000  0.5442740000000 1.0
C      1  0.4557410000000  0.5274730000000  0.5579720000000 1.0
C      1  0.5442370000000  0.4725570000000  0.5579720000000 1.0
C      1  0.4557410000000  0.4725570000000  0.4420810000000 1.0
C      1  0.5579340000000  0.5442630000000  0.4725690000000 1.0
C      1  0.4420430000000  0.4557670000000  0.4725680000000 1.0
C      1  0.5579350000000  0.4557670000000  0.5274850000000 1.0
C      1  0.5274470000000  0.5579610000000  0.5442740000000 1.0
C      1  0.5442370000000  0.4725570000000  0.4420810000000 1.0
C      1  0.4420430000000  0.4557670000000  0.5274850000000 1.0
C      1  0.4725310000000  0.5579610000000  0.4557790000000 1.0
C      1  0.5274470000000  0.4420700000000  0.4557790000000 1.0
C      1  0.4725310000000  0.4420700000000  0.5442740000000 1.0
C      1  0.4557410000000  0.4725570000000  0.5579720000000 1.0
C      1  0.5442370000000  0.5274730000000  0.5579720000000 1.0
C      1  0.4557410000000  0.5274730000000  0.4420810000000 1.0
C      1  0.5579350000000  0.4557670000000  0.4725680000000 1.0
C      1  0.4420430000000  0.5442630000000  0.4725690000000 1.0
C      1  0.5579340000000  0.5442630000000  0.5274850000000 1.0
C      1  0.5464770000000  0.5735720000000  0.5192830000000 1.0
C      1  0.5192460000000  0.5465030000000  0.5735830000000 1.0
C      1  0.5735460000000  0.5192720000000  0.5465140000000 1.0
C      1  0.4535010000000  0.5735720000000  0.4807700000000 1.0
C      1  0.5464760000000  0.4264590000000  0.4807700000000 1.0
C      1  0.4535010000000  0.4264590000000  0.5192830000000 1.0
C      1  0.4807320000000  0.5465030000000  0.4264700000000 1.0
C      1  0.5192460000000  0.4535270000000  0.4264700000000 1.0
C      1  0.4807320000000  0.4535270000000  0.5735830000000 1.0
C      1  0.4264320000000  0.5192720000000  0.4535380000000 1.0
C      1  0.5735460000000  0.4807590000000  0.4535390000000 1.0
C      1  0.4264320000000  0.4807590000000  0.5465150000000 1.0
C      1  0.5464760000000  0.4264590000000  0.5192830000000 1.0
C      1  0.5192460000000  0.4535270000000  0.5735830000000 1.0
C      1  0.5735460000000  0.4807590000000  0.5465140000000 1.0
C      1  0.4535010000000  0.4264590000000  0.4807700000000 1.0
C      1  0.5464770000000  0.5735720000000  0.4807700000000 1.0
C      1  0.4535010000000  0.5735720000000  0.5192830000000 1.0
C      1  0.4807320000000  0.4535270000000  0.4264700000000 1.0
C      1  0.5192460000000  0.5465030000000  0.4264700000000 1.0
C      1  0.4807320000000  0.5465030000000  0.5735830000000 1.0
C      1  0.4264320000000  0.4807590000000  0.4535380000000 1.0
C      1  0.5735460000000  0.5192720000000  0.4535390000000 1.0
C      1  0.4264320000000  0.5192720000000  0.5465150000000 1.0
C      1  0.5079070000000  0.5423360000000  0.4544400000000 1.0
C      1  0.4544030000000  0.5079340000000  0.5423470000000 1.0
C      1  0.5423090000000  0.4544290000000  0.5079450000000 1.0
C      1  0.4920700000000  0.5423360000000  0.5456130000000 1.0
C      1  0.5079080000000  0.4576950000000  0.5456130000000 1.0
C      1  0.4920700000000  0.4576950000000  0.4544410000000 1.0
C      1  0.5455750000000  0.5079340000000  0.4577060000000 1.0
C      1  0.4544030000000  0.4920960000000  0.4577060000000 1.0
C      1  0.5455750000000  0.4920960000000  0.5423470000000 1.0
C      1  0.4576680000000  0.4544290000000  0.4921080000000 1.0
C      1  0.5423090000000  0.5456010000000  0.4921080000000 1.0
C      1  0.4576690000000  0.5456010000000  0.5079450000000 1.0
C      1  0.5079080000000  0.4576950000000  0.4544400000000 1.0
C      1  0.4544030000000  0.4920960000000  0.5423470000000 1.0
C      1  0.5423090000000  0.5456010000000  0.5079450000000 1.0
C      1  0.4920700000000  0.4576950000000  0.5456120000000 1.0
C      1  0.5079070000000  0.5423360000000  0.5456130000000 1.0
C      1  0.4920700000000  0.5423360000000  0.4544400000000 1.0
C      1  0.5455750000000  0.4920960000000  0.4577060000000 1.0
C      1  0.4544030000000  0.5079340000000  0.4577060000000 1.0
C      1  0.5455750000000  0.5079340000000  0.5423470000000 1.0
C      1  0.4576690000000  0.5456010000000  0.4921080000000 1.0
C      1  0.5423090000000  0.4544290000000  0.4921080000000 1.0
C      1  0.4576680000000  0.4544290000000  0.5079450000000 1.0
C      1  0.4999890000000  0.5716570000000  0.4933750000000 1.0
C      1  0.4933380000000  0.5000150000000  0.5716680000000 1.0
C      1  0.5716300000000  0.4933640000000  0.5000270000000 1.0
C      1  0.4999890000000  0.5716570000000  0.5066780000000 1.0
C      1  0.4999890000000  0.4283730000000  0.5066780000000 1.0
C      1  0.4999890000000  0.4283730000000  0.4933750000000 1.0
C      1  0.5066400000000  0.5000150000000  0.4283850000000 1.0
C      1  0.4933380000000  0.5000150000000  0.4283850000000 1.0
C      1  0.5066400000000  0.5000150000000  0.5716680000000 1.0
C      1  0.4283470000000  0.4933640000000  0.5000270000000 1.0
C      1  0.5716300000000  0.5066670000000  0.5000270000000 1.0
C      1  0.4283470000000  0.5066670000000  0.5000270000000 1.0
C      1  0.5488900000000  0.5489170000000  0.4511250000000 1.0
C      1  0.4510870000000  0.5489170000000  0.5489280000000 1.0
C      1  0.5488900000000  0.4511140000000  0.5489280000000 1.0
C      1  0.5488900000000  0.4511140000000  0.4511250000000 1.0
C      1  0.4510880000000  0.4511140000000  0.5489280000000 1.0
C      1  0.4510870000000  0.5489170000000  0.4511250000000 1.0
C      1  0.4510870000000  0.4511140000000  0.4511250000000 1.0
C      1  0.5488900000000  0.5489170000000  0.5489280000000 1.0
END
