TITL C-1379265-1223-358 5.52256129762384e-07 1000000 -3691.79132342229 0 0 540 (Td) n - 1
REM
REM in /nfs/bkarasulu/CARBON/AIRSS/Generating-Clusters/GAP-ML-2020/Higher-Symm/Selected-Sizes/TryA-Only_Ih-Symm/Larger-Clusters/Try2-MINAMP_6A
REM
REM
REM
REM
REM
REM ./C.cell (31579ac4e95a012ec27f3239692ae8a5)
REM
REM compiler GCC version 9.2.1 20190827 (Red Hat 9.2.1-1)
REM options -cpp -mtune=generic -march=x86-64 -g -O0 -fpre-include=/usr/include/finclude/math-vector-fortran.h
REM seed 2072009897 -857255229 -844274044 -529990136 265686801 385232713 700024223 -1077623386 -1492292648 -1360516805 1366515358 934289498 1545437368 1302142855 -1527741426 -1282026140 1472161119 1650226594 1532257152 -2013741798 -627060124 763017300 -248837786 508208706 -725357036 -1186171353 1384014989 487412313 1031853923 1304351416 1535257994 437233363 1048057059
REM
CELL 1.54180  100.00000  100.00000  100.00000   90.00000   90.00000   90.00000
LATT -1
SFAC C  
C      1  0.5061990000000  0.5313800000000  0.4136720000000 1.0
C      1  0.5313800000000  0.4136720000000  0.5061990000000 1.0
C      1  0.4136720000000  0.5061990000000  0.5313800000000 1.0
C      1  0.4938010000000  0.5313800000000  0.5863280000000 1.0
C      1  0.4938010000000  0.4686200000000  0.4136720000000 1.0
C      1  0.5061990000000  0.4686200000000  0.5863280000000 1.0
C      1  0.4686200000000  0.4136720000000  0.4938010000000 1.0
C      1  0.4686200000000  0.5863280000000  0.5061990000000 1.0
C      1  0.5313800000000  0.5863280000000  0.4938010000000 1.0
C      1  0.5863280000000  0.5061990000000  0.4686200000000 1.0
C      1  0.5863280000000  0.4938010000000  0.5313800000000 1.0
C      1  0.4136720000000  0.4938010000000  0.4686200000000 1.0
C      1  0.4136720000000  0.5313800000000  0.5061990000000 1.0
C      1  0.5061990000000  0.4136720000000  0.5313800000000 1.0
C      1  0.5313800000000  0.5061990000000  0.4136720000000 1.0
C      1  0.5863280000000  0.5313800000000  0.4938010000000 1.0
C      1  0.4136720000000  0.4686200000000  0.4938010000000 1.0
C      1  0.5863280000000  0.4686200000000  0.5061990000000 1.0
C      1  0.4938010000000  0.4136720000000  0.4686200000000 1.0
C      1  0.5061990000000  0.5863280000000  0.4686200000000 1.0
C      1  0.4938010000000  0.5863280000000  0.5313800000000 1.0
C      1  0.4686200000000  0.5061990000000  0.5863280000000 1.0
C      1  0.5313800000000  0.4938010000000  0.5863280000000 1.0
C      1  0.4686200000000  0.4938010000000  0.4136720000000 1.0
C      1  0.4983800000000  0.5779330000000  0.4783620000000 1.0
C      1  0.5779330000000  0.4783620000000  0.4983800000000 1.0
C      1  0.4783620000000  0.4983800000000  0.5779330000000 1.0
C      1  0.5016200000000  0.5779330000000  0.5216380000000 1.0
C      1  0.5016200000000  0.4220670000000  0.4783620000000 1.0
C      1  0.4983800000000  0.4220670000000  0.5216380000000 1.0
C      1  0.4220670000000  0.4783620000000  0.5016200000000 1.0
C      1  0.4220670000000  0.5216380000000  0.4983800000000 1.0
C      1  0.5779330000000  0.5216380000000  0.5016200000000 1.0
C      1  0.5216380000000  0.4983800000000  0.4220670000000 1.0
C      1  0.5216380000000  0.5016200000000  0.5779330000000 1.0
C      1  0.4783620000000  0.5016200000000  0.4220670000000 1.0
C      1  0.4783620000000  0.5779330000000  0.4983800000000 1.0
C      1  0.4983800000000  0.4783620000000  0.5779330000000 1.0
C      1  0.5779330000000  0.4983800000000  0.4783620000000 1.0
C      1  0.5216380000000  0.5779330000000  0.5016200000000 1.0
C      1  0.4783620000000  0.4220670000000  0.5016200000000 1.0
C      1  0.5216380000000  0.4220670000000  0.4983800000000 1.0
C      1  0.5016200000000  0.4783620000000  0.4220670000000 1.0
C      1  0.4983800000000  0.5216380000000  0.4220670000000 1.0
C      1  0.5016200000000  0.5216380000000  0.5779330000000 1.0
C      1  0.4220670000000  0.4983800000000  0.5216380000000 1.0
C      1  0.5779330000000  0.5016200000000  0.5216380000000 1.0
C      1  0.4220670000000  0.5016200000000  0.4783620000000 1.0
C      1  0.4850740000000  0.4197420000000  0.5245210000000 1.0
C      1  0.4197420000000  0.5245210000000  0.4850740000000 1.0
C      1  0.5245210000000  0.4850740000000  0.4197420000000 1.0
C      1  0.5149260000000  0.4197420000000  0.4754790000000 1.0
C      1  0.5149260000000  0.5802580000000  0.5245210000000 1.0
C      1  0.4850740000000  0.5802580000000  0.4754790000000 1.0
C      1  0.5802580000000  0.5245210000000  0.5149260000000 1.0
C      1  0.5802580000000  0.4754790000000  0.4850740000000 1.0
C      1  0.4197420000000  0.4754790000000  0.5149260000000 1.0
C      1  0.4754790000000  0.4850740000000  0.5802580000000 1.0
C      1  0.4754790000000  0.5149260000000  0.4197420000000 1.0
C      1  0.5245210000000  0.5149260000000  0.5802580000000 1.0
C      1  0.5245210000000  0.4197420000000  0.4850740000000 1.0
C      1  0.4850740000000  0.5245210000000  0.4197420000000 1.0
C      1  0.4197420000000  0.4850740000000  0.5245210000000 1.0
C      1  0.4754790000000  0.4197420000000  0.5149260000000 1.0
C      1  0.5245210000000  0.5802580000000  0.5149260000000 1.0
C      1  0.4754790000000  0.5802580000000  0.4850740000000 1.0
C      1  0.5149260000000  0.5245210000000  0.5802580000000 1.0
C      1  0.4850740000000  0.4754790000000  0.5802580000000 1.0
C      1  0.5149260000000  0.4754790000000  0.4197420000000 1.0
C      1  0.5802580000000  0.4850740000000  0.4754790000000 1.0
C      1  0.4197420000000  0.5149260000000  0.4754790000000 1.0
C      1  0.5802580000000  0.5149260000000  0.5245210000000 1.0
C      1  0.4474090000000  0.5643620000000  0.5272480000000 1.0
C      1  0.5643620000000  0.5272480000000  0.4474090000000 1.0
C      1  0.5272480000000  0.4474090000000  0.5643620000000 1.0
C      1  0.5525910000000  0.5643620000000  0.4727520000000 1.0
C      1  0.5525910000000  0.4356380000000  0.5272480000000 1.0
C      1  0.4474090000000  0.4356380000000  0.4727520000000 1.0
C      1  0.4356380000000  0.5272480000000  0.5525910000000 1.0
C      1  0.4356380000000  0.4727520000000  0.4474090000000 1.0
C      1  0.5643620000000  0.4727520000000  0.5525910000000 1.0
C      1  0.4727520000000  0.4474090000000  0.4356380000000 1.0
C      1  0.4727520000000  0.5525910000000  0.5643620000000 1.0
C      1  0.5272480000000  0.5525910000000  0.4356380000000 1.0
C      1  0.5272480000000  0.5643620000000  0.4474090000000 1.0
C      1  0.4474090000000  0.5272480000000  0.5643620000000 1.0
C      1  0.5643620000000  0.4474090000000  0.5272480000000 1.0
C      1  0.4727520000000  0.5643620000000  0.5525910000000 1.0
C      1  0.5272480000000  0.4356380000000  0.5525910000000 1.0
C      1  0.4727520000000  0.4356380000000  0.4474090000000 1.0
C      1  0.5525910000000  0.5272480000000  0.4356380000000 1.0
C      1  0.4474090000000  0.4727520000000  0.4356380000000 1.0
C      1  0.5525910000000  0.4727520000000  0.5643620000000 1.0
C      1  0.4356380000000  0.4474090000000  0.4727520000000 1.0
C      1  0.5643620000000  0.5525910000000  0.4727520000000 1.0
C      1  0.4356380000000  0.5525910000000  0.5272480000000 1.0
C      1  0.4413970000000  0.5046470000000  0.5392720000000 1.0
C      1  0.5046470000000  0.5392720000000  0.4413970000000 1.0
C      1  0.5392720000000  0.4413970000000  0.5046470000000 1.0
C      1  0.5586030000000  0.5046470000000  0.4607280000000 1.0
C      1  0.5586030000000  0.4953530000000  0.5392720000000 1.0
C      1  0.4413970000000  0.4953530000000  0.4607280000000 1.0
C      1  0.4953530000000  0.5392720000000  0.5586030000000 1.0
C      1  0.4953530000000  0.4607280000000  0.4413970000000 1.0
C      1  0.5046470000000  0.4607280000000  0.5586030000000 1.0
C      1  0.4607280000000  0.4413970000000  0.4953530000000 1.0
C      1  0.4607280000000  0.5586030000000  0.5046470000000 1.0
C      1  0.5392720000000  0.5586030000000  0.4953530000000 1.0
C      1  0.5392720000000  0.5046470000000  0.4413970000000 1.0
C      1  0.4413970000000  0.5392720000000  0.5046470000000 1.0
C      1  0.5046470000000  0.4413970000000  0.5392720000000 1.0
C      1  0.4607280000000  0.5046470000000  0.5586030000000 1.0
C      1  0.5392720000000  0.4953530000000  0.5586030000000 1.0
C      1  0.4607280000000  0.4953530000000  0.4413970000000 1.0
C      1  0.5586030000000  0.5392720000000  0.4953530000000 1.0
C      1  0.4413970000000  0.4607280000000  0.4953530000000 1.0
C      1  0.5586030000000  0.4607280000000  0.5046470000000 1.0
C      1  0.4953530000000  0.4413970000000  0.4607280000000 1.0
C      1  0.5046470000000  0.5586030000000  0.4607280000000 1.0
C      1  0.4953530000000  0.5586030000000  0.5392720000000 1.0
C      1  0.5151620000000  0.5550080000000  0.4967340000000 1.0
C      1  0.5550080000000  0.4967340000000  0.5151620000000 1.0
C      1  0.4967340000000  0.5151620000000  0.5550080000000 1.0
C      1  0.4848380000000  0.5550080000000  0.5032660000000 1.0
C      1  0.4848380000000  0.4449920000000  0.4967340000000 1.0
C      1  0.5151620000000  0.4449920000000  0.5032660000000 1.0
C      1  0.4449920000000  0.4967340000000  0.4848380000000 1.0
C      1  0.4449920000000  0.5032660000000  0.5151620000000 1.0
C      1  0.5550080000000  0.5032660000000  0.4848380000000 1.0
C      1  0.5032660000000  0.5151620000000  0.4449920000000 1.0
C      1  0.5032660000000  0.4848380000000  0.5550080000000 1.0
C      1  0.4967340000000  0.4848380000000  0.4449920000000 1.0
C      1  0.4967340000000  0.5550080000000  0.5151620000000 1.0
C      1  0.5151620000000  0.4967340000000  0.5550080000000 1.0
C      1  0.5550080000000  0.5151620000000  0.4967340000000 1.0
C      1  0.5032660000000  0.5550080000000  0.4848380000000 1.0
C      1  0.4967340000000  0.4449920000000  0.4848380000000 1.0
C      1  0.5032660000000  0.4449920000000  0.5151620000000 1.0
C      1  0.4848380000000  0.4967340000000  0.4449920000000 1.0
C      1  0.5151620000000  0.5032660000000  0.4449920000000 1.0
C      1  0.4848380000000  0.5032660000000  0.5550080000000 1.0
C      1  0.4449920000000  0.5151620000000  0.5032660000000 1.0
C      1  0.5550080000000  0.4848380000000  0.5032660000000 1.0
C      1  0.4449920000000  0.4848380000000  0.4967340000000 1.0
C      1  0.4297040000000  0.5483840000000  0.4848150000000 1.0
C      1  0.5483840000000  0.4848150000000  0.4297040000000 1.0
C      1  0.4848150000000  0.4297040000000  0.5483840000000 1.0
C      1  0.5702960000000  0.5483840000000  0.5151850000000 1.0
C      1  0.5702960000000  0.4516160000000  0.4848150000000 1.0
C      1  0.4297040000000  0.4516160000000  0.5151850000000 1.0
C      1  0.4516160000000  0.4848150000000  0.5702960000000 1.0
C      1  0.4516160000000  0.5151850000000  0.4297040000000 1.0
C      1  0.5483840000000  0.5151850000000  0.5702960000000 1.0
C      1  0.5151850000000  0.4297040000000  0.4516160000000 1.0
C      1  0.5151850000000  0.5702960000000  0.5483840000000 1.0
C      1  0.4848150000000  0.5702960000000  0.4516160000000 1.0
C      1  0.4848150000000  0.5483840000000  0.4297040000000 1.0
C      1  0.4297040000000  0.4848150000000  0.5483840000000 1.0
C      1  0.5483840000000  0.4297040000000  0.4848150000000 1.0
C      1  0.5151850000000  0.5483840000000  0.5702960000000 1.0
C      1  0.4848150000000  0.4516160000000  0.5702960000000 1.0
C      1  0.5151850000000  0.4516160000000  0.4297040000000 1.0
C      1  0.5702960000000  0.4848150000000  0.4516160000000 1.0
C      1  0.4297040000000  0.5151850000000  0.4516160000000 1.0
C      1  0.5702960000000  0.5151850000000  0.5483840000000 1.0
C      1  0.4516160000000  0.4297040000000  0.5151850000000 1.0
C      1  0.5483840000000  0.5702960000000  0.5151850000000 1.0
C      1  0.4516160000000  0.5702960000000  0.4848150000000 1.0
C      1  0.4228220000000  0.4827280000000  0.4727690000000 1.0
C      1  0.4827280000000  0.4727690000000  0.4228220000000 1.0
C      1  0.4727690000000  0.4228220000000  0.4827280000000 1.0
C      1  0.5771780000000  0.4827280000000  0.5272310000000 1.0
C      1  0.5771780000000  0.5172720000000  0.4727690000000 1.0
C      1  0.4228220000000  0.5172720000000  0.5272310000000 1.0
C      1  0.5172720000000  0.4727690000000  0.5771780000000 1.0
C      1  0.5172720000000  0.5272310000000  0.4228220000000 1.0
C      1  0.4827280000000  0.5272310000000  0.5771780000000 1.0
C      1  0.5272310000000  0.4228220000000  0.5172720000000 1.0
C      1  0.5272310000000  0.5771780000000  0.4827280000000 1.0
C      1  0.4727690000000  0.5771780000000  0.5172720000000 1.0
C      1  0.4727690000000  0.4827280000000  0.4228220000000 1.0
C      1  0.4228220000000  0.4727690000000  0.4827280000000 1.0
C      1  0.4827280000000  0.4228220000000  0.4727690000000 1.0
C      1  0.5272310000000  0.4827280000000  0.5771780000000 1.0
C      1  0.4727690000000  0.5172720000000  0.5771780000000 1.0
C      1  0.5272310000000  0.5172720000000  0.4228220000000 1.0
C      1  0.5771780000000  0.4727690000000  0.5172720000000 1.0
C      1  0.4228220000000  0.5272310000000  0.5172720000000 1.0
C      1  0.5771780000000  0.5272310000000  0.4827280000000 1.0
C      1  0.5172720000000  0.4228220000000  0.5272310000000 1.0
C      1  0.4827280000000  0.5771780000000  0.5272310000000 1.0
C      1  0.5172720000000  0.5771780000000  0.4727690000000 1.0
C      1  0.4787340000000  0.4691110000000  0.4591090000000 1.0
C      1  0.4691110000000  0.4591100000000  0.4787340000000 1.0
C      1  0.4591090000000  0.4787340000000  0.4691110000000 1.0
C      1  0.5212660000000  0.4691110000000  0.5408910000000 1.0
C      1  0.5212660000000  0.5308890000000  0.4591090000000 1.0
C      1  0.4787340000000  0.5308890000000  0.5408910000000 1.0
C      1  0.5308890000000  0.4591090000000  0.5212660000000 1.0
C      1  0.5308890000000  0.5408910000000  0.4787340000000 1.0
C      1  0.4691110000000  0.5408910000000  0.5212660000000 1.0
C      1  0.5408910000000  0.4787340000000  0.5308890000000 1.0
C      1  0.5408910000000  0.5212660000000  0.4691110000000 1.0
C      1  0.4591090000000  0.5212660000000  0.5308890000000 1.0
C      1  0.4591090000000  0.4691110000000  0.4787340000000 1.0
C      1  0.4787340000000  0.4591090000000  0.4691110000000 1.0
C      1  0.4691110000000  0.4787340000000  0.4591090000000 1.0
C      1  0.5408910000000  0.4691110000000  0.5212660000000 1.0
C      1  0.4591090000000  0.5308890000000  0.5212660000000 1.0
C      1  0.5408910000000  0.5308890000000  0.4787340000000 1.0
C      1  0.5212660000000  0.4591090000000  0.5308890000000 1.0
C      1  0.4787340000000  0.5408910000000  0.5308890000000 1.0
C      1  0.5212660000000  0.5408910000000  0.4691110000000 1.0
C      1  0.5308890000000  0.4787340000000  0.5408910000000 1.0
C      1  0.4691110000000  0.5212660000000  0.5408910000000 1.0
C      1  0.5308890000000  0.5212660000000  0.4591100000000 1.0
C      1  0.5495520000000  0.5387920000000  0.5197090000000 1.0
C      1  0.5387920000000  0.5197090000000  0.5495520000000 1.0
C      1  0.5197090000000  0.5495520000000  0.5387920000000 1.0
C      1  0.4504480000000  0.5387920000000  0.4802910000000 1.0
C      1  0.4504480000000  0.4612080000000  0.5197090000000 1.0
C      1  0.5495520000000  0.4612080000000  0.4802910000000 1.0
C      1  0.4612080000000  0.5197090000000  0.4504480000000 1.0
C      1  0.4612080000000  0.4802910000000  0.5495520000000 1.0
C      1  0.5387920000000  0.4802910000000  0.4504480000000 1.0
C      1  0.4802910000000  0.5495520000000  0.4612080000000 1.0
C      1  0.4802910000000  0.4504480000000  0.5387920000000 1.0
C      1  0.5197090000000  0.4504480000000  0.4612080000000 1.0
C      1  0.5197090000000  0.5387920000000  0.5495520000000 1.0
C      1  0.5495520000000  0.5197090000000  0.5387920000000 1.0
C      1  0.5387920000000  0.5495520000000  0.5197090000000 1.0
C      1  0.4802910000000  0.5387920000000  0.4504480000000 1.0
C      1  0.5197090000000  0.4612080000000  0.4504480000000 1.0
C      1  0.4802910000000  0.4612080000000  0.5495520000000 1.0
C      1  0.4504480000000  0.5197090000000  0.4612080000000 1.0
C      1  0.5495520000000  0.4802910000000  0.4612080000000 1.0
C      1  0.4504480000000  0.4802910000000  0.5387920000000 1.0
C      1  0.4612080000000  0.5495520000000  0.4802910000000 1.0
C      1  0.5387920000000  0.4504480000000  0.4802910000000 1.0
C      1  0.4612080000000  0.4504480000000  0.5197090000000 1.0
C      1  0.4974490000000  0.4563650000000  0.5225960000000 1.0
C      1  0.4563650000000  0.5225960000000  0.4974490000000 1.0
C      1  0.5225960000000  0.4974490000000  0.4563650000000 1.0
C      1  0.5025510000000  0.4563650000000  0.4774040000000 1.0
C      1  0.5025510000000  0.5436350000000  0.5225960000000 1.0
C      1  0.4974490000000  0.5436350000000  0.4774040000000 1.0
C      1  0.5436350000000  0.5225960000000  0.5025510000000 1.0
C      1  0.5436350000000  0.4774040000000  0.4974490000000 1.0
C      1  0.4563650000000  0.4774040000000  0.5025510000000 1.0
C      1  0.4774040000000  0.4974490000000  0.5436350000000 1.0
C      1  0.4774040000000  0.5025510000000  0.4563650000000 1.0
C      1  0.5225960000000  0.5025510000000  0.5436350000000 1.0
C      1  0.5225960000000  0.4563650000000  0.4974490000000 1.0
C      1  0.4974490000000  0.5225960000000  0.4563650000000 1.0
C      1  0.4563650000000  0.4974490000000  0.5225960000000 1.0
C      1  0.4774040000000  0.4563650000000  0.5025510000000 1.0
C      1  0.5225960000000  0.5436350000000  0.5025510000000 1.0
C      1  0.4774040000000  0.5436350000000  0.4974490000000 1.0
C      1  0.5025510000000  0.5225960000000  0.5436350000000 1.0
C      1  0.4974490000000  0.4774040000000  0.5436350000000 1.0
C      1  0.5025510000000  0.4774040000000  0.4563650000000 1.0
C      1  0.5436350000000  0.4974490000000  0.4774040000000 1.0
C      1  0.4563650000000  0.5025510000000  0.4774040000000 1.0
C      1  0.5436350000000  0.5025510000000  0.5225960000000 1.0
C      1  0.5163320000000  0.5398180000000  0.5270810000000 1.0
C      1  0.5398180000000  0.5270810000000  0.5163320000000 1.0
C      1  0.5270810000000  0.5163320000000  0.5398180000000 1.0
C      1  0.4836680000000  0.5398180000000  0.4729190000000 1.0
C      1  0.4836680000000  0.4601820000000  0.5270810000000 1.0
C      1  0.5163320000000  0.4601820000000  0.4729190000000 1.0
C      1  0.4601820000000  0.5270810000000  0.4836680000000 1.0
C      1  0.4601820000000  0.4729190000000  0.5163320000000 1.0
C      1  0.5398180000000  0.4729190000000  0.4836680000000 1.0
C      1  0.4729190000000  0.5163320000000  0.4601820000000 1.0
C      1  0.4729190000000  0.4836680000000  0.5398180000000 1.0
C      1  0.5270810000000  0.4836680000000  0.4601820000000 1.0
C      1  0.5270810000000  0.5398180000000  0.5163320000000 1.0
C      1  0.5163320000000  0.5270810000000  0.5398180000000 1.0
C      1  0.5398180000000  0.5163320000000  0.5270810000000 1.0
C      1  0.4729190000000  0.5398180000000  0.4836680000000 1.0
C      1  0.5270810000000  0.4601820000000  0.4836680000000 1.0
C      1  0.4729190000000  0.4601820000000  0.5163320000000 1.0
C      1  0.4836680000000  0.5270810000000  0.4601820000000 1.0
C      1  0.5163320000000  0.4729190000000  0.4601820000000 1.0
C      1  0.4836680000000  0.4729190000000  0.5398180000000 1.0
C      1  0.4601820000000  0.5163320000000  0.4729190000000 1.0
C      1  0.5398180000000  0.4836680000000  0.4729190000000 1.0
C      1  0.4601820000000  0.4836680000000  0.5270810000000 1.0
C      1  0.5410750000000  0.4686680000000  0.4190720000000 1.0
C      1  0.4686680000000  0.4190720000000  0.5410750000000 1.0
C      1  0.4190720000000  0.5410750000000  0.4686680000000 1.0
C      1  0.4589250000000  0.4686680000000  0.5809280000000 1.0
C      1  0.4589250000000  0.5313320000000  0.4190720000000 1.0
C      1  0.5410750000000  0.5313320000000  0.5809280000000 1.0
C      1  0.5313320000000  0.4190720000000  0.4589250000000 1.0
C      1  0.5313320000000  0.5809280000000  0.5410750000000 1.0
C      1  0.4686680000000  0.5809280000000  0.4589250000000 1.0
C      1  0.5809280000000  0.5410750000000  0.5313320000000 1.0
C      1  0.5809280000000  0.4589250000000  0.4686680000000 1.0
C      1  0.4190720000000  0.4589250000000  0.5313320000000 1.0
C      1  0.4190720000000  0.4686680000000  0.5410750000000 1.0
C      1  0.5410750000000  0.4190720000000  0.4686680000000 1.0
C      1  0.4686680000000  0.5410750000000  0.4190720000000 1.0
C      1  0.5809280000000  0.4686680000000  0.4589250000000 1.0
C      1  0.4190720000000  0.5313320000000  0.4589250000000 1.0
C      1  0.5809280000000  0.5313320000000  0.5410750000000 1.0
C      1  0.4589250000000  0.4190720000000  0.5313320000000 1.0
C      1  0.5410750000000  0.5809280000000  0.5313320000000 1.0
C      1  0.4589250000000  0.5809280000000  0.4686680000000 1.0
C      1  0.5313320000000  0.5410750000000  0.5809280000000 1.0
C      1  0.4686680000000  0.4589250000000  0.5809280000000 1.0
C      1  0.5313320000000  0.4589250000000  0.4190720000000 1.0
C      1  0.5410030000000  0.4491050000000  0.5612140000000 1.0
C      1  0.4491050000000  0.5612140000000  0.5410030000000 1.0
C      1  0.5612140000000  0.5410030000000  0.4491050000000 1.0
C      1  0.4589970000000  0.4491050000000  0.4387860000000 1.0
C      1  0.4589970000000  0.5508950000000  0.5612140000000 1.0
C      1  0.5410030000000  0.5508950000000  0.4387860000000 1.0
C      1  0.5508950000000  0.5612140000000  0.4589970000000 1.0
C      1  0.5508950000000  0.4387860000000  0.5410030000000 1.0
C      1  0.4491050000000  0.4387860000000  0.4589970000000 1.0
C      1  0.4387860000000  0.5410030000000  0.5508950000000 1.0
C      1  0.4387860000000  0.4589970000000  0.4491050000000 1.0
C      1  0.5612140000000  0.4589970000000  0.5508950000000 1.0
C      1  0.5612140000000  0.4491050000000  0.5410030000000 1.0
C      1  0.5410030000000  0.5612140000000  0.4491050000000 1.0
C      1  0.4491050000000  0.5410030000000  0.5612140000000 1.0
C      1  0.4387860000000  0.4491050000000  0.4589970000000 1.0
C      1  0.5612140000000  0.5508950000000  0.4589970000000 1.0
C      1  0.4387860000000  0.5508950000000  0.5410030000000 1.0
C      1  0.4589970000000  0.5612140000000  0.5508950000000 1.0
C      1  0.5410030000000  0.4387860000000  0.5508950000000 1.0
C      1  0.4589970000000  0.4387860000000  0.4491050000000 1.0
C      1  0.5508950000000  0.5410030000000  0.4387860000000 1.0
C      1  0.4491050000000  0.4589970000000  0.4387860000000 1.0
C      1  0.5508950000000  0.4589970000000  0.5612140000000 1.0
C      1  0.4707340000000  0.5687680000000  0.4518530000000 1.0
C      1  0.5687680000000  0.4518530000000  0.4707340000000 1.0
C      1  0.4518530000000  0.4707340000000  0.5687680000000 1.0
C      1  0.5292660000000  0.5687680000000  0.5481470000000 1.0
C      1  0.5292660000000  0.4312320000000  0.4518530000000 1.0
C      1  0.4707340000000  0.4312320000000  0.5481470000000 1.0
C      1  0.4312320000000  0.4518530000000  0.5292660000000 1.0
C      1  0.4312320000000  0.5481470000000  0.4707340000000 1.0
C      1  0.5687680000000  0.5481470000000  0.5292660000000 1.0
C      1  0.5481470000000  0.4707340000000  0.4312320000000 1.0
C      1  0.5481470000000  0.5292660000000  0.5687680000000 1.0
C      1  0.4518530000000  0.5292660000000  0.4312320000000 1.0
C      1  0.4518530000000  0.5687680000000  0.4707340000000 1.0
C      1  0.4707340000000  0.4518530000000  0.5687680000000 1.0
C      1  0.5687680000000  0.4707340000000  0.4518530000000 1.0
C      1  0.5481470000000  0.5687680000000  0.5292660000000 1.0
C      1  0.4518530000000  0.4312320000000  0.5292660000000 1.0
C      1  0.5481470000000  0.4312320000000  0.4707340000000 1.0
C      1  0.5292660000000  0.4518530000000  0.4312320000000 1.0
C      1  0.4707340000000  0.5481470000000  0.4312320000000 1.0
C      1  0.5292660000000  0.5481470000000  0.5687680000000 1.0
C      1  0.4312320000000  0.4707340000000  0.5481470000000 1.0
C      1  0.5687680000000  0.5292660000000  0.5481470000000 1.0
C      1  0.4312320000000  0.5292660000000  0.4518530000000 1.0
C      1  0.5657970000000  0.4741430000000  0.5063530000000 1.0
C      1  0.4741430000000  0.5063530000000  0.5657970000000 1.0
C      1  0.5063530000000  0.5657970000000  0.4741430000000 1.0
C      1  0.4342030000000  0.4741430000000  0.4936470000000 1.0
C      1  0.4342030000000  0.5258570000000  0.5063530000000 1.0
C      1  0.5657970000000  0.5258570000000  0.4936470000000 1.0
C      1  0.5258570000000  0.5063530000000  0.4342030000000 1.0
C      1  0.5258570000000  0.4936470000000  0.5657970000000 1.0
C      1  0.4741430000000  0.4936470000000  0.4342030000000 1.0
C      1  0.4936470000000  0.5657970000000  0.5258570000000 1.0
C      1  0.4936470000000  0.4342030000000  0.4741430000000 1.0
C      1  0.5063530000000  0.4342030000000  0.5258570000000 1.0
C      1  0.5063530000000  0.4741430000000  0.5657970000000 1.0
C      1  0.5657970000000  0.5063530000000  0.4741430000000 1.0
C      1  0.4741430000000  0.5657970000000  0.5063530000000 1.0
C      1  0.4936470000000  0.4741430000000  0.4342030000000 1.0
C      1  0.5063530000000  0.5258570000000  0.4342030000000 1.0
C      1  0.4936470000000  0.5258570000000  0.5657970000000 1.0
C      1  0.4342030000000  0.5063530000000  0.5258570000000 1.0
C      1  0.5657970000000  0.4936470000000  0.5258570000000 1.0
C      1  0.4342030000000  0.4936470000000  0.4741430000000 1.0
C      1  0.5258570000000  0.5657970000000  0.4936470000000 1.0
C      1  0.4741430000000  0.4342030000000  0.4936470000000 1.0
C      1  0.5258570000000  0.4342030000000  0.5063530000000 1.0
C      1  0.4094640000000  0.5031680000000  0.4598630000000 1.0
C      1  0.5031680000000  0.4598630000000  0.4094640000000 1.0
C      1  0.4598630000000  0.4094640000000  0.5031680000000 1.0
C      1  0.5905360000000  0.5031680000000  0.5401370000000 1.0
C      1  0.5905360000000  0.4968320000000  0.4598630000000 1.0
C      1  0.4094640000000  0.4968320000000  0.5401370000000 1.0
C      1  0.4968320000000  0.4598630000000  0.5905360000000 1.0
C      1  0.4968320000000  0.5401370000000  0.4094640000000 1.0
C      1  0.5031680000000  0.5401370000000  0.5905360000000 1.0
C      1  0.5401370000000  0.4094640000000  0.4968320000000 1.0
C      1  0.5401370000000  0.5905360000000  0.5031680000000 1.0
C      1  0.4598630000000  0.5905360000000  0.4968320000000 1.0
C      1  0.4598630000000  0.5031680000000  0.4094640000000 1.0
C      1  0.4094640000000  0.4598630000000  0.5031680000000 1.0
C      1  0.5031680000000  0.4094640000000  0.4598630000000 1.0
C      1  0.5401370000000  0.5031680000000  0.5905360000000 1.0
C      1  0.4598630000000  0.4968320000000  0.5905360000000 1.0
C      1  0.5401370000000  0.4968320000000  0.4094640000000 1.0
C      1  0.5905360000000  0.4598630000000  0.4968320000000 1.0
C      1  0.4094640000000  0.5401370000000  0.4968320000000 1.0
C      1  0.5905360000000  0.5401370000000  0.5031680000000 1.0
C      1  0.4968320000000  0.4094640000000  0.5401370000000 1.0
C      1  0.5031680000000  0.5905360000000  0.5401370000000 1.0
C      1  0.4968320000000  0.5905360000000  0.4598630000000 1.0
C      1  0.4843830000000  0.5820990000000  0.4609200000000 1.0
C      1  0.5820990000000  0.4609200000000  0.4843830000000 1.0
C      1  0.4609200000000  0.4843830000000  0.5820990000000 1.0
C      1  0.5156170000000  0.5820990000000  0.5390800000000 1.0
C      1  0.5156170000000  0.4179010000000  0.4609200000000 1.0
C      1  0.4843830000000  0.4179010000000  0.5390800000000 1.0
C      1  0.4179010000000  0.4609200000000  0.5156170000000 1.0
C      1  0.4179010000000  0.5390800000000  0.4843830000000 1.0
C      1  0.5820990000000  0.5390800000000  0.5156170000000 1.0
C      1  0.5390800000000  0.4843830000000  0.4179010000000 1.0
C      1  0.5390800000000  0.5156170000000  0.5820990000000 1.0
C      1  0.4609200000000  0.5156170000000  0.4179010000000 1.0
C      1  0.4609200000000  0.5820990000000  0.4843830000000 1.0
C      1  0.4843830000000  0.4609200000000  0.5820990000000 1.0
C      1  0.5820990000000  0.4843830000000  0.4609200000000 1.0
C      1  0.5390800000000  0.5820990000000  0.5156170000000 1.0
C      1  0.4609200000000  0.4179010000000  0.5156170000000 1.0
C      1  0.5390800000000  0.4179010000000  0.4843830000000 1.0
C      1  0.5156170000000  0.4609200000000  0.4179010000000 1.0
C      1  0.4843830000000  0.5390800000000  0.4179010000000 1.0
C      1  0.5156170000000  0.5390800000000  0.5820990000000 1.0
C      1  0.4179010000000  0.4843830000000  0.5390800000000 1.0
C      1  0.5820990000000  0.5156170000000  0.5390800000000 1.0
C      1  0.4179010000000  0.5156170000000  0.4609200000000 1.0
C      1  0.5138350000000  0.5507780000000  0.4390290000000 1.0
C      1  0.5507780000000  0.4390290000000  0.5138350000000 1.0
C      1  0.4390290000000  0.5138350000000  0.5507780000000 1.0
C      1  0.4861650000000  0.5507780000000  0.5609710000000 1.0
C      1  0.4861650000000  0.4492220000000  0.4390290000000 1.0
C      1  0.5138350000000  0.4492220000000  0.5609710000000 1.0
C      1  0.4492220000000  0.4390290000000  0.4861650000000 1.0
C      1  0.4492220000000  0.5609710000000  0.5138350000000 1.0
C      1  0.5507780000000  0.5609710000000  0.4861650000000 1.0
C      1  0.5609710000000  0.5138350000000  0.4492220000000 1.0
C      1  0.5609710000000  0.4861650000000  0.5507780000000 1.0
C      1  0.4390290000000  0.4861650000000  0.4492220000000 1.0
C      1  0.4390290000000  0.5507780000000  0.5138350000000 1.0
C      1  0.5138350000000  0.4390290000000  0.5507780000000 1.0
C      1  0.5507780000000  0.5138350000000  0.4390290000000 1.0
C      1  0.5609710000000  0.5507780000000  0.4861650000000 1.0
C      1  0.4390290000000  0.4492220000000  0.4861650000000 1.0
C      1  0.5609710000000  0.4492220000000  0.5138350000000 1.0
C      1  0.4861650000000  0.4390290000000  0.4492220000000 1.0
C      1  0.5138350000000  0.5609710000000  0.4492220000000 1.0
C      1  0.4861650000000  0.5609710000000  0.5507780000000 1.0
C      1  0.4492220000000  0.5138350000000  0.5609710000000 1.0
C      1  0.5507780000000  0.4861650000000  0.5609710000000 1.0
C      1  0.4492220000000  0.4861650000000  0.4390290000000 1.0
C      1  0.5336390000000  0.5444730000000  0.4930890000000 1.0
C      1  0.5444730000000  0.4930890000000  0.5336390000000 1.0
C      1  0.4930890000000  0.5336390000000  0.5444730000000 1.0
C      1  0.4663610000000  0.5444730000000  0.5069110000000 1.0
C      1  0.4663610000000  0.4555270000000  0.4930890000000 1.0
C      1  0.5336390000000  0.4555270000000  0.5069110000000 1.0
C      1  0.4555270000000  0.4930890000000  0.4663610000000 1.0
C      1  0.4555270000000  0.5069110000000  0.5336390000000 1.0
C      1  0.5444730000000  0.5069110000000  0.4663610000000 1.0
C      1  0.5069110000000  0.5336390000000  0.4555270000000 1.0
C      1  0.5069110000000  0.4663610000000  0.5444730000000 1.0
C      1  0.4930890000000  0.4663610000000  0.4555270000000 1.0
C      1  0.4930890000000  0.5444730000000  0.5336390000000 1.0
C      1  0.5336390000000  0.4930890000000  0.5444730000000 1.0
C      1  0.5444730000000  0.5336390000000  0.4930890000000 1.0
C      1  0.5069110000000  0.5444730000000  0.4663610000000 1.0
C      1  0.4930890000000  0.4555270000000  0.4663610000000 1.0
C      1  0.5069110000000  0.4555270000000  0.5336390000000 1.0
C      1  0.4663610000000  0.4930890000000  0.4555270000000 1.0
C      1  0.5336390000000  0.5069110000000  0.4555270000000 1.0
C      1  0.4663610000000  0.5069110000000  0.5444730000000 1.0
C      1  0.4555270000000  0.5336390000000  0.5069110000000 1.0
C      1  0.5444730000000  0.4663610000000  0.5069110000000 1.0
C      1  0.4555270000000  0.4663610000000  0.4930890000000 1.0
C      1  0.5460770000000  0.4912990000000  0.4423690000000 1.0
C      1  0.4912990000000  0.4423690000000  0.5460770000000 1.0
C      1  0.4423690000000  0.5460770000000  0.4912990000000 1.0
C      1  0.4539230000000  0.4912990000000  0.5576310000000 1.0
C      1  0.4539230000000  0.5087010000000  0.4423690000000 1.0
C      1  0.5460770000000  0.5087010000000  0.5576310000000 1.0
C      1  0.5087010000000  0.4423690000000  0.4539230000000 1.0
C      1  0.5087010000000  0.5576310000000  0.5460770000000 1.0
C      1  0.4912990000000  0.5576310000000  0.4539230000000 1.0
C      1  0.5576310000000  0.5460770000000  0.5087010000000 1.0
C      1  0.5576310000000  0.4539230000000  0.4912990000000 1.0
C      1  0.4423690000000  0.4539230000000  0.5087010000000 1.0
C      1  0.4423690000000  0.4912990000000  0.5460770000000 1.0
C      1  0.5460770000000  0.4423690000000  0.4912990000000 1.0
C      1  0.4912990000000  0.5460770000000  0.4423690000000 1.0
C      1  0.5576310000000  0.4912990000000  0.4539230000000 1.0
C      1  0.4423690000000  0.5087010000000  0.4539230000000 1.0
C      1  0.5576310000000  0.5087010000000  0.5460770000000 1.0
C      1  0.4539230000000  0.4423690000000  0.5087010000000 1.0
C      1  0.5460770000000  0.5576310000000  0.5087010000000 1.0
C      1  0.4539230000000  0.5576310000000  0.4912990000000 1.0
C      1  0.5087010000000  0.5460770000000  0.5576310000000 1.0
C      1  0.4912990000000  0.4539230000000  0.5576310000000 1.0
C      1  0.5087010000000  0.4539230000000  0.4423690000000 1.0
C      1  0.5440540000000  0.4665080000000  0.4448770000000 1.0
C      1  0.4665080000000  0.4448770000000  0.5440540000000 1.0
C      1  0.4448770000000  0.5440540000000  0.4665080000000 1.0
C      1  0.4559460000000  0.4665080000000  0.5551230000000 1.0
C      1  0.4559460000000  0.5334920000000  0.4448770000000 1.0
C      1  0.5440540000000  0.5334920000000  0.5551230000000 1.0
C      1  0.5334920000000  0.4448770000000  0.4559460000000 1.0
C      1  0.5334920000000  0.5551230000000  0.5440540000000 1.0
C      1  0.4665080000000  0.5551230000000  0.4559460000000 1.0
C      1  0.5551230000000  0.5440540000000  0.5334920000000 1.0
C      1  0.5551230000000  0.4559460000000  0.4665080000000 1.0
C      1  0.4448770000000  0.4559460000000  0.5334920000000 1.0
C      1  0.4448770000000  0.4665080000000  0.5440540000000 1.0
C      1  0.5440540000000  0.4448770000000  0.4665080000000 1.0
C      1  0.4665080000000  0.5440540000000  0.4448770000000 1.0
C      1  0.5551230000000  0.4665080000000  0.4559460000000 1.0
C      1  0.4448770000000  0.5334920000000  0.4559460000000 1.0
C      1  0.5551230000000  0.5334920000000  0.5440540000000 1.0
C      1  0.4559460000000  0.4448770000000  0.5334920000000 1.0
C      1  0.5440540000000  0.5551230000000  0.5334920000000 1.0
C      1  0.4559460000000  0.5551230000000  0.4665080000000 1.0
C      1  0.5334920000000  0.5440540000000  0.5551230000000 1.0
C      1  0.4665080000000  0.4559460000000  0.5551230000000 1.0
C      1  0.5334920000000  0.4559460000000  0.4448770000000 1.0
C      1  0.4950060000000  0.4950060000000  0.5614030000000 1.0
C      1  0.5049940000000  0.4950060000000  0.4385970000000 1.0
C      1  0.4950060000000  0.5614030000000  0.4950060000000 1.0
C      1  0.5049940000000  0.4385970000000  0.4950060000000 1.0
C      1  0.4950060000000  0.5049940000000  0.4385970000000 1.0
C      1  0.5049940000000  0.5049940000000  0.5614030000000 1.0
C      1  0.5049940000000  0.5614030000000  0.5049940000000 1.0
C      1  0.5614030000000  0.5049940000000  0.5049940000000 1.0
C      1  0.4950060000000  0.4385970000000  0.5049940000000 1.0
C      1  0.4385970000000  0.5049940000000  0.4950060000000 1.0
C      1  0.4385970000000  0.4950060000000  0.5049940000000 1.0
C      1  0.5614030000000  0.4950060000000  0.4950060000000 1.0
END
