TITL C-1379268-1316-142 9.14902494625531e-07 1000000 -2330.49941766752 0 0 320 (Th) n - 1
REM
REM in /nfs/bkarasulu/CARBON/AIRSS/Generating-Clusters/GAP-ML-2020/Higher-Symm/Selected-Sizes/TryA-Only_Ih-Symm/Larger-Clusters/Try2-MINAMP_6A
REM
REM
REM
REM
REM
REM ./C.cell (31579ac4e95a012ec27f3239692ae8a5)
REM
REM compiler GCC version 9.2.1 20190827 (Red Hat 9.2.1-1)
REM options -cpp -mtune=generic -march=x86-64 -g -O0 -fpre-include=/usr/include/finclude/math-vector-fortran.h
REM seed -913950555 -1291103539 2053596578 -1286990480 -964153347 -1713068667 1936860360 -2088082714 -1800380748 -1243698722 -1288815266 -755181979 1963560433 -801926900 1485545531 1049256729 1573528072 -121241688 1028400466 -1769734205 1418933590 -1817772393 177716415 -2077973988 118675298 -1923581451 -336863688 278746205 -605034374 298264300 1952153277 -87859396 125144298
REM
CELL 1.54180  100.00000  100.00000  100.00000   90.00000   90.00000   90.00000
LATT -1
SFAC C  
C      1  0.4351090000000  0.5132860000000  0.4926450000000 1.0
C      1  0.5133510000000  0.4924530000000  0.4352350000000 1.0
C      1  0.4925190000000  0.4350430000000  0.5134780000000 1.0
C      1  0.5645070000000  0.5132860000000  0.5072240000000 1.0
C      1  0.5645070000000  0.4862000000000  0.4926450000000 1.0
C      1  0.4351090000000  0.4862000000000  0.5072240000000 1.0
C      1  0.4862650000000  0.4924530000000  0.5646340000000 1.0
C      1  0.4862650000000  0.5070320000000  0.4352350000000 1.0
C      1  0.5133510000000  0.5070320000000  0.5646340000000 1.0
C      1  0.5070970000000  0.4350430000000  0.4863920000000 1.0
C      1  0.5070970000000  0.5644420000000  0.5134780000000 1.0
C      1  0.4925190000000  0.5644420000000  0.4863920000000 1.0
C      1  0.4351090000000  0.4862000000000  0.4926450000000 1.0
C      1  0.5133510000000  0.5070320000000  0.4352350000000 1.0
C      1  0.4925190000000  0.5644420000000  0.5134780000000 1.0
C      1  0.5645070000000  0.4862000000000  0.5072240000000 1.0
C      1  0.5645070000000  0.5132860000000  0.4926450000000 1.0
C      1  0.4351090000000  0.5132860000000  0.5072240000000 1.0
C      1  0.4862650000000  0.5070320000000  0.5646340000000 1.0
C      1  0.4862650000000  0.4924530000000  0.4352350000000 1.0
C      1  0.5133510000000  0.4924530000000  0.5646340000000 1.0
C      1  0.5070970000000  0.5644420000000  0.4863920000000 1.0
C      1  0.5070970000000  0.4350430000000  0.5134780000000 1.0
C      1  0.4925190000000  0.4350430000000  0.4863920000000 1.0
C      1  0.4698170000000  0.4837610000000  0.5466960000000 1.0
C      1  0.4838260000000  0.5465040000000  0.4699440000000 1.0
C      1  0.5465700000000  0.4697520000000  0.4839530000000 1.0
C      1  0.5297990000000  0.4837610000000  0.4531730000000 1.0
C      1  0.5297990000000  0.5157240000000  0.5466960000000 1.0
C      1  0.4698170000000  0.5157240000000  0.4531730000000 1.0
C      1  0.5157900000000  0.5465040000000  0.5299260000000 1.0
C      1  0.5157900000000  0.4529810000000  0.4699440000000 1.0
C      1  0.4838260000000  0.4529810000000  0.5299260000000 1.0
C      1  0.4530460000000  0.4697520000000  0.5159170000000 1.0
C      1  0.4530460000000  0.5297340000000  0.4839530000000 1.0
C      1  0.5465700000000  0.5297340000000  0.5159170000000 1.0
C      1  0.4698170000000  0.5157240000000  0.5466960000000 1.0
C      1  0.4838260000000  0.4529810000000  0.4699440000000 1.0
C      1  0.5465700000000  0.5297340000000  0.4839530000000 1.0
C      1  0.5297990000000  0.5157240000000  0.4531730000000 1.0
C      1  0.5297990000000  0.4837610000000  0.5466960000000 1.0
C      1  0.4698170000000  0.4837610000000  0.4531730000000 1.0
C      1  0.5157900000000  0.4529810000000  0.5299260000000 1.0
C      1  0.5157900000000  0.5465040000000  0.4699440000000 1.0
C      1  0.4838260000000  0.5465040000000  0.5299260000000 1.0
C      1  0.4530460000000  0.5297340000000  0.5159170000000 1.0
C      1  0.4530460000000  0.4697520000000  0.4839530000000 1.0
C      1  0.5465700000000  0.4697520000000  0.5159170000000 1.0
C      1  0.4386970000000  0.5066770000000  0.4573500000000 1.0
C      1  0.5067420000000  0.4571580000000  0.4388240000000 1.0
C      1  0.4572230000000  0.4386320000000  0.5068690000000 1.0
C      1  0.5609190000000  0.5066770000000  0.5425190000000 1.0
C      1  0.5609190000000  0.4928080000000  0.4573500000000 1.0
C      1  0.4386970000000  0.4928080000000  0.5425190000000 1.0
C      1  0.4928740000000  0.4571580000000  0.5610460000000 1.0
C      1  0.4928740000000  0.5423270000000  0.4388240000000 1.0
C      1  0.5067420000000  0.5423270000000  0.5610460000000 1.0
C      1  0.5423930000000  0.4386320000000  0.4930000000000 1.0
C      1  0.5423930000000  0.5608530000000  0.5068690000000 1.0
C      1  0.4572230000000  0.5608530000000  0.4930000000000 1.0
C      1  0.4386970000000  0.4928080000000  0.4573500000000 1.0
C      1  0.5067420000000  0.5423270000000  0.4388240000000 1.0
C      1  0.4572230000000  0.5608530000000  0.5068690000000 1.0
C      1  0.5609190000000  0.4928080000000  0.5425190000000 1.0
C      1  0.5609190000000  0.5066770000000  0.4573500000000 1.0
C      1  0.4386970000000  0.5066770000000  0.5425190000000 1.0
C      1  0.4928740000000  0.5423270000000  0.5610460000000 1.0
C      1  0.4928740000000  0.4571580000000  0.4388240000000 1.0
C      1  0.5067420000000  0.4571580000000  0.5610460000000 1.0
C      1  0.5423930000000  0.5608530000000  0.4930000000000 1.0
C      1  0.5423930000000  0.4386320000000  0.5068690000000 1.0
C      1  0.4572230000000  0.4386320000000  0.4930000000000 1.0
C      1  0.5286260000000  0.5238520000000  0.5353890000000 1.0
C      1  0.5239180000000  0.5351970000000  0.5287530000000 1.0
C      1  0.5352620000000  0.5285610000000  0.5240440000000 1.0
C      1  0.4709900000000  0.5238520000000  0.4644800000000 1.0
C      1  0.4709900000000  0.4756330000000  0.5353890000000 1.0
C      1  0.5286260000000  0.4756330000000  0.4644800000000 1.0
C      1  0.4756980000000  0.5351970000000  0.4711170000000 1.0
C      1  0.4756980000000  0.4642880000000  0.5287530000000 1.0
C      1  0.5239180000000  0.4642880000000  0.4711170000000 1.0
C      1  0.4643530000000  0.5285610000000  0.4758250000000 1.0
C      1  0.4643530000000  0.4709250000000  0.5240440000000 1.0
C      1  0.5352620000000  0.4709250000000  0.4758250000000 1.0
C      1  0.5286260000000  0.4756330000000  0.5353890000000 1.0
C      1  0.5239180000000  0.4642880000000  0.5287530000000 1.0
C      1  0.5352620000000  0.4709250000000  0.5240440000000 1.0
C      1  0.4709900000000  0.4756330000000  0.4644800000000 1.0
C      1  0.4709900000000  0.5238520000000  0.5353890000000 1.0
C      1  0.5286260000000  0.5238520000000  0.4644800000000 1.0
C      1  0.4756980000000  0.4642880000000  0.4711170000000 1.0
C      1  0.4756980000000  0.5351970000000  0.5287530000000 1.0
C      1  0.5239180000000  0.5351970000000  0.4711170000000 1.0
C      1  0.4643530000000  0.4709250000000  0.4758250000000 1.0
C      1  0.4643530000000  0.5285610000000  0.5240440000000 1.0
C      1  0.5352620000000  0.5285610000000  0.4758250000000 1.0
C      1  0.4394720000000  0.4713460000000  0.5500120000000 1.0
C      1  0.4714110000000  0.5498200000000  0.4395990000000 1.0
C      1  0.5498850000000  0.4394060000000  0.4715380000000 1.0
C      1  0.5601440000000  0.4713460000000  0.4498570000000 1.0
C      1  0.5601440000000  0.5281400000000  0.5500120000000 1.0
C      1  0.4394720000000  0.5281400000000  0.4498570000000 1.0
C      1  0.5282050000000  0.5498200000000  0.5602710000000 1.0
C      1  0.5282050000000  0.4496650000000  0.4395990000000 1.0
C      1  0.4714110000000  0.4496650000000  0.5602710000000 1.0
C      1  0.4497300000000  0.4394060000000  0.5283320000000 1.0
C      1  0.4497300000000  0.5600790000000  0.4715380000000 1.0
C      1  0.5498850000000  0.5600790000000  0.5283320000000 1.0
C      1  0.4394720000000  0.5281400000000  0.5500120000000 1.0
C      1  0.4714110000000  0.4496650000000  0.4395990000000 1.0
C      1  0.5498850000000  0.5600790000000  0.4715380000000 1.0
C      1  0.5601440000000  0.5281400000000  0.4498570000000 1.0
C      1  0.5601440000000  0.4713460000000  0.5500120000000 1.0
C      1  0.4394720000000  0.4713460000000  0.4498570000000 1.0
C      1  0.5282050000000  0.4496650000000  0.5602710000000 1.0
C      1  0.5282050000000  0.5498200000000  0.4395990000000 1.0
C      1  0.4714110000000  0.5498200000000  0.5602710000000 1.0
C      1  0.4497300000000  0.5600790000000  0.5283320000000 1.0
C      1  0.4497300000000  0.4394060000000  0.4715380000000 1.0
C      1  0.5498850000000  0.4394060000000  0.5283320000000 1.0
C      1  0.5549870000000  0.5152790000000  0.5522130000000 1.0
C      1  0.5153440000000  0.5520210000000  0.5551140000000 1.0
C      1  0.5520860000000  0.5549220000000  0.5154710000000 1.0
C      1  0.4446280000000  0.5152790000000  0.4476560000000 1.0
C      1  0.4446280000000  0.4842060000000  0.5522130000000 1.0
C      1  0.5549870000000  0.4842060000000  0.4476560000000 1.0
C      1  0.4842710000000  0.5520210000000  0.4447550000000 1.0
C      1  0.4842710000000  0.4474640000000  0.5551140000000 1.0
C      1  0.5153440000000  0.4474640000000  0.4447550000000 1.0
C      1  0.4475300000000  0.5549220000000  0.4843980000000 1.0
C      1  0.4475300000000  0.4445630000000  0.5154710000000 1.0
C      1  0.5520860000000  0.4445630000000  0.4843980000000 1.0
C      1  0.5549870000000  0.4842060000000  0.5522130000000 1.0
C      1  0.5153440000000  0.4474640000000  0.5551140000000 1.0
C      1  0.5520860000000  0.4445630000000  0.5154710000000 1.0
C      1  0.4446280000000  0.4842060000000  0.4476560000000 1.0
C      1  0.4446280000000  0.5152790000000  0.5522130000000 1.0
C      1  0.5549870000000  0.5152790000000  0.4476560000000 1.0
C      1  0.4842710000000  0.4474640000000  0.4447550000000 1.0
C      1  0.4842710000000  0.5520210000000  0.5551140000000 1.0
C      1  0.5153440000000  0.5520210000000  0.4447550000000 1.0
C      1  0.4475300000000  0.4445630000000  0.4843980000000 1.0
C      1  0.4475300000000  0.5549220000000  0.5154710000000 1.0
C      1  0.5520860000000  0.5549220000000  0.4843980000000 1.0
C      1  0.4788570000000  0.4926080000000  0.4479110000000 1.0
C      1  0.4926730000000  0.4477190000000  0.4789840000000 1.0
C      1  0.4477840000000  0.4787920000000  0.4928000000000 1.0
C      1  0.5207590000000  0.4926080000000  0.5519580000000 1.0
C      1  0.5207590000000  0.5068770000000  0.4479110000000 1.0
C      1  0.4788570000000  0.5068770000000  0.5519580000000 1.0
C      1  0.5069420000000  0.4477190000000  0.5208850000000 1.0
C      1  0.5069420000000  0.5517660000000  0.4789840000000 1.0
C      1  0.4926730000000  0.5517660000000  0.5208850000000 1.0
C      1  0.5518320000000  0.4787920000000  0.5070690000000 1.0
C      1  0.5518320000000  0.5206930000000  0.4928000000000 1.0
C      1  0.4477840000000  0.5206930000000  0.5070690000000 1.0
C      1  0.4788570000000  0.5068770000000  0.4479110000000 1.0
C      1  0.4926730000000  0.5517660000000  0.4789840000000 1.0
C      1  0.4477840000000  0.5206930000000  0.4928000000000 1.0
C      1  0.5207590000000  0.5068770000000  0.5519580000000 1.0
C      1  0.5207590000000  0.4926080000000  0.4479110000000 1.0
C      1  0.4788570000000  0.4926080000000  0.5519580000000 1.0
C      1  0.5069420000000  0.5517660000000  0.5208850000000 1.0
C      1  0.5069420000000  0.4477190000000  0.4789840000000 1.0
C      1  0.4926730000000  0.4477190000000  0.5208850000000 1.0
C      1  0.5518320000000  0.5206930000000  0.5070690000000 1.0
C      1  0.5518320000000  0.4787920000000  0.4928000000000 1.0
C      1  0.4477840000000  0.4787920000000  0.5070690000000 1.0
C      1  0.4312890000000  0.5070750000000  0.5195530000000 1.0
C      1  0.5071410000000  0.5193610000000  0.4314150000000 1.0
C      1  0.5194270000000  0.4312230000000  0.5072680000000 1.0
C      1  0.5683270000000  0.5070750000000  0.4803160000000 1.0
C      1  0.5683270000000  0.4924100000000  0.5195530000000 1.0
C      1  0.4312890000000  0.4924100000000  0.4803160000000 1.0
C      1  0.4924750000000  0.5193610000000  0.5684540000000 1.0
C      1  0.4924750000000  0.4801240000000  0.4314150000000 1.0
C      1  0.5071410000000  0.4801240000000  0.5684540000000 1.0
C      1  0.4801890000000  0.4312230000000  0.4926020000000 1.0
C      1  0.4801890000000  0.5682620000000  0.5072680000000 1.0
C      1  0.5194270000000  0.5682620000000  0.4926020000000 1.0
C      1  0.4312890000000  0.4924100000000  0.5195530000000 1.0
C      1  0.5071410000000  0.4801240000000  0.4314150000000 1.0
C      1  0.5194270000000  0.5682620000000  0.5072680000000 1.0
C      1  0.5683270000000  0.4924100000000  0.4803160000000 1.0
C      1  0.5683270000000  0.5070750000000  0.5195530000000 1.0
C      1  0.4312890000000  0.5070750000000  0.4803160000000 1.0
C      1  0.4924750000000  0.4801240000000  0.5684540000000 1.0
C      1  0.4924750000000  0.5193610000000  0.4314150000000 1.0
C      1  0.5071410000000  0.5193610000000  0.5684540000000 1.0
C      1  0.4801890000000  0.5682620000000  0.4926020000000 1.0
C      1  0.4801890000000  0.4312230000000  0.5072680000000 1.0
C      1  0.5194270000000  0.4312230000000  0.4926020000000 1.0
C      1  0.4479260000000  0.4619020000000  0.4434220000000 1.0
C      1  0.4619680000000  0.4432300000000  0.4480530000000 1.0
C      1  0.4432950000000  0.4478610000000  0.4620950000000 1.0
C      1  0.5516890000000  0.4619020000000  0.5564480000000 1.0
C      1  0.5516890000000  0.5375830000000  0.4434220000000 1.0
C      1  0.4479260000000  0.5375830000000  0.5564480000000 1.0
C      1  0.5376480000000  0.4432300000000  0.5518160000000 1.0
C      1  0.5376480000000  0.5562550000000  0.4480530000000 1.0
C      1  0.4619680000000  0.5562550000000  0.5518160000000 1.0
C      1  0.5563210000000  0.4478610000000  0.5377750000000 1.0
C      1  0.5563210000000  0.5516240000000  0.4620950000000 1.0
C      1  0.4432950000000  0.5516240000000  0.5377750000000 1.0
C      1  0.4479260000000  0.5375830000000  0.4434220000000 1.0
C      1  0.4619680000000  0.5562550000000  0.4480530000000 1.0
C      1  0.4432950000000  0.5516240000000  0.4620950000000 1.0
C      1  0.5516890000000  0.5375830000000  0.5564480000000 1.0
C      1  0.5516890000000  0.4619020000000  0.4434220000000 1.0
C      1  0.4479260000000  0.4619020000000  0.5564480000000 1.0
C      1  0.5376480000000  0.5562550000000  0.5518160000000 1.0
C      1  0.5376480000000  0.4432300000000  0.4480530000000 1.0
C      1  0.4619680000000  0.4432300000000  0.5518160000000 1.0
C      1  0.5563210000000  0.5516240000000  0.5377750000000 1.0
C      1  0.5563210000000  0.4478610000000  0.4620950000000 1.0
C      1  0.4432950000000  0.4478610000000  0.5377750000000 1.0
C      1  0.5656490000000  0.5284950000000  0.5367370000000 1.0
C      1  0.5285600000000  0.5365450000000  0.5657750000000 1.0
C      1  0.5366110000000  0.5655830000000  0.5286870000000 1.0
C      1  0.4339670000000  0.5284950000000  0.4631320000000 1.0
C      1  0.4339670000000  0.4709900000000  0.5367370000000 1.0
C      1  0.5656490000000  0.4709900000000  0.4631320000000 1.0
C      1  0.4710560000000  0.5365450000000  0.4340940000000 1.0
C      1  0.4710560000000  0.4629400000000  0.5657750000000 1.0
C      1  0.5285600000000  0.4629400000000  0.4340940000000 1.0
C      1  0.4630050000000  0.5655830000000  0.4711820000000 1.0
C      1  0.4630050000000  0.4339020000000  0.5286870000000 1.0
C      1  0.5366110000000  0.4339020000000  0.4711820000000 1.0
C      1  0.5656490000000  0.4709900000000  0.5367370000000 1.0
C      1  0.5285600000000  0.4629400000000  0.5657750000000 1.0
C      1  0.5366110000000  0.4339020000000  0.5286870000000 1.0
C      1  0.4339670000000  0.4709900000000  0.4631320000000 1.0
C      1  0.4339670000000  0.5284950000000  0.5367370000000 1.0
C      1  0.5656490000000  0.5284950000000  0.4631320000000 1.0
C      1  0.4710560000000  0.4629400000000  0.4340940000000 1.0
C      1  0.4710560000000  0.5365450000000  0.5657750000000 1.0
C      1  0.5285600000000  0.5365450000000  0.4340940000000 1.0
C      1  0.4630050000000  0.4339020000000  0.4711820000000 1.0
C      1  0.4630050000000  0.5655830000000  0.5286870000000 1.0
C      1  0.5366110000000  0.5655830000000  0.4711820000000 1.0
C      1  0.5416520000000  0.4824330000000  0.4428270000000 1.0
C      1  0.4824980000000  0.4426350000000  0.5417790000000 1.0
C      1  0.4427000000000  0.5415870000000  0.4826250000000 1.0
C      1  0.4579640000000  0.4824330000000  0.5570420000000 1.0
C      1  0.4579640000000  0.5170520000000  0.4428270000000 1.0
C      1  0.5416520000000  0.5170520000000  0.5570420000000 1.0
C      1  0.5171170000000  0.4426350000000  0.4580910000000 1.0
C      1  0.5171170000000  0.5568500000000  0.5417790000000 1.0
C      1  0.4824980000000  0.5568500000000  0.4580910000000 1.0
C      1  0.5569150000000  0.5415870000000  0.5172440000000 1.0
C      1  0.5569150000000  0.4578980000000  0.4826250000000 1.0
C      1  0.4427000000000  0.4578980000000  0.5172440000000 1.0
C      1  0.5416520000000  0.5170520000000  0.4428270000000 1.0
C      1  0.4824980000000  0.5568500000000  0.5417790000000 1.0
C      1  0.4427000000000  0.4578980000000  0.4826250000000 1.0
C      1  0.4579640000000  0.5170520000000  0.5570420000000 1.0
C      1  0.4579640000000  0.4824330000000  0.4428270000000 1.0
C      1  0.5416520000000  0.4824330000000  0.5570420000000 1.0
C      1  0.5171170000000  0.5568500000000  0.4580910000000 1.0
C      1  0.5171170000000  0.4426350000000  0.5417790000000 1.0
C      1  0.4824980000000  0.4426350000000  0.4580910000000 1.0
C      1  0.5569150000000  0.4578980000000  0.5172440000000 1.0
C      1  0.5569150000000  0.5415870000000  0.4826250000000 1.0
C      1  0.4427000000000  0.5415870000000  0.5172440000000 1.0
C      1  0.4678390000000  0.5661900000000  0.4852060000000 1.0
C      1  0.5662550000000  0.4850140000000  0.4679650000000 1.0
C      1  0.4850790000000  0.4677730000000  0.5663820000000 1.0
C      1  0.5317770000000  0.5661900000000  0.5146630000000 1.0
C      1  0.5317770000000  0.4332950000000  0.4852060000000 1.0
C      1  0.4678390000000  0.4332950000000  0.5146630000000 1.0
C      1  0.4333610000000  0.4850140000000  0.5319040000000 1.0
C      1  0.4333610000000  0.5144710000000  0.4679650000000 1.0
C      1  0.5662550000000  0.5144710000000  0.5319040000000 1.0
C      1  0.5145370000000  0.4677730000000  0.4334880000000 1.0
C      1  0.5145370000000  0.5317120000000  0.5663820000000 1.0
C      1  0.4850790000000  0.5317120000000  0.4334880000000 1.0
C      1  0.4678390000000  0.4332950000000  0.4852060000000 1.0
C      1  0.5662550000000  0.5144710000000  0.4679650000000 1.0
C      1  0.4850790000000  0.5317120000000  0.5663820000000 1.0
C      1  0.5317770000000  0.4332950000000  0.5146630000000 1.0
C      1  0.5317770000000  0.5661900000000  0.4852060000000 1.0
C      1  0.4678390000000  0.5661900000000  0.5146630000000 1.0
C      1  0.4333610000000  0.5144710000000  0.5319040000000 1.0
C      1  0.4333610000000  0.4850140000000  0.4679650000000 1.0
C      1  0.5662550000000  0.4850140000000  0.5319040000000 1.0
C      1  0.5145370000000  0.5317120000000  0.4334880000000 1.0
C      1  0.5145370000000  0.4677730000000  0.5663820000000 1.0
C      1  0.4850790000000  0.4677730000000  0.4334880000000 1.0
C      1  0.4371450000000  0.5407830000000  0.4692160000000 1.0
C      1  0.5408490000000  0.4690240000000  0.4372720000000 1.0
C      1  0.4690890000000  0.4370800000000  0.5409750000000 1.0
C      1  0.5624710000000  0.5407830000000  0.5306530000000 1.0
C      1  0.5624710000000  0.4587020000000  0.4692160000000 1.0
C      1  0.4371450000000  0.4587020000000  0.5306530000000 1.0
C      1  0.4587670000000  0.4690240000000  0.5625970000000 1.0
C      1  0.4587670000000  0.5304610000000  0.4372720000000 1.0
C      1  0.5408490000000  0.5304610000000  0.5625970000000 1.0
C      1  0.5305260000000  0.4370800000000  0.4588940000000 1.0
C      1  0.5305260000000  0.5624050000000  0.5409750000000 1.0
C      1  0.4690890000000  0.5624050000000  0.4588940000000 1.0
C      1  0.4371450000000  0.4587020000000  0.4692160000000 1.0
C      1  0.5408490000000  0.5304610000000  0.4372720000000 1.0
C      1  0.4690890000000  0.5624050000000  0.5409750000000 1.0
C      1  0.5624710000000  0.4587020000000  0.5306530000000 1.0
C      1  0.5624710000000  0.5407830000000  0.4692160000000 1.0
C      1  0.4371450000000  0.5407830000000  0.5306530000000 1.0
C      1  0.4587670000000  0.5304610000000  0.5625970000000 1.0
C      1  0.4587670000000  0.4690240000000  0.4372720000000 1.0
C      1  0.5408490000000  0.4690240000000  0.5625970000000 1.0
C      1  0.5305260000000  0.5624050000000  0.4588940000000 1.0
C      1  0.5305260000000  0.4370800000000  0.5409750000000 1.0
C      1  0.4690890000000  0.4370800000000  0.4588940000000 1.0
C      1  0.4491780000000  0.4491130000000  0.5505650000000 1.0
C      1  0.5504380000000  0.5503730000000  0.4493050000000 1.0
C      1  0.4491780000000  0.5503730000000  0.4493050000000 1.0
C      1  0.5504380000000  0.4491130000000  0.4493050000000 1.0
C      1  0.5504380000000  0.4491130000000  0.5505650000000 1.0
C      1  0.4491780000000  0.5503730000000  0.5505650000000 1.0
C      1  0.5504380000000  0.5503730000000  0.5505650000000 1.0
C      1  0.4491780000000  0.4491130000000  0.4493050000000 1.0
END
