TITL C-1379268-1316-189 -8.59454480736301e-07 1000000 -2801.64625710268 0 0 400 (Cs) n - 1
REM
REM in /nfs/bkarasulu/CARBON/AIRSS/Generating-Clusters/GAP-ML-2020/Higher-Symm/Selected-Sizes/TryA-Only_Ih-Symm/Larger-Clusters/Try2-MINAMP_6A
REM
REM
REM
REM
REM
REM ./C.cell (31579ac4e95a012ec27f3239692ae8a5)
REM
REM compiler GCC version 9.2.1 20190827 (Red Hat 9.2.1-1)
REM options -cpp -mtune=generic -march=x86-64 -g -O0 -fpre-include=/usr/include/finclude/math-vector-fortran.h
REM seed -910795117 271286345 -896537130 -639391909 1848226753 222511528 -501541048 246201654 -970499428 422161712 1361902035 -1584202275 742212501 451362758 1219471991 276206261 -1706260133 2053099497 -986372390 -1516190700 -1822034079 748926121 1933286782 1896205166 559465615 -1026187171 2139487692 -762492869 -471994599 -723775070 -1315821962 451576171 795244454
REM
CELL 1.54180  100.00000  100.00000  100.00000   90.00000   90.00000   90.00000
LATT -1
SFAC C  
C      1  0.5199690000000  0.4570040000000  0.4899700000000 1.0
C      1  0.4571670000000  0.4902480000000  0.5195930000000 1.0
C      1  0.4889870000000  0.5196920000000  0.4570370000000 1.0
C      1  0.5193090000000  0.5421880000000  0.5093310000000 1.0
C      1  0.4798850000000  0.4574650000000  0.5094090000000 1.0
C      1  0.4786550000000  0.5429450000000  0.4902490000000 1.0
C      1  0.4564750000000  0.5098070000000  0.4795810000000 1.0
C      1  0.5421250000000  0.4894050000000  0.4807510000000 1.0
C      1  0.5426240000000  0.5087120000000  0.5206120000000 1.0
C      1  0.4900880000000  0.4799620000000  0.5422260000000 1.0
C      1  0.5097360000000  0.5198950000000  0.5423310000000 1.0
C      1  0.5090740000000  0.4798690000000  0.4568520000000 1.0
C      1  0.5193090000000  0.4902870000000  0.4574310000000 1.0
C      1  0.4564750000000  0.5200380000000  0.4898110000000 1.0
C      1  0.4900880000000  0.4573920000000  0.5196560000000 1.0
C      1  0.5199690000000  0.5096490000000  0.5426140000000 1.0
C      1  0.4786550000000  0.5093690000000  0.4566730000000 1.0
C      1  0.4798850000000  0.4902090000000  0.5421530000000 1.0
C      1  0.4571670000000  0.4800250000000  0.5093700000000 1.0
C      1  0.5426240000000  0.4790060000000  0.4909060000000 1.0
C      1  0.5421250000000  0.5188670000000  0.5102130000000 1.0
C      1  0.4889870000000  0.5425810000000  0.4799260000000 1.0
C      1  0.5090740000000  0.5427660000000  0.5197490000000 1.0
C      1  0.5097360000000  0.4572880000000  0.4797240000000 1.0
C      1  0.5592070000000  0.4496080000000  0.4938460000000 1.0
C      1  0.4506240000000  0.4945070000000  0.5585590000000 1.0
C      1  0.4921130000000  0.5589760000000  0.4503560000000 1.0
C      1  0.5589420000000  0.5482170000000  0.5056030000000 1.0
C      1  0.4409560000000  0.4506340000000  0.5051720000000 1.0
C      1  0.4398420000000  0.5492890000000  0.4940760000000 1.0
C      1  0.4492200000000  0.5058870000000  0.4403480000000 1.0
C      1  0.5488650000000  0.4952810000000  0.4422680000000 1.0
C      1  0.5491960000000  0.5055390000000  0.5593590000000 1.0
C      1  0.4942230000000  0.4409930000000  0.5489960000000 1.0
C      1  0.5060800000000  0.5592620000000  0.5492470000000 1.0
C      1  0.5057060000000  0.4409320000000  0.4502940000000 1.0
C      1  0.5589420000000  0.4940150000000  0.4514020000000 1.0
C      1  0.4492200000000  0.5592700000000  0.4937310000000 1.0
C      1  0.4942230000000  0.4506220000000  0.5586260000000 1.0
C      1  0.5592070000000  0.5057730000000  0.5500100000000 1.0
C      1  0.4398420000000  0.5055430000000  0.4503290000000 1.0
C      1  0.4409560000000  0.4944460000000  0.5489840000000 1.0
C      1  0.4506240000000  0.4410590000000  0.5051110000000 1.0
C      1  0.5491960000000  0.4402590000000  0.4940790000000 1.0
C      1  0.5488650000000  0.5573510000000  0.5043380000000 1.0
C      1  0.4921130000000  0.5492620000000  0.4406420000000 1.0
C      1  0.5057060000000  0.5493240000000  0.5586860000000 1.0
C      1  0.5060800000000  0.4503710000000  0.4403560000000 1.0
C      1  0.4694640000000  0.4487130000000  0.5403040000000 1.0
C      1  0.4472360000000  0.5406400000000  0.4693250000000 1.0
C      1  0.5405980000000  0.4697060000000  0.4487700000000 1.0
C      1  0.4677110000000  0.5513720000000  0.4588040000000 1.0
C      1  0.5303050000000  0.4486420000000  0.4590640000000 1.0
C      1  0.5304560000000  0.5511250000000  0.5403100000000 1.0
C      1  0.4485700000000  0.4593060000000  0.5299790000000 1.0
C      1  0.5511640000000  0.5403090000000  0.5303690000000 1.0
C      1  0.5512780000000  0.4587280000000  0.4693910000000 1.0
C      1  0.5406080000000  0.5302310000000  0.5512840000000 1.0
C      1  0.4591750000000  0.4696630000000  0.5508970000000 1.0
C      1  0.4575470000000  0.5305260000000  0.4482190000000 1.0
C      1  0.4677110000000  0.5408150000000  0.4482460000000 1.0
C      1  0.4485700000000  0.4696390000000  0.5403130000000 1.0
C      1  0.5406080000000  0.4483340000000  0.4693870000000 1.0
C      1  0.4694640000000  0.4593150000000  0.5509050000000 1.0
C      1  0.5304560000000  0.4593090000000  0.4484930000000 1.0
C      1  0.5303050000000  0.5405540000000  0.5509770000000 1.0
C      1  0.4472360000000  0.5302930000000  0.4589780000000 1.0
C      1  0.5512780000000  0.5302270000000  0.5408900000000 1.0
C      1  0.5511640000000  0.4692490000000  0.4593090000000 1.0
C      1  0.5405980000000  0.5508490000000  0.5299120000000 1.0
C      1  0.4575470000000  0.5514000000000  0.4690920000000 1.0
C      1  0.4591750000000  0.4487220000000  0.5299550000000 1.0
C      1  0.5573260000000  0.5380320000000  0.5163600000000 1.0
C      1  0.5387250000000  0.5160770000000  0.5579650000000 1.0
C      1  0.5162990000000  0.5576610000000  0.5385080000000 1.0
C      1  0.5577280000000  0.4603770000000  0.4836340000000 1.0
C      1  0.4410350000000  0.5387660000000  0.4835430000000 1.0
C      1  0.4421240000000  0.4611190000000  0.5157520000000 1.0
C      1  0.5385740000000  0.4843700000000  0.4428350000000 1.0
C      1  0.4597320000000  0.5163170000000  0.4418420000000 1.0
C      1  0.4610540000000  0.4839220000000  0.5573370000000 1.0
C      1  0.5161630000000  0.4421840000000  0.4608000000000 1.0
C      1  0.4818930000000  0.5574910000000  0.4609770000000 1.0
C      1  0.4836800000000  0.4422500000000  0.5384970000000 1.0
C      1  0.5577280000000  0.5159850000000  0.5392410000000 1.0
C      1  0.5385740000000  0.5567830000000  0.5152480000000 1.0
C      1  0.5161630000000  0.5388180000000  0.5574350000000 1.0
C      1  0.5573260000000  0.4832580000000  0.4615860000000 1.0
C      1  0.4421240000000  0.4838670000000  0.5385000000000 1.0
C      1  0.4410350000000  0.5160750000000  0.4608530000000 1.0
C      1  0.5387250000000  0.4416540000000  0.4835410000000 1.0
C      1  0.4610540000000  0.4422820000000  0.5156970000000 1.0
C      1  0.4597320000000  0.5577760000000  0.4833010000000 1.0
C      1  0.5162990000000  0.4611100000000  0.4419570000000 1.0
C      1  0.4836800000000  0.4611210000000  0.5573680000000 1.0
C      1  0.4818930000000  0.5386410000000  0.4421270000000 1.0
C      1  0.4471750000000  0.4990640000000  0.4813920000000 1.0
C      1  0.4981990000000  0.4813360000000  0.4475890000000 1.0
C      1  0.4815210000000  0.4480290000000  0.4987550000000 1.0
C      1  0.4476510000000  0.5008420000000  0.5180150000000 1.0
C      1  0.5519250000000  0.4978760000000  0.5192310000000 1.0
C      1  0.5515090000000  0.5000920000000  0.4821420000000 1.0
C      1  0.4990540000000  0.5182470000000  0.5517480000000 1.0
C      1  0.5006790000000  0.4815480000000  0.5517310000000 1.0
C      1  0.4998150000000  0.5182820000000  0.4477700000000 1.0
C      1  0.4802690000000  0.5521390000000  0.5011090000000 1.0
C      1  0.5181190000000  0.4475940000000  0.5006100000000 1.0
C      1  0.5177920000000  0.5513930000000  0.4983790000000 1.0
C      1  0.4476510000000  0.4816040000000  0.4987760000000 1.0
C      1  0.4990540000000  0.4478700000000  0.4813710000000 1.0
C      1  0.4802700000000  0.4985090000000  0.4474790000000 1.0
C      1  0.4471750000000  0.5182270000000  0.5005540000000 1.0
C      1  0.5515090000000  0.5174760000000  0.4995260000000 1.0
C      1  0.5519250000000  0.4803870000000  0.5017420000000 1.0
C      1  0.4981990000000  0.5520300000000  0.5182820000000 1.0
C      1  0.4998150000000  0.5518480000000  0.4813360000000 1.0
C      1  0.5006790000000  0.4478870000000  0.5180710000000 1.0
C      1  0.4815210000000  0.5008630000000  0.5515890000000 1.0
C      1  0.5177920000000  0.5012390000000  0.4482250000000 1.0
C      1  0.5181190000000  0.4990080000000  0.5520250000000 1.0
C      1  0.5125490000000  0.5506470000000  0.4744100000000 1.0
C      1  0.5513130000000  0.4734630000000  0.5146210000000 1.0
C      1  0.4747640000000  0.5138740000000  0.5507120000000 1.0
C      1  0.5136480000000  0.4486000000000  0.5248980000000 1.0
C      1  0.4853450000000  0.5513390000000  0.5253910000000 1.0
C      1  0.4861690000000  0.4488110000000  0.4746600000000 1.0
C      1  0.5507730000000  0.5243010000000  0.4865940000000 1.0
C      1  0.4484960000000  0.4748110000000  0.4857770000000 1.0
C      1  0.4482140000000  0.5249550000000  0.5134340000000 1.0
C      1  0.4735720000000  0.4855340000000  0.4482640000000 1.0
C      1  0.5243610000000  0.5143760000000  0.4490450000000 1.0
C      1  0.5247760000000  0.4860840000000  0.5512150000000 1.0
C      1  0.5136480000000  0.4747200000000  0.5510180000000 1.0
C      1  0.5507730000000  0.5130250000000  0.4753170000000 1.0
C      1  0.4735720000000  0.5513550000000  0.5140850000000 1.0
C      1  0.5125490000000  0.5252080000000  0.4489710000000 1.0
C      1  0.4861690000000  0.5249580000000  0.5508070000000 1.0
C      1  0.4853450000000  0.4742270000000  0.4482790000000 1.0
C      1  0.5513130000000  0.4849980000000  0.5261550000000 1.0
C      1  0.4482140000000  0.4861840000000  0.4746640000000 1.0
C      1  0.4484960000000  0.5138410000000  0.5248070000000 1.0
C      1  0.4747640000000  0.4489060000000  0.4857450000000 1.0
C      1  0.5247760000000  0.4484030000000  0.5135340000000 1.0
C      1  0.5243610000000  0.5505730000000  0.4852430000000 1.0
C      1  0.4853570000000  0.5429760000000  0.4663710000000 1.0
C      1  0.5434710000000  0.4655810000000  0.4870950000000 1.0
C      1  0.4663040000000  0.4869300000000  0.5429140000000 1.0
C      1  0.4867900000000  0.4566250000000  0.5332240000000 1.0
C      1  0.5128170000000  0.5433530000000  0.5332660000000 1.0
C      1  0.5131070000000  0.4566700000000  0.4661390000000 1.0
C      1  0.5426750000000  0.5325010000000  0.5132160000000 1.0
C      1  0.4564930000000  0.4664470000000  0.5126690000000 1.0
C      1  0.4555530000000  0.5336010000000  0.4864550000000 1.0
C      1  0.4651240000000  0.5129230000000  0.4560940000000 1.0
C      1  0.5329720000000  0.4867070000000  0.4572290000000 1.0
C      1  0.5335530000000  0.5129390000000  0.5436240000000 1.0
C      1  0.4867900000000  0.4663940000000  0.5429930000000 1.0
C      1  0.5426750000000  0.4864030000000  0.4671170000000 1.0
C      1  0.4651240000000  0.5435250000000  0.4866950000000 1.0
C      1  0.4853570000000  0.5332470000000  0.4566420000000 1.0
C      1  0.5131070000000  0.5334800000000  0.5429480000000 1.0
C      1  0.5128170000000  0.4663530000000  0.4562650000000 1.0
C      1  0.5434710000000  0.5125230000000  0.5340370000000 1.0
C      1  0.4555530000000  0.5131630000000  0.4660170000000 1.0
C      1  0.4564930000000  0.4869490000000  0.5331710000000 1.0
C      1  0.4663040000000  0.4567040000000  0.5126890000000 1.0
C      1  0.5335530000000  0.4559940000000  0.4866790000000 1.0
C      1  0.5329720000000  0.5423890000000  0.5129120000000 1.0
C      1  0.4690110000000  0.5691120000000  0.4884950000000 1.0
C      1  0.5688210000000  0.4878070000000  0.4708900000000 1.0
C      1  0.4887110000000  0.4701790000000  0.5687340000000 1.0
C      1  0.4700920000000  0.4309170000000  0.5105860000000 1.0
C      1  0.5297190000000  0.5681230000000  0.5099350000000 1.0
C      1  0.5294820000000  0.4303280000000  0.4885150000000 1.0
C      1  0.5690450000000  0.5105430000000  0.5301120000000 1.0
C      1  0.4307080000000  0.4889180000000  0.5295120000000 1.0
C      1  0.4297800000000  0.5109390000000  0.4700850000000 1.0
C      1  0.4872100000000  0.5295210000000  0.4305660000000 1.0
C      1  0.5110830000000  0.4703930000000  0.4306670000000 1.0
C      1  0.5111310000000  0.5297450000000  0.5688950000000 1.0
C      1  0.4700920000000  0.4890320000000  0.5687020000000 1.0
C      1  0.5690450000000  0.4695070000000  0.4890750000000 1.0
C      1  0.4872100000000  0.5690520000000  0.4700980000000 1.0
C      1  0.4690110000000  0.5111230000000  0.4305070000000 1.0
C      1  0.5294820000000  0.5111030000000  0.5692900000000 1.0
C      1  0.5297190000000  0.4896840000000  0.4314960000000 1.0
C      1  0.5688210000000  0.5287280000000  0.5118110000000 1.0
C      1  0.4297800000000  0.5295330000000  0.4886790000000 1.0
C      1  0.4307080000000  0.4701070000000  0.5107000000000 1.0
C      1  0.4887110000000  0.4308850000000  0.5294390000000 1.0
C      1  0.5111310000000  0.4307230000000  0.4698730000000 1.0
C      1  0.5110830000000  0.5689520000000  0.5292250000000 1.0
C      1  0.5316640000000  0.4254690000000  0.5221580000000 1.0
C      1  0.4259110000000  0.5226620000000  0.5321720000000 1.0
C      1  0.5209970000000  0.5324580000000  0.4261600000000 1.0
C      1  0.5315320000000  0.5723980000000  0.4757600000000 1.0
C      1  0.4676740000000  0.4263070000000  0.4768050000000 1.0
C      1  0.4670300000000  0.5734930000000  0.5225890000000 1.0
C      1  0.4253370000000  0.4773100000000  0.4677100000000 1.0
C      1  0.5747030000000  0.5209310000000  0.4691430000000 1.0
C      1  0.5733870000000  0.4765180000000  0.5328010000000 1.0
C      1  0.5224090000000  0.4675900000000  0.5736540000000 1.0
C      1  0.4775670000000  0.5320490000000  0.5737050000000 1.0
C      1  0.4769060000000  0.4675300000000  0.4261750000000 1.0
C      1  0.5315320000000  0.5238580000000  0.4272210000000 1.0
C      1  0.4253370000000  0.5319080000000  0.5223090000000 1.0
C      1  0.5224090000000  0.4259640000000  0.5320280000000 1.0
C      1  0.5316640000000  0.4774600000000  0.5741490000000 1.0
C      1  0.4670300000000  0.4770290000000  0.4261250000000 1.0
C      1  0.4676740000000  0.5228130000000  0.5733110000000 1.0
C      1  0.4259110000000  0.4674460000000  0.4769560000000 1.0
C      1  0.5733870000000  0.4668170000000  0.5231010000000 1.0
C      1  0.5747030000000  0.5304750000000  0.4786870000000 1.0
C      1  0.5209970000000  0.5734580000000  0.4671600000000 1.0
C      1  0.4769060000000  0.5734430000000  0.5320880000000 1.0
C      1  0.4775670000000  0.4259130000000  0.4675690000000 1.0
C      1  0.4683630000000  0.5427240000000  0.5542500000000 1.0
C      1  0.5449390000000  0.5505790000000  0.4673020000000 1.0
C      1  0.5549960000000  0.4694200000000  0.5478050000000 1.0
C      1  0.4697740000000  0.4524230000000  0.4444120000000 1.0
C      1  0.5275780000000  0.5469030000000  0.4435140000000 1.0
C      1  0.5323120000000  0.4572500000000  0.5530310000000 1.0
C      1  0.5424530000000  0.4448580000000  0.5314720000000 1.0
C      1  0.4519430000000  0.5551740000000  0.5298990000000 1.0
C      1  0.4573930000000  0.4469160000000  0.4669940000000 1.0
C      1  0.5552740000000  0.5305390000000  0.4586170000000 1.0
C      1  0.4448850000000  0.4683190000000  0.4569230000000 1.0
C      1  0.4466370000000  0.5325890000000  0.5421950000000 1.0
C      1  0.4697740000000  0.5552070000000  0.5471950000000 1.0
C      1  0.5424530000000  0.4681460000000  0.5547600000000 1.0
C      1  0.5552740000000  0.5410020000000  0.4690800000000 1.0
C      1  0.4683630000000  0.4453680000000  0.4568950000000 1.0
C      1  0.5323120000000  0.4465870000000  0.5423690000000 1.0
C      1  0.5275780000000  0.5561040000000  0.4527150000000 1.0
C      1  0.5449390000000  0.5323170000000  0.4490390000000 1.0
C      1  0.4573930000000  0.5326240000000  0.5527020000000 1.0
C      1  0.4519430000000  0.4697190000000  0.4444440000000 1.0
C      1  0.5549960000000  0.4518130000000  0.5301980000000 1.0
C      1  0.4466370000000  0.4574240000000  0.4670290000000 1.0
C      1  0.4448850000000  0.5426950000000  0.5312990000000 1.0
C      1  0.4349020000000  0.5067590000000  0.4832040000000 1.0
C      1  0.5067320000000  0.4833610000000  0.4358260000000 1.0
C      1  0.4832960000000  0.4357490000000  0.5064990000000 1.0
C      1  0.4354090000000  0.4930260000000  0.5162540000000 1.0
C      1  0.5637360000000  0.5061360000000  0.5171770000000 1.0
C      1  0.5636110000000  0.4922370000000  0.4839670000000 1.0
C      1  0.5068010000000  0.5165960000000  0.5639830000000 1.0
C      1  0.4928690000000  0.4833900000000  0.5639160000000 1.0
C      1  0.4917510000000  0.5165530000000  0.4357490000000 1.0
C      1  0.4820530000000  0.5639040000000  0.4926960000000 1.0
C      1  0.5163820000000  0.4354600000000  0.4927280000000 1.0
C      1  0.5162450000000  0.5636230000000  0.5064180000000 1.0
C      1  0.4354090000000  0.4833650000000  0.5065920000000 1.0
C      1  0.5068010000000  0.4356350000000  0.4830230000000 1.0
C      1  0.4820530000000  0.5069220000000  0.4357140000000 1.0
C      1  0.4349020000000  0.5164140000000  0.4928590000000 1.0
C      1  0.5636110000000  0.5156520000000  0.5073810000000 1.0
C      1  0.5637360000000  0.4824410000000  0.4934820000000 1.0
C      1  0.5067320000000  0.5637920000000  0.5162570000000 1.0
C      1  0.4917510000000  0.5638690000000  0.4830660000000 1.0
C      1  0.4928690000000  0.4357030000000  0.5162280000000 1.0
C      1  0.4832960000000  0.4931190000000  0.5638690000000 1.0
C      1  0.5162450000000  0.4932010000000  0.4359960000000 1.0
C      1  0.5163820000000  0.5068900000000  0.5641590000000 1.0
C      1  0.5357860000000  0.5163320000000  0.4733570000000 1.0
C      1  0.5164380000000  0.4732350000000  0.5360050000000 1.0
C      1  0.4726360000000  0.5364040000000  0.5167030000000 1.0
C      1  0.5363650000000  0.4824190000000  0.5270650000000 1.0
C      1  0.4635400000000  0.5166210000000  0.5261390000000 1.0
C      1  0.4632810000000  0.4833870000000  0.4730560000000 1.0
C      1  0.5155360000000  0.5260860000000  0.4639550000000 1.0
C      1  0.4827000000000  0.4731960000000  0.4632440000000 1.0
C      1  0.4832240000000  0.5265190000000  0.5357690000000 1.0
C      1  0.4732610000000  0.4639390000000  0.4830040000000 1.0
C      1  0.5257400000000  0.5355720000000  0.4832120000000 1.0
C      1  0.5263960000000  0.4633960000000  0.5164900000000 1.0
C      1  0.5363650000000  0.4725530000000  0.5171990000000 1.0
C      1  0.5155360000000  0.5356630000000  0.4735320000000 1.0
C      1  0.4732610000000  0.5166140000000  0.5356800000000 1.0
C      1  0.5357860000000  0.5262610000000  0.4832860000000 1.0
C      1  0.4632810000000  0.5265620000000  0.5162310000000 1.0
C      1  0.4635400000000  0.4734790000000  0.4829970000000 1.0
C      1  0.5164380000000  0.4636130000000  0.5263830000000 1.0
C      1  0.4832240000000  0.4638490000000  0.4730990000000 1.0
C      1  0.4827000000000  0.5363750000000  0.5264220000000 1.0
C      1  0.4726360000000  0.4829150000000  0.4632140000000 1.0
C      1  0.5263960000000  0.4831290000000  0.5362220000000 1.0
C      1  0.5257400000000  0.5164060000000  0.4640470000000 1.0
C      1  0.5003420000000  0.4245490000000  0.5346730000000 1.0
C      1  0.4232150000000  0.5346720000000  0.5001850000000 1.0
C      1  0.5348920000000  0.5017420000000  0.4258930000000 1.0
C      1  0.4985390000000  0.5759520000000  0.4649320000000 1.0
C      1  0.4996920000000  0.4240330000000  0.4647000000000 1.0
C      1  0.4995510000000  0.5756730000000  0.5343290000000 1.0
C      1  0.4244590000000  0.4648290000000  0.4990370000000 1.0
C      1  0.5760930000000  0.5336440000000  0.5006430000000 1.0
C      1  0.5757630000000  0.4642710000000  0.5005300000000 1.0
C      1  0.5345060000000  0.4996170000000  0.5759860000000 1.0
C      1  0.4649360000000  0.5007580000000  0.5749500000000 1.0
C      1  0.4640680000000  0.4995330000000  0.4237810000000 1.0
C      1  0.4985390000000  0.5346860000000  0.4236660000000 1.0
C      1  0.4244590000000  0.5005810000000  0.5347890000000 1.0
C      1  0.5345060000000  0.4236320000000  0.5000010000000 1.0
C      1  0.5003420000000  0.4649460000000  0.5750690000000 1.0
C      1  0.4995510000000  0.4652890000000  0.4239460000000 1.0
C      1  0.4996920000000  0.5349180000000  0.5755850000000 1.0
C      1  0.4232150000000  0.4994340000000  0.4649460000000 1.0
C      1  0.5757630000000  0.4990890000000  0.5353470000000 1.0
C      1  0.5760930000000  0.4989750000000  0.4659740000000 1.0
C      1  0.5348920000000  0.5737250000000  0.4978760000000 1.0
C      1  0.4640680000000  0.5758370000000  0.5000850000000 1.0
C      1  0.4649360000000  0.4246690000000  0.4988610000000 1.0
C      1  0.5380020000000  0.5205430000000  0.4406940000000 1.0
C      1  0.5190080000000  0.4393340000000  0.5379150000000 1.0
C      1  0.4383090000000  0.5375720000000  0.5183370000000 1.0
C      1  0.5373720000000  0.4812530000000  0.5611490000000 1.0
C      1  0.4617970000000  0.5193130000000  0.5599850000000 1.0
C      1  0.4598420000000  0.4815880000000  0.4385480000000 1.0
C      1  0.5163030000000  0.5609620000000  0.4610390000000 1.0
C      1  0.4814030000000  0.4389710000000  0.4619960000000 1.0
C      1  0.4815930000000  0.5610720000000  0.5391670000000 1.0
C      1  0.4393350000000  0.4617450000000  0.4803810000000 1.0
C      1  0.5616020000000  0.5365310000000  0.4820410000000 1.0
C      1  0.5609900000000  0.4597450000000  0.5183850000000 1.0
C      1  0.5373720000000  0.4384700000000  0.5183650000000 1.0
C      1  0.5163030000000  0.5385790000000  0.4386570000000 1.0
C      1  0.4393350000000  0.5192370000000  0.5378730000000 1.0
C      1  0.5380020000000  0.5589240000000  0.4790750000000 1.0
C      1  0.4598420000000  0.5610700000000  0.5180300000000 1.0
C      1  0.4617970000000  0.4396340000000  0.4803050000000 1.0
C      1  0.5190080000000  0.4617030000000  0.5602840000000 1.0
C      1  0.4815930000000  0.4604520000000  0.4385460000000 1.0
C      1  0.4814030000000  0.5376220000000  0.5606470000000 1.0
C      1  0.4383090000000  0.4812810000000  0.4620470000000 1.0
C      1  0.5609900000000  0.4812330000000  0.5398740000000 1.0
C      1  0.5616020000000  0.5175780000000  0.4630870000000 1.0
C      1  0.4329490000000  0.4942800000000  0.4557180000000 1.0
C      1  0.4948470000000  0.4554560000000  0.4332280000000 1.0
C      1  0.4557540000000  0.4343500000000  0.4935600000000 1.0
C      1  0.4341600000000  0.5059480000000  0.5439220000000 1.0
C      1  0.5663190000000  0.4944580000000  0.5450140000000 1.0
C      1  0.5666370000000  0.5046250000000  0.4567910000000 1.0
C      1  0.4944820000000  0.5440220000000  0.5657850000000 1.0
C      1  0.5057070000000  0.4557140000000  0.5654530000000 1.0
C      1  0.5032010000000  0.5441120000000  0.4333600000000 1.0
C      1  0.4544790000000  0.5663900000000  0.5049100000000 1.0
C      1  0.5437400000000  0.4332700000000  0.5052820000000 1.0
C      1  0.5439150000000  0.5638910000000  0.4925780000000 1.0
C      1  0.4341600000000  0.4556970000000  0.4936700000000 1.0
C      1  0.4944820000000  0.4338340000000  0.4555960000000 1.0
C      1  0.4544790000000  0.4947080000000  0.4332290000000 1.0
C      1  0.4329490000000  0.5439000000000  0.5053380000000 1.0
C      1  0.5666370000000  0.5428270000000  0.4949930000000 1.0
C      1  0.5663190000000  0.4546040000000  0.5051600000000 1.0
C      1  0.4948470000000  0.5663910000000  0.5441620000000 1.0
C      1  0.5032010000000  0.5662580000000  0.4555060000000 1.0
C      1  0.5057070000000  0.4341660000000  0.5439040000000 1.0
C      1  0.4557540000000  0.5060580000000  0.5652690000000 1.0
C      1  0.5439150000000  0.5070400000000  0.4357270000000 1.0
C      1  0.5437400000000  0.4943370000000  0.5663480000000 1.0
C      1  0.4883530000000  0.4726550000000  0.4187590000000 1.0
C      1  0.4722940000000  0.4187370000000  0.4882000000000 1.0
C      1  0.4175400000000  0.4885260000000  0.4724040000000 1.0
C      1  0.4888380000000  0.5274460000000  0.5814280000000 1.0
C      1  0.5109590000000  0.4722740000000  0.5810940000000 1.0
C      1  0.5099920000000  0.5273140000000  0.4184470000000 1.0
C      1  0.4717660000000  0.5810300000000  0.5110650000000 1.0
C      1  0.5269720000000  0.4178560000000  0.5108260000000 1.0
C      1  0.5274660000000  0.5797160000000  0.4873960000000 1.0
C      1  0.4183710000000  0.5112160000000  0.5275740000000 1.0
C      1  0.5809720000000  0.4879420000000  0.5279200000000 1.0
C      1  0.5820500000000  0.5094630000000  0.4738210000000 1.0
C      1  0.4888380000000  0.4181900000000  0.4721720000000 1.0
C      1  0.4717660000000  0.4885530000000  0.4185880000000 1.0
C      1  0.4183710000000  0.4720440000000  0.4884020000000 1.0
C      1  0.4883530000000  0.5808600000000  0.5269630000000 1.0
C      1  0.5099920000000  0.5811720000000  0.4723040000000 1.0
C      1  0.5109590000000  0.4185240000000  0.5273450000000 1.0
C      1  0.4722940000000  0.5114190000000  0.5808820000000 1.0
C      1  0.5274660000000  0.5122220000000  0.4199020000000 1.0
C      1  0.5269710000000  0.4887920000000  0.5817620000000 1.0
C      1  0.4175400000000  0.5272140000000  0.5110920000000 1.0
C      1  0.5820500000000  0.5257970000000  0.4901550000000 1.0
C      1  0.5809720000000  0.4716990000000  0.5116760000000 1.0
C      1  0.5142910000000  0.5145710000000  0.4146200000000 1.0
C      1  0.4852720000000  0.5145320000000  0.5856940000000 1.0
C      1  0.4847480000000  0.5855100000000  0.5142020000000 1.0
C      1  0.5140290000000  0.4852720000000  0.5859190000000 1.0
C      1  0.5140290000000  0.4136990000000  0.5143460000000 1.0
C      1  0.4133660000000  0.5142950000000  0.5146740000000 1.0
C      1  0.4847480000000  0.4854170000000  0.4141080000000 1.0
C      1  0.5142910000000  0.5849990000000  0.4850470000000 1.0
C      1  0.4852720000000  0.4139240000000  0.4850860000000 1.0
C      1  0.4133660000000  0.4849450000000  0.4853230000000 1.0
C      1  0.5861720000000  0.5126790000000  0.4869390000000 1.0
C      1  0.5855550000000  0.4845440000000  0.5150740000000 1.0
C      1  0.5591310000000  0.4586340000000  0.5409850000000 1.0
C      1  0.5393720000000  0.5462090000000  0.4534100000000 1.0
C      1  0.4589030000000  0.5594170000000  0.5405580000000 1.0
C      1  0.4589030000000  0.4590600000000  0.4402020000000 1.0
END
