TITL C-1379267-1329-108 -5.90076044484004e-07 1000000 -2331.56023311218 0 0 320 (Th) n - 1
REM
REM in /nfs/bkarasulu/CARBON/AIRSS/Generating-Clusters/GAP-ML-2020/Higher-Symm/Selected-Sizes/TryA-Only_Ih-Symm/Larger-Clusters/Try2-MINAMP_6A
REM
REM
REM
REM
REM
REM ./C.cell (31579ac4e95a012ec27f3239692ae8a5)
REM
REM compiler GCC version 9.2.1 20190827 (Red Hat 9.2.1-1)
REM options -cpp -mtune=generic -march=x86-64 -g -O0 -fpre-include=/usr/include/finclude/math-vector-fortran.h
REM seed -1778210632 -1672191618 491948173 187207511 570459996 -2079150151 -1993583562 -1600175003 1580649848 1562839769 -1301761665 2024731082 -1833185086 1636066747 1389205482 -260757497 189952490 1565283444 -1616859253 -428710562 1304102940 -1060448265 -1988708506 1570636128 84494870 -2134140222 885572752 512658580 1535706727 -1958476109 719558367 358705209 1390861488
REM
CELL 1.54180  100.00000  100.00000  100.00000   90.00000   90.00000   90.00000
LATT -1
SFAC C  
C      1  0.4459260000000  0.5070310000000  0.4411640000000 1.0
C      1  0.5069840000000  0.4414970000000  0.4456400000000 1.0
C      1  0.4414500000000  0.4459740000000  0.5066970000000 1.0
C      1  0.4459260000000  0.4935420000000  0.5587420000000 1.0
C      1  0.5545520000000  0.5070310000000  0.5587420000000 1.0
C      1  0.5545520000000  0.4935420000000  0.4411640000000 1.0
C      1  0.5069840000000  0.5590750000000  0.5542660000000 1.0
C      1  0.4934950000000  0.4414970000000  0.5542660000000 1.0
C      1  0.4934950000000  0.5590750000000  0.4456400000000 1.0
C      1  0.4414500000000  0.5545990000000  0.4932090000000 1.0
C      1  0.5590280000000  0.4459740000000  0.4932090000000 1.0
C      1  0.5590280000000  0.5545990000000  0.5066970000000 1.0
C      1  0.5545520000000  0.5070310000000  0.4411640000000 1.0
C      1  0.4934950000000  0.4414970000000  0.4456400000000 1.0
C      1  0.5590280000000  0.4459740000000  0.5066970000000 1.0
C      1  0.5545520000000  0.4935420000000  0.5587420000000 1.0
C      1  0.4459260000000  0.5070310000000  0.5587420000000 1.0
C      1  0.4459260000000  0.4935420000000  0.4411640000000 1.0
C      1  0.4934950000000  0.5590750000000  0.5542660000000 1.0
C      1  0.5069840000000  0.4414970000000  0.5542660000000 1.0
C      1  0.5069840000000  0.5590750000000  0.4456400000000 1.0
C      1  0.5590280000000  0.5545990000000  0.4932090000000 1.0
C      1  0.4414500000000  0.4459740000000  0.4932090000000 1.0
C      1  0.4414500000000  0.5545990000000  0.5066970000000 1.0
C      1  0.4275590000000  0.4558240000000  0.4611780000000 1.0
C      1  0.4557770000000  0.4615110000000  0.4272730000000 1.0
C      1  0.4614640000000  0.4276070000000  0.4554910000000 1.0
C      1  0.4275590000000  0.5447480000000  0.5387280000000 1.0
C      1  0.5729190000000  0.4558240000000  0.5387280000000 1.0
C      1  0.5729190000000  0.5447480000000  0.4611780000000 1.0
C      1  0.4557770000000  0.5390620000000  0.5726330000000 1.0
C      1  0.5447010000000  0.4615110000000  0.5726330000000 1.0
C      1  0.5447010000000  0.5390620000000  0.4272730000000 1.0
C      1  0.4614640000000  0.5729660000000  0.5444150000000 1.0
C      1  0.5390150000000  0.4276070000000  0.5444150000000 1.0
C      1  0.5390150000000  0.5729660000000  0.4554910000000 1.0
C      1  0.5729190000000  0.4558240000000  0.4611780000000 1.0
C      1  0.5447010000000  0.4615110000000  0.4272730000000 1.0
C      1  0.5390150000000  0.4276070000000  0.4554910000000 1.0
C      1  0.5729190000000  0.5447480000000  0.5387280000000 1.0
C      1  0.4275590000000  0.4558240000000  0.5387280000000 1.0
C      1  0.4275590000000  0.5447480000000  0.4611780000000 1.0
C      1  0.5447010000000  0.5390620000000  0.5726330000000 1.0
C      1  0.4557770000000  0.4615110000000  0.5726330000000 1.0
C      1  0.4557770000000  0.5390620000000  0.4272730000000 1.0
C      1  0.5390150000000  0.5729660000000  0.5444150000000 1.0
C      1  0.4614640000000  0.4276070000000  0.5444150000000 1.0
C      1  0.4614640000000  0.5729660000000  0.4554910000000 1.0
C      1  0.4272980000000  0.4695190000000  0.5403620000000 1.0
C      1  0.4694720000000  0.5406960000000  0.4270120000000 1.0
C      1  0.5406490000000  0.4273450000000  0.4691850000000 1.0
C      1  0.4272980000000  0.5310540000000  0.4595440000000 1.0
C      1  0.5731810000000  0.4695190000000  0.4595440000000 1.0
C      1  0.5731810000000  0.5310540000000  0.5403620000000 1.0
C      1  0.4694720000000  0.4598770000000  0.5728940000000 1.0
C      1  0.5310070000000  0.5406960000000  0.5728940000000 1.0
C      1  0.5310070000000  0.4598770000000  0.4270120000000 1.0
C      1  0.5406490000000  0.5732280000000  0.5307200000000 1.0
C      1  0.4598300000000  0.4273450000000  0.5307200000000 1.0
C      1  0.4598300000000  0.5732280000000  0.4691850000000 1.0
C      1  0.5731810000000  0.4695190000000  0.5403620000000 1.0
C      1  0.5310070000000  0.5406960000000  0.4270120000000 1.0
C      1  0.4598300000000  0.4273450000000  0.4691850000000 1.0
C      1  0.5731810000000  0.5310540000000  0.4595440000000 1.0
C      1  0.4272980000000  0.4695190000000  0.4595440000000 1.0
C      1  0.4272980000000  0.5310540000000  0.5403620000000 1.0
C      1  0.5310070000000  0.4598770000000  0.5728940000000 1.0
C      1  0.4694720000000  0.5406960000000  0.5728940000000 1.0
C      1  0.4694720000000  0.4598770000000  0.4270120000000 1.0
C      1  0.4598300000000  0.5732280000000  0.5307200000000 1.0
C      1  0.5406490000000  0.4273450000000  0.5307200000000 1.0
C      1  0.5406490000000  0.5732280000000  0.4691850000000 1.0
C      1  0.4479380000000  0.5674900000000  0.4739410000000 1.0
C      1  0.5674430000000  0.4742750000000  0.4476520000000 1.0
C      1  0.4742270000000  0.4479850000000  0.5671560000000 1.0
C      1  0.4479380000000  0.4330830000000  0.5259650000000 1.0
C      1  0.5525400000000  0.5674900000000  0.5259650000000 1.0
C      1  0.5525400000000  0.4330830000000  0.4739410000000 1.0
C      1  0.5674430000000  0.5262980000000  0.5522540000000 1.0
C      1  0.4330360000000  0.4742750000000  0.5522540000000 1.0
C      1  0.4330360000000  0.5262980000000  0.4476520000000 1.0
C      1  0.4742270000000  0.5525870000000  0.4327490000000 1.0
C      1  0.5262510000000  0.4479850000000  0.4327490000000 1.0
C      1  0.5262510000000  0.5525870000000  0.5671560000000 1.0
C      1  0.5525400000000  0.5674900000000  0.4739410000000 1.0
C      1  0.4330360000000  0.4742750000000  0.4476520000000 1.0
C      1  0.5262510000000  0.4479850000000  0.5671560000000 1.0
C      1  0.5525400000000  0.4330830000000  0.5259650000000 1.0
C      1  0.4479380000000  0.5674900000000  0.5259650000000 1.0
C      1  0.4479380000000  0.4330830000000  0.4739410000000 1.0
C      1  0.4330360000000  0.5262980000000  0.5522540000000 1.0
C      1  0.5674430000000  0.4742750000000  0.5522540000000 1.0
C      1  0.5674430000000  0.5262980000000  0.4476520000000 1.0
C      1  0.5262510000000  0.5525870000000  0.4327490000000 1.0
C      1  0.4742270000000  0.4479850000000  0.4327490000000 1.0
C      1  0.4742270000000  0.5525870000000  0.5671560000000 1.0
C      1  0.5331470000000  0.4928350000000  0.4282720000000 1.0
C      1  0.4927880000000  0.4286060000000  0.5328610000000 1.0
C      1  0.4285590000000  0.5331940000000  0.4925010000000 1.0
C      1  0.5331470000000  0.5077380000000  0.5716330000000 1.0
C      1  0.4673310000000  0.4928350000000  0.5716330000000 1.0
C      1  0.4673310000000  0.5077380000000  0.4282720000000 1.0
C      1  0.4927880000000  0.5719670000000  0.4670450000000 1.0
C      1  0.5076910000000  0.4286060000000  0.4670450000000 1.0
C      1  0.5076910000000  0.5719670000000  0.5328610000000 1.0
C      1  0.4285590000000  0.4673780000000  0.5074040000000 1.0
C      1  0.5719200000000  0.5331940000000  0.5074040000000 1.0
C      1  0.5719200000000  0.4673780000000  0.4925010000000 1.0
C      1  0.4673310000000  0.4928350000000  0.4282720000000 1.0
C      1  0.5076910000000  0.4286060000000  0.5328610000000 1.0
C      1  0.5719200000000  0.5331940000000  0.4925010000000 1.0
C      1  0.4673310000000  0.5077380000000  0.5716330000000 1.0
C      1  0.5331470000000  0.4928350000000  0.5716330000000 1.0
C      1  0.5331470000000  0.5077380000000  0.4282720000000 1.0
C      1  0.5076910000000  0.5719670000000  0.4670450000000 1.0
C      1  0.4927880000000  0.4286060000000  0.4670450000000 1.0
C      1  0.4927880000000  0.5719670000000  0.5328610000000 1.0
C      1  0.5719200000000  0.4673780000000  0.5074040000000 1.0
C      1  0.4285590000000  0.5331940000000  0.5074040000000 1.0
C      1  0.4285590000000  0.4673780000000  0.4925010000000 1.0
C      1  0.5555500000000  0.5455430000000  0.5649280000000 1.0
C      1  0.5454960000000  0.5652610000000  0.5552630000000 1.0
C      1  0.5652140000000  0.5555970000000  0.5452090000000 1.0
C      1  0.5555500000000  0.4550300000000  0.4349780000000 1.0
C      1  0.4449290000000  0.5455430000000  0.4349780000000 1.0
C      1  0.4449290000000  0.4550300000000  0.5649280000000 1.0
C      1  0.5454960000000  0.4353110000000  0.4446420000000 1.0
C      1  0.4549830000000  0.5652610000000  0.4446420000000 1.0
C      1  0.4549830000000  0.4353110000000  0.5552630000000 1.0
C      1  0.5652140000000  0.4449760000000  0.4546970000000 1.0
C      1  0.4352640000000  0.5555970000000  0.4546970000000 1.0
C      1  0.4352640000000  0.4449760000000  0.5452090000000 1.0
C      1  0.4449290000000  0.5455430000000  0.5649280000000 1.0
C      1  0.4549830000000  0.5652610000000  0.5552630000000 1.0
C      1  0.4352640000000  0.5555970000000  0.5452090000000 1.0
C      1  0.4449290000000  0.4550300000000  0.4349780000000 1.0
C      1  0.5555500000000  0.5455430000000  0.4349780000000 1.0
C      1  0.5555500000000  0.4550300000000  0.5649280000000 1.0
C      1  0.4549830000000  0.4353110000000  0.4446420000000 1.0
C      1  0.5454960000000  0.5652610000000  0.4446420000000 1.0
C      1  0.5454960000000  0.4353110000000  0.5552630000000 1.0
C      1  0.4352640000000  0.4449760000000  0.4546970000000 1.0
C      1  0.5652140000000  0.5555970000000  0.4546970000000 1.0
C      1  0.5652140000000  0.4449760000000  0.5452090000000 1.0
C      1  0.4701920000000  0.5733220000000  0.5195570000000 1.0
C      1  0.5732750000000  0.5198910000000  0.4699050000000 1.0
C      1  0.5198430000000  0.4702390000000  0.5729890000000 1.0
C      1  0.4701920000000  0.4272500000000  0.4803490000000 1.0
C      1  0.5302870000000  0.5733220000000  0.4803490000000 1.0
C      1  0.5302870000000  0.4272500000000  0.5195570000000 1.0
C      1  0.5732750000000  0.4806820000000  0.5300010000000 1.0
C      1  0.4272030000000  0.5198910000000  0.5300010000000 1.0
C      1  0.4272030000000  0.4806820000000  0.4699050000000 1.0
C      1  0.5198430000000  0.5303340000000  0.4269170000000 1.0
C      1  0.4806350000000  0.4702390000000  0.4269170000000 1.0
C      1  0.4806350000000  0.5303340000000  0.5729890000000 1.0
C      1  0.5302870000000  0.5733220000000  0.5195570000000 1.0
C      1  0.4272030000000  0.5198910000000  0.4699050000000 1.0
C      1  0.4806350000000  0.4702390000000  0.5729890000000 1.0
C      1  0.5302870000000  0.4272500000000  0.4803490000000 1.0
C      1  0.4701920000000  0.5733220000000  0.4803490000000 1.0
C      1  0.4701920000000  0.4272500000000  0.5195570000000 1.0
C      1  0.4272030000000  0.4806820000000  0.5300010000000 1.0
C      1  0.5732750000000  0.5198910000000  0.5300010000000 1.0
C      1  0.5732750000000  0.4806820000000  0.4699050000000 1.0
C      1  0.4806350000000  0.5303340000000  0.4269170000000 1.0
C      1  0.5198430000000  0.4702390000000  0.4269170000000 1.0
C      1  0.5198430000000  0.5303340000000  0.5729890000000 1.0
C      1  0.4777420000000  0.4835940000000  0.4260770000000 1.0
C      1  0.4835470000000  0.4264100000000  0.4774560000000 1.0
C      1  0.4263630000000  0.4777890000000  0.4832600000000 1.0
C      1  0.4777420000000  0.5169790000000  0.5738290000000 1.0
C      1  0.5227360000000  0.4835940000000  0.5738290000000 1.0
C      1  0.5227360000000  0.5169790000000  0.4260770000000 1.0
C      1  0.4835470000000  0.5741630000000  0.5224500000000 1.0
C      1  0.5169320000000  0.4264100000000  0.5224500000000 1.0
C      1  0.5169320000000  0.5741630000000  0.4774560000000 1.0
C      1  0.4263630000000  0.5227840000000  0.5166460000000 1.0
C      1  0.5741150000000  0.4777890000000  0.5166460000000 1.0
C      1  0.5741150000000  0.5227840000000  0.4832600000000 1.0
C      1  0.5227360000000  0.4835940000000  0.4260770000000 1.0
C      1  0.5169320000000  0.4264100000000  0.4774560000000 1.0
C      1  0.5741150000000  0.4777890000000  0.4832600000000 1.0
C      1  0.5227360000000  0.5169790000000  0.5738290000000 1.0
C      1  0.4777420000000  0.4835940000000  0.5738290000000 1.0
C      1  0.4777420000000  0.5169790000000  0.4260770000000 1.0
C      1  0.5169320000000  0.5741630000000  0.5224500000000 1.0
C      1  0.4835470000000  0.4264100000000  0.5224500000000 1.0
C      1  0.4835470000000  0.5741630000000  0.4774560000000 1.0
C      1  0.5741150000000  0.5227840000000  0.5166460000000 1.0
C      1  0.4263630000000  0.4777890000000  0.5166460000000 1.0
C      1  0.4263630000000  0.5227840000000  0.4832600000000 1.0
C      1  0.5617230000000  0.4678660000000  0.5630910000000 1.0
C      1  0.4678190000000  0.5634250000000  0.5614370000000 1.0
C      1  0.5633780000000  0.5617700000000  0.4675320000000 1.0
C      1  0.5617230000000  0.5327070000000  0.4368140000000 1.0
C      1  0.4387550000000  0.4678660000000  0.4368140000000 1.0
C      1  0.4387550000000  0.5327070000000  0.5630910000000 1.0
C      1  0.4678190000000  0.4371480000000  0.4384690000000 1.0
C      1  0.5326600000000  0.5634250000000  0.4384690000000 1.0
C      1  0.5326600000000  0.4371480000000  0.5614370000000 1.0
C      1  0.5633780000000  0.4388030000000  0.5323730000000 1.0
C      1  0.4371010000000  0.5617700000000  0.5323730000000 1.0
C      1  0.4371010000000  0.4388030000000  0.4675320000000 1.0
C      1  0.4387550000000  0.4678660000000  0.5630910000000 1.0
C      1  0.5326600000000  0.5634250000000  0.5614370000000 1.0
C      1  0.4371010000000  0.5617700000000  0.4675320000000 1.0
C      1  0.4387550000000  0.5327070000000  0.4368140000000 1.0
C      1  0.5617230000000  0.4678660000000  0.4368140000000 1.0
C      1  0.5617230000000  0.5327070000000  0.5630910000000 1.0
C      1  0.5326600000000  0.4371480000000  0.4384690000000 1.0
C      1  0.4678190000000  0.5634250000000  0.4384690000000 1.0
C      1  0.4678190000000  0.4371480000000  0.5614370000000 1.0
C      1  0.4371010000000  0.4388030000000  0.5323730000000 1.0
C      1  0.5633780000000  0.5617700000000  0.5323730000000 1.0
C      1  0.5633780000000  0.4388030000000  0.4675320000000 1.0
C      1  0.5074220000000  0.4622710000000  0.5689860000000 1.0
C      1  0.4622240000000  0.5693200000000  0.5071360000000 1.0
C      1  0.5692720000000  0.5074690000000  0.4619370000000 1.0
C      1  0.5074220000000  0.5383020000000  0.4309200000000 1.0
C      1  0.4930560000000  0.4622710000000  0.4309200000000 1.0
C      1  0.4930560000000  0.5383020000000  0.5689860000000 1.0
C      1  0.4622240000000  0.4312530000000  0.4927700000000 1.0
C      1  0.5382550000000  0.5693200000000  0.4927700000000 1.0
C      1  0.5382550000000  0.4312530000000  0.5071360000000 1.0
C      1  0.5692720000000  0.4931040000000  0.5379680000000 1.0
C      1  0.4312060000000  0.5074690000000  0.5379680000000 1.0
C      1  0.4312060000000  0.4931040000000  0.4619370000000 1.0
C      1  0.4930560000000  0.4622710000000  0.5689860000000 1.0
C      1  0.5382550000000  0.5693200000000  0.5071360000000 1.0
C      1  0.4312060000000  0.5074690000000  0.4619370000000 1.0
C      1  0.4930560000000  0.5383020000000  0.4309200000000 1.0
C      1  0.5074220000000  0.4622710000000  0.4309200000000 1.0
C      1  0.5074220000000  0.5383020000000  0.5689860000000 1.0
C      1  0.5382550000000  0.4312530000000  0.4927700000000 1.0
C      1  0.4622240000000  0.5693200000000  0.4927700000000 1.0
C      1  0.4622240000000  0.4312530000000  0.5071360000000 1.0
C      1  0.4312060000000  0.4931040000000  0.5379680000000 1.0
C      1  0.5692720000000  0.5074690000000  0.5379680000000 1.0
C      1  0.5692720000000  0.4931040000000  0.4619370000000 1.0
C      1  0.4874610000000  0.4500170000000  0.5636250000000 1.0
C      1  0.4499700000000  0.5639580000000  0.4871740000000 1.0
C      1  0.5639110000000  0.4875080000000  0.4496840000000 1.0
C      1  0.4874610000000  0.5505560000000  0.4362810000000 1.0
C      1  0.5130180000000  0.4500170000000  0.4362810000000 1.0
C      1  0.5130180000000  0.5505560000000  0.5636250000000 1.0
C      1  0.4499700000000  0.4366150000000  0.5127320000000 1.0
C      1  0.5505090000000  0.5639580000000  0.5127320000000 1.0
C      1  0.5505090000000  0.4366150000000  0.4871740000000 1.0
C      1  0.5639110000000  0.5130650000000  0.5502220000000 1.0
C      1  0.4365680000000  0.4875080000000  0.5502220000000 1.0
C      1  0.4365680000000  0.5130650000000  0.4496840000000 1.0
C      1  0.5130180000000  0.4500170000000  0.5636250000000 1.0
C      1  0.5505090000000  0.5639580000000  0.4871740000000 1.0
C      1  0.4365680000000  0.4875080000000  0.4496840000000 1.0
C      1  0.5130180000000  0.5505560000000  0.4362810000000 1.0
C      1  0.4874610000000  0.4500170000000  0.4362810000000 1.0
C      1  0.4874610000000  0.5505560000000  0.5636250000000 1.0
C      1  0.5505090000000  0.4366150000000  0.5127320000000 1.0
C      1  0.4499700000000  0.5639580000000  0.5127320000000 1.0
C      1  0.4499700000000  0.4366150000000  0.4871740000000 1.0
C      1  0.4365680000000  0.5130650000000  0.5502220000000 1.0
C      1  0.5639110000000  0.4875080000000  0.5502220000000 1.0
C      1  0.5639110000000  0.5130650000000  0.4496840000000 1.0
C      1  0.4494190000000  0.4742490000000  0.5706360000000 1.0
C      1  0.4742020000000  0.5709690000000  0.4491330000000 1.0
C      1  0.5709220000000  0.4494660000000  0.4739160000000 1.0
C      1  0.4494190000000  0.5263240000000  0.4292700000000 1.0
C      1  0.5510600000000  0.4742490000000  0.4292700000000 1.0
C      1  0.5510600000000  0.5263240000000  0.5706360000000 1.0
C      1  0.4742020000000  0.4296040000000  0.5507730000000 1.0
C      1  0.5262760000000  0.5709690000000  0.5507730000000 1.0
C      1  0.5262760000000  0.4296040000000  0.4491330000000 1.0
C      1  0.5709220000000  0.5511070000000  0.5259900000000 1.0
C      1  0.4295570000000  0.4494660000000  0.5259900000000 1.0
C      1  0.4295570000000  0.5511070000000  0.4739160000000 1.0
C      1  0.5510600000000  0.4742490000000  0.5706360000000 1.0
C      1  0.5262760000000  0.5709690000000  0.4491330000000 1.0
C      1  0.4295570000000  0.4494660000000  0.4739160000000 1.0
C      1  0.5510600000000  0.5263240000000  0.4292700000000 1.0
C      1  0.4494190000000  0.4742490000000  0.4292700000000 1.0
C      1  0.4494190000000  0.5263240000000  0.5706350000000 1.0
C      1  0.5262760000000  0.4296040000000  0.5507730000000 1.0
C      1  0.4742020000000  0.5709690000000  0.5507730000000 1.0
C      1  0.4742020000000  0.4296040000000  0.4491330000000 1.0
C      1  0.4295570000000  0.5511070000000  0.5259900000000 1.0
C      1  0.5709220000000  0.4494660000000  0.5259900000000 1.0
C      1  0.5709220000000  0.5511070000000  0.4739160000000 1.0
C      1  0.5137810000000  0.5681310000000  0.4541150000000 1.0
C      1  0.5680840000000  0.4544490000000  0.5134950000000 1.0
C      1  0.4544020000000  0.5138280000000  0.5677970000000 1.0
C      1  0.5137810000000  0.4324420000000  0.5457900000000 1.0
C      1  0.4866970000000  0.5681310000000  0.5457900000000 1.0
C      1  0.4866970000000  0.4324420000000  0.4541150000000 1.0
C      1  0.5680840000000  0.5461240000000  0.4864110000000 1.0
C      1  0.4323950000000  0.4544490000000  0.4864110000000 1.0
C      1  0.4323950000000  0.5461240000000  0.5134950000000 1.0
C      1  0.4544020000000  0.4867440000000  0.4321090000000 1.0
C      1  0.5460770000000  0.5138280000000  0.4321090000000 1.0
C      1  0.5460770000000  0.4867440000000  0.5677970000000 1.0
C      1  0.4866970000000  0.5681310000000  0.4541150000000 1.0
C      1  0.4323950000000  0.4544490000000  0.5134950000000 1.0
C      1  0.5460770000000  0.5138280000000  0.5677970000000 1.0
C      1  0.4866970000000  0.4324420000000  0.5457900000000 1.0
C      1  0.5137810000000  0.5681310000000  0.5457900000000 1.0
C      1  0.5137810000000  0.4324420000000  0.4541150000000 1.0
C      1  0.4323950000000  0.5461240000000  0.4864110000000 1.0
C      1  0.5680840000000  0.4544490000000  0.4864110000000 1.0
C      1  0.5680840000000  0.5461240000000  0.5134950000000 1.0
C      1  0.5460770000000  0.4867440000000  0.4321090000000 1.0
C      1  0.4544020000000  0.5138280000000  0.4321090000000 1.0
C      1  0.4544020000000  0.4867440000000  0.5677970000000 1.0
C      1  0.5561260000000  0.4443990000000  0.4440660000000 1.0
C      1  0.4443520000000  0.5561740000000  0.5558400000000 1.0
C      1  0.4443520000000  0.4443990000000  0.5558400000000 1.0
C      1  0.5561260000000  0.5561740000000  0.4440660000000 1.0
C      1  0.5561260000000  0.5561740000000  0.5558400000000 1.0
C      1  0.4443520000000  0.5561740000000  0.4440660000000 1.0
C      1  0.4443520000000  0.4443990000000  0.4440660000000 1.0
C      1  0.5561260000000  0.4443990000000  0.5558400000000 1.0
END
