TITL C-1379267-1329-99 -2.99911171765671e-06 1000000 -2346.34111449052 0 0 320 (Th) n - 1
REM
REM in /nfs/bkarasulu/CARBON/AIRSS/Generating-Clusters/GAP-ML-2020/Higher-Symm/Selected-Sizes/TryA-Only_Ih-Symm/Larger-Clusters/Try2-MINAMP_6A
REM
REM
REM
REM
REM
REM ./C.cell (31579ac4e95a012ec27f3239692ae8a5)
REM
REM compiler GCC version 9.2.1 20190827 (Red Hat 9.2.1-1)
REM options -cpp -mtune=generic -march=x86-64 -g -O0 -fpre-include=/usr/include/finclude/math-vector-fortran.h
REM seed 1074781773 346694592 398201146 -1645701722 17951803 1775377495 185394426 1942052552 -385608361 -631391654 -1084184869 -615342747 1725492702 -2017664803 1260547040 -566142177 703770255 260726655 1325404486 -598189075 1786265097 -1646985115 169342 821207160 -140013842 -373228844 306153471 916995279 1733907309 1970290275 1041119147 -952581897 1555325548
REM
CELL 1.54180  100.00000  100.00000  100.00000   90.00000   90.00000   90.00000
LATT -1
SFAC C  
C      1  0.5071100000000  0.4293230000000  0.5296150000000 1.0
C      1  0.4291000000000  0.5298590000000  0.5070880000000 1.0
C      1  0.5296360000000  0.5073320000000  0.4290790000000 1.0
C      1  0.4924020000000  0.5706340000000  0.5296150000000 1.0
C      1  0.5071100000000  0.5706340000000  0.4698540000000 1.0
C      1  0.4924020000000  0.4293230000000  0.4698540000000 1.0
C      1  0.5704120000000  0.4700980000000  0.5070880000000 1.0
C      1  0.4291000000000  0.4700980000000  0.4923800000000 1.0
C      1  0.5704120000000  0.5298590000000  0.4923800000000 1.0
C      1  0.4698750000000  0.4926250000000  0.4290790000000 1.0
C      1  0.5296360000000  0.4926250000000  0.5703900000000 1.0
C      1  0.4698750000000  0.5073320000000  0.5703900000000 1.0
C      1  0.5071100000000  0.4293230000000  0.4698540000000 1.0
C      1  0.4291000000000  0.5298590000000  0.4923800000000 1.0
C      1  0.5296360000000  0.5073320000000  0.5703900000000 1.0
C      1  0.4924020000000  0.5706340000000  0.4698540000000 1.0
C      1  0.5071100000000  0.5706340000000  0.5296150000000 1.0
C      1  0.4924020000000  0.4293230000000  0.5296150000000 1.0
C      1  0.5704120000000  0.4700980000000  0.4923800000000 1.0
C      1  0.4291000000000  0.4700980000000  0.5070880000000 1.0
C      1  0.5704120000000  0.5298590000000  0.5070880000000 1.0
C      1  0.4698750000000  0.4926250000000  0.5703900000000 1.0
C      1  0.5296360000000  0.4926250000000  0.4290790000000 1.0
C      1  0.4698750000000  0.5073320000000  0.4290790000000 1.0
C      1  0.4933590000000  0.5394250000000  0.5235700000000 1.0
C      1  0.5392030000000  0.5238150000000  0.4933370000000 1.0
C      1  0.5235920000000  0.4935810000000  0.5391810000000 1.0
C      1  0.5061530000000  0.4605320000000  0.5235700000000 1.0
C      1  0.4933590000000  0.4605320000000  0.4758980000000 1.0
C      1  0.5061530000000  0.5394250000000  0.4758980000000 1.0
C      1  0.4603090000000  0.4761420000000  0.4933370000000 1.0
C      1  0.5392030000000  0.4761420000000  0.5061310000000 1.0
C      1  0.4603090000000  0.5238150000000  0.5061310000000 1.0
C      1  0.4759200000000  0.5063760000000  0.5391810000000 1.0
C      1  0.5235920000000  0.5063760000000  0.4602880000000 1.0
C      1  0.4759200000000  0.4935810000000  0.4602880000000 1.0
C      1  0.4933590000000  0.5394250000000  0.4758980000000 1.0
C      1  0.5392030000000  0.5238150000000  0.5061320000000 1.0
C      1  0.5235920000000  0.4935810000000  0.4602880000000 1.0
C      1  0.5061530000000  0.4605320000000  0.4758980000000 1.0
C      1  0.4933590000000  0.4605320000000  0.5235700000000 1.0
C      1  0.5061530000000  0.5394250000000  0.5235700000000 1.0
C      1  0.4603090000000  0.4761420000000  0.5061310000000 1.0
C      1  0.5392030000000  0.4761420000000  0.4933370000000 1.0
C      1  0.4603090000000  0.5238150000000  0.4933370000000 1.0
C      1  0.4759200000000  0.5063760000000  0.4602880000000 1.0
C      1  0.5235920000000  0.5063760000000  0.5391810000000 1.0
C      1  0.4759200000000  0.4935810000000  0.5391810000000 1.0
C      1  0.4596360000000  0.4751000000000  0.5197250000000 1.0
C      1  0.4748780000000  0.5199690000000  0.4596150000000 1.0
C      1  0.5197470000000  0.4598590000000  0.4748560000000 1.0
C      1  0.5398760000000  0.5248570000000  0.5197250000000 1.0
C      1  0.4596360000000  0.5248570000000  0.4797440000000 1.0
C      1  0.5398760000000  0.4751000000000  0.4797440000000 1.0
C      1  0.5246340000000  0.4799880000000  0.4596150000000 1.0
C      1  0.4748780000000  0.4799880000000  0.5398540000000 1.0
C      1  0.5246340000000  0.5199690000000  0.5398540000000 1.0
C      1  0.4797650000000  0.5400980000000  0.4748560000000 1.0
C      1  0.5197470000000  0.5400980000000  0.5246120000000 1.0
C      1  0.4797650000000  0.4598590000000  0.5246120000000 1.0
C      1  0.4596360000000  0.4751000000000  0.4797440000000 1.0
C      1  0.4748780000000  0.5199690000000  0.5398540000000 1.0
C      1  0.5197470000000  0.4598590000000  0.5246120000000 1.0
C      1  0.5398760000000  0.5248570000000  0.4797440000000 1.0
C      1  0.4596360000000  0.5248570000000  0.5197250000000 1.0
C      1  0.5398760000000  0.4751000000000  0.5197250000000 1.0
C      1  0.5246340000000  0.4799880000000  0.5398540000000 1.0
C      1  0.4748780000000  0.4799880000000  0.4596150000000 1.0
C      1  0.5246340000000  0.5199690000000  0.4596150000000 1.0
C      1  0.4797650000000  0.5400980000000  0.5246120000000 1.0
C      1  0.5197470000000  0.5400980000000  0.4748560000000 1.0
C      1  0.4797650000000  0.4598590000000  0.4748560000000 1.0
C      1  0.4356040000000  0.5142280000000  0.5282790000000 1.0
C      1  0.5140050000000  0.5285230000000  0.4355830000000 1.0
C      1  0.5283010000000  0.4358270000000  0.5139840000000 1.0
C      1  0.5639070000000  0.4857290000000  0.5282790000000 1.0
C      1  0.4356040000000  0.4857290000000  0.4711890000000 1.0
C      1  0.5639070000000  0.5142280000000  0.4711890000000 1.0
C      1  0.4855070000000  0.4714330000000  0.4355830000000 1.0
C      1  0.5140050000000  0.4714330000000  0.5638860000000 1.0
C      1  0.4855070000000  0.5285230000000  0.5638860000000 1.0
C      1  0.4712110000000  0.5641300000000  0.5139840000000 1.0
C      1  0.5283010000000  0.5641300000000  0.4854850000000 1.0
C      1  0.4712110000000  0.4358270000000  0.4854850000000 1.0
C      1  0.4356040000000  0.5142280000000  0.4711890000000 1.0
C      1  0.5140050000000  0.5285230000000  0.5638860000000 1.0
C      1  0.5283010000000  0.4358270000000  0.4854850000000 1.0
C      1  0.5639070000000  0.4857290000000  0.4711890000000 1.0
C      1  0.4356040000000  0.4857290000000  0.5282790000000 1.0
C      1  0.5639070000000  0.5142280000000  0.5282790000000 1.0
C      1  0.4855070000000  0.4714330000000  0.5638860000000 1.0
C      1  0.5140050000000  0.4714330000000  0.4355830000000 1.0
C      1  0.4855070000000  0.5285230000000  0.4355830000000 1.0
C      1  0.4712110000000  0.5641300000000  0.4854850000000 1.0
C      1  0.5283010000000  0.5641300000000  0.5139840000000 1.0
C      1  0.4712110000000  0.4358270000000  0.5139840000000 1.0
C      1  0.4514040000000  0.5318730000000  0.5502030000000 1.0
C      1  0.5316500000000  0.5504480000000  0.4513830000000 1.0
C      1  0.5502250000000  0.4516270000000  0.5316290000000 1.0
C      1  0.5481070000000  0.4680840000000  0.5502030000000 1.0
C      1  0.4514040000000  0.4680840000000  0.4492650000000 1.0
C      1  0.5481070000000  0.5318730000000  0.4492650000000 1.0
C      1  0.4678620000000  0.4495090000000  0.4513830000000 1.0
C      1  0.5316500000000  0.4495090000000  0.5480860000000 1.0
C      1  0.4678620000000  0.5504480000000  0.5480860000000 1.0
C      1  0.4492870000000  0.5483300000000  0.5316290000000 1.0
C      1  0.5502250000000  0.5483300000000  0.4678400000000 1.0
C      1  0.4492870000000  0.4516270000000  0.4678400000000 1.0
C      1  0.4514040000000  0.5318730000000  0.4492650000000 1.0
C      1  0.5316500000000  0.5504480000000  0.5480860000000 1.0
C      1  0.5502250000000  0.4516270000000  0.4678400000000 1.0
C      1  0.5481070000000  0.4680840000000  0.4492650000000 1.0
C      1  0.4514040000000  0.4680840000000  0.5502030000000 1.0
C      1  0.5481070000000  0.5318730000000  0.5502030000000 1.0
C      1  0.4678620000000  0.4495090000000  0.5480860000000 1.0
C      1  0.5316500000000  0.4495090000000  0.4513830000000 1.0
C      1  0.4678620000000  0.5504480000000  0.4513830000000 1.0
C      1  0.4492870000000  0.5483300000000  0.4678400000000 1.0
C      1  0.5502250000000  0.5483300000000  0.5316290000000 1.0
C      1  0.4492870000000  0.4516270000000  0.5316290000000 1.0
C      1  0.5558070000000  0.5074760000000  0.5522580000000 1.0
C      1  0.5072530000000  0.5525020000000  0.5557860000000 1.0
C      1  0.5522790000000  0.5560300000000  0.5072320000000 1.0
C      1  0.4437040000000  0.4924810000000  0.5522580000000 1.0
C      1  0.5558070000000  0.4924810000000  0.4472110000000 1.0
C      1  0.4437050000000  0.5074760000000  0.4472110000000 1.0
C      1  0.4922580000000  0.4474550000000  0.5557860000000 1.0
C      1  0.5072530000000  0.4474550000000  0.4436830000000 1.0
C      1  0.4922580000000  0.5525020000000  0.4436830000000 1.0
C      1  0.4472320000000  0.4439270000000  0.5072320000000 1.0
C      1  0.5522790000000  0.4439270000000  0.4922370000000 1.0
C      1  0.4472320000000  0.5560300000000  0.4922370000000 1.0
C      1  0.5558070000000  0.5074760000000  0.4472110000000 1.0
C      1  0.5072530000000  0.5525020000000  0.4436830000000 1.0
C      1  0.5522790000000  0.5560300000000  0.4922370000000 1.0
C      1  0.4437040000000  0.4924810000000  0.4472110000000 1.0
C      1  0.5558070000000  0.4924810000000  0.5522580000000 1.0
C      1  0.4437050000000  0.5074760000000  0.5522580000000 1.0
C      1  0.4922580000000  0.4474550000000  0.4436830000000 1.0
C      1  0.5072530000000  0.4474550000000  0.5557860000000 1.0
C      1  0.4922580000000  0.5525020000000  0.5557860000000 1.0
C      1  0.4472320000000  0.4439270000000  0.4922370000000 1.0
C      1  0.5522790000000  0.4439270000000  0.5072320000000 1.0
C      1  0.4472320000000  0.5560300000000  0.5072320000000 1.0
C      1  0.4819800000000  0.5701280000000  0.5068230000000 1.0
C      1  0.5699050000000  0.5070670000000  0.4819580000000 1.0
C      1  0.5068440000000  0.4822020000000  0.5698840000000 1.0
C      1  0.5175320000000  0.4298290000000  0.5068230000000 1.0
C      1  0.4819800000000  0.4298290000000  0.4926460000000 1.0
C      1  0.5175320000000  0.5701280000000  0.4926460000000 1.0
C      1  0.4296060000000  0.4928900000000  0.4819580000000 1.0
C      1  0.5699050000000  0.4928900000000  0.5175100000000 1.0
C      1  0.4296060000000  0.5070670000000  0.5175100000000 1.0
C      1  0.4926670000000  0.5177550000000  0.5698840000000 1.0
C      1  0.5068440000000  0.5177550000000  0.4295850000000 1.0
C      1  0.4926670000000  0.4822020000000  0.4295850000000 1.0
C      1  0.4819800000000  0.5701280000000  0.4926460000000 1.0
C      1  0.5699050000000  0.5070670000000  0.5175100000000 1.0
C      1  0.5068440000000  0.4822020000000  0.4295850000000 1.0
C      1  0.5175320000000  0.4298290000000  0.4926460000000 1.0
C      1  0.4819800000000  0.4298290000000  0.5068230000000 1.0
C      1  0.5175320000000  0.5701280000000  0.5068230000000 1.0
C      1  0.4296060000000  0.4928900000000  0.5175100000000 1.0
C      1  0.5699050000000  0.4928900000000  0.4819580000000 1.0
C      1  0.4296060000000  0.5070670000000  0.4819580000000 1.0
C      1  0.4926670000000  0.5177550000000  0.4295850000000 1.0
C      1  0.5068440000000  0.5177550000000  0.5698840000000 1.0
C      1  0.4926670000000  0.4822020000000  0.5698840000000 1.0
C      1  0.5167520000000  0.5627310000000  0.4640980000000 1.0
C      1  0.5625080000000  0.4643420000000  0.5167310000000 1.0
C      1  0.4641200000000  0.5169750000000  0.5624860000000 1.0
C      1  0.4827590000000  0.4372260000000  0.4640980000000 1.0
C      1  0.5167520000000  0.4372260000000  0.5353700000000 1.0
C      1  0.4827590000000  0.5627310000000  0.5353700000000 1.0
C      1  0.4370040000000  0.5356150000000  0.5167310000000 1.0
C      1  0.5625080000000  0.5356150000000  0.4827380000000 1.0
C      1  0.4370040000000  0.4643420000000  0.4827380000000 1.0
C      1  0.5353920000000  0.4829820000000  0.5624860000000 1.0
C      1  0.4641200000000  0.4829820000000  0.4369820000000 1.0
C      1  0.5353920000000  0.5169750000000  0.4369820000000 1.0
C      1  0.5167520000000  0.5627310000000  0.5353700000000 1.0
C      1  0.5625080000000  0.4643420000000  0.4827380000000 1.0
C      1  0.4641200000000  0.5169750000000  0.4369820000000 1.0
C      1  0.4827590000000  0.4372260000000  0.5353700000000 1.0
C      1  0.5167520000000  0.4372260000000  0.4640980000000 1.0
C      1  0.4827590000000  0.5627310000000  0.4640980000000 1.0
C      1  0.4370040000000  0.5356150000000  0.4827380000000 1.0
C      1  0.5625080000000  0.5356150000000  0.5167310000000 1.0
C      1  0.4370040000000  0.4643420000000  0.5167310000000 1.0
C      1  0.5353920000000  0.4829820000000  0.4369820000000 1.0
C      1  0.4641200000000  0.4829820000000  0.5624860000000 1.0
C      1  0.5353920000000  0.5169750000000  0.5624860000000 1.0
C      1  0.5634060000000  0.5071530000000  0.5399490000000 1.0
C      1  0.5069310000000  0.5401930000000  0.5633840000000 1.0
C      1  0.5399710000000  0.5636290000000  0.5069090000000 1.0
C      1  0.4361060000000  0.4928040000000  0.5399490000000 1.0
C      1  0.5634060000000  0.4928040000000  0.4595200000000 1.0
C      1  0.4361060000000  0.5071530000000  0.4595200000000 1.0
C      1  0.4925810000000  0.4597640000000  0.5633840000000 1.0
C      1  0.5069310000000  0.4597640000000  0.4360850000000 1.0
C      1  0.4925810000000  0.5401930000000  0.4360850000000 1.0
C      1  0.4595410000000  0.4363280000000  0.5069090000000 1.0
C      1  0.5399710000000  0.4363280000000  0.4925590000000 1.0
C      1  0.4595410000000  0.5636290000000  0.4925590000000 1.0
C      1  0.5634060000000  0.5071530000000  0.4595200000000 1.0
C      1  0.5069310000000  0.5401930000000  0.4360850000000 1.0
C      1  0.5399710000000  0.5636290000000  0.4925590000000 1.0
C      1  0.4361060000000  0.4928040000000  0.4595200000000 1.0
C      1  0.5634060000000  0.4928040000000  0.5399490000000 1.0
C      1  0.4361060000000  0.5071530000000  0.5399490000000 1.0
C      1  0.4925810000000  0.4597640000000  0.4360850000000 1.0
C      1  0.5069310000000  0.4597640000000  0.5633840000000 1.0
C      1  0.4925810000000  0.5401930000000  0.5633840000000 1.0
C      1  0.4595410000000  0.4363280000000  0.4925590000000 1.0
C      1  0.5399710000000  0.4363280000000  0.5069090000000 1.0
C      1  0.4595410000000  0.5636290000000  0.5069090000000 1.0
C      1  0.4925820000000  0.5735460000000  0.4842690000000 1.0
C      1  0.5733240000000  0.4845130000000  0.4925600000000 1.0
C      1  0.4842900000000  0.4928040000000  0.5733020000000 1.0
C      1  0.5069300000000  0.4264100000000  0.4842690000000 1.0
C      1  0.4925820000000  0.4264100000000  0.5152000000000 1.0
C      1  0.5069300000000  0.5735460000000  0.5152000000000 1.0
C      1  0.4261880000000  0.5154440000000  0.4925600000000 1.0
C      1  0.5733240000000  0.5154440000000  0.5069080000000 1.0
C      1  0.4261880000000  0.4845130000000  0.5069080000000 1.0
C      1  0.5152210000000  0.5071520000000  0.5733020000000 1.0
C      1  0.4842900000000  0.5071520000000  0.4261670000000 1.0
C      1  0.5152210000000  0.4928040000000  0.4261670000000 1.0
C      1  0.4925820000000  0.5735460000000  0.5152000000000 1.0
C      1  0.5733240000000  0.4845130000000  0.5069080000000 1.0
C      1  0.4842900000000  0.4928040000000  0.4261670000000 1.0
C      1  0.5069300000000  0.4264100000000  0.5152000000000 1.0
C      1  0.4925820000000  0.4264100000000  0.4842690000000 1.0
C      1  0.5069300000000  0.5735460000000  0.4842690000000 1.0
C      1  0.4261880000000  0.5154440000000  0.5069080000000 1.0
C      1  0.5733240000000  0.5154440000000  0.4925600000000 1.0
C      1  0.4261880000000  0.4845130000000  0.4925600000000 1.0
C      1  0.5152210000000  0.5071520000000  0.4261670000000 1.0
C      1  0.4842900000000  0.5071520000000  0.5733020000000 1.0
C      1  0.5152210000000  0.4928040000000  0.5733020000000 1.0
C      1  0.4812860000000  0.4433850000000  0.4514170000000 1.0
C      1  0.4431630000000  0.4516610000000  0.4812640000000 1.0
C      1  0.4514390000000  0.4815090000000  0.4431410000000 1.0
C      1  0.5182260000000  0.5565720000000  0.4514170000000 1.0
C      1  0.4812860000000  0.5565720000000  0.5480520000000 1.0
C      1  0.5182260000000  0.4433850000000  0.5480520000000 1.0
C      1  0.5563490000000  0.5482960000000  0.4812640000000 1.0
C      1  0.4431630000000  0.5482960000000  0.5182040000000 1.0
C      1  0.5563490000000  0.4516610000000  0.5182040000000 1.0
C      1  0.5480730000000  0.5184480000000  0.4431410000000 1.0
C      1  0.4514390000000  0.5184480000000  0.5563270000000 1.0
C      1  0.5480730000000  0.4815090000000  0.5563270000000 1.0
C      1  0.4812860000000  0.4433850000000  0.5480520000000 1.0
C      1  0.4431630000000  0.4516610000000  0.5182040000000 1.0
C      1  0.4514390000000  0.4815090000000  0.5563270000000 1.0
C      1  0.5182260000000  0.5565720000000  0.5480520000000 1.0
C      1  0.4812860000000  0.5565720000000  0.4514170000000 1.0
C      1  0.5182260000000  0.4433850000000  0.4514170000000 1.0
C      1  0.5563490000000  0.5482960000000  0.5182040000000 1.0
C      1  0.4431630000000  0.5482960000000  0.4812640000000 1.0
C      1  0.5563490000000  0.4516610000000  0.4812640000000 1.0
C      1  0.5480730000000  0.5184480000000  0.5563270000000 1.0
C      1  0.4514390000000  0.5184480000000  0.4431410000000 1.0
C      1  0.5480730000000  0.4815090000000  0.4431410000000 1.0
C      1  0.5265220000000  0.4436670000000  0.4731800000000 1.0
C      1  0.4434450000000  0.4734240000000  0.5265000000000 1.0
C      1  0.4732020000000  0.5267440000000  0.4434230000000 1.0
C      1  0.4729900000000  0.5562900000000  0.4731800000000 1.0
C      1  0.5265220000000  0.5562900000000  0.5262880000000 1.0
C      1  0.4729900000000  0.4436670000000  0.5262880000000 1.0
C      1  0.5560670000000  0.5265330000000  0.5265000000000 1.0
C      1  0.4434450000000  0.5265330000000  0.4729690000000 1.0
C      1  0.5560670000000  0.4734240000000  0.4729690000000 1.0
C      1  0.5263100000000  0.4732130000000  0.4434230000000 1.0
C      1  0.4732020000000  0.4732130000000  0.5560450000000 1.0
C      1  0.5263100000000  0.5267440000000  0.5560450000000 1.0
C      1  0.5265220000000  0.4436670000000  0.5262880000000 1.0
C      1  0.4434450000000  0.4734240000000  0.4729690000000 1.0
C      1  0.4732020000000  0.5267440000000  0.5560450000000 1.0
C      1  0.4729900000000  0.5562900000000  0.5262880000000 1.0
C      1  0.5265220000000  0.5562900000000  0.4731800000000 1.0
C      1  0.4729900000000  0.4436670000000  0.4731800000000 1.0
C      1  0.5560670000000  0.5265330000000  0.4729690000000 1.0
C      1  0.4434450000000  0.5265330000000  0.5265000000000 1.0
C      1  0.5560670000000  0.4734240000000  0.5265000000000 1.0
C      1  0.5263100000000  0.4732130000000  0.5560450000000 1.0
C      1  0.4732020000000  0.4732130000000  0.4434230000000 1.0
C      1  0.5263100000000  0.5267440000000  0.4434230000000 1.0
C      1  0.4457240000000  0.5359280000000  0.4613410000000 1.0
C      1  0.5357050000000  0.4615850000000  0.4457020000000 1.0
C      1  0.4613620000000  0.4459460000000  0.5356830000000 1.0
C      1  0.5537880000000  0.4640290000000  0.4613410000000 1.0
C      1  0.4457240000000  0.4640290000000  0.5381280000000 1.0
C      1  0.5537880000000  0.5359280000000  0.5381280000000 1.0
C      1  0.4638070000000  0.5383720000000  0.4457020000000 1.0
C      1  0.5357050000000  0.5383720000000  0.5537660000000 1.0
C      1  0.4638070000000  0.4615850000000  0.5537660000000 1.0
C      1  0.5381500000000  0.5540110000000  0.5356830000000 1.0
C      1  0.4613620000000  0.5540110000000  0.4637850000000 1.0
C      1  0.5381500000000  0.4459460000000  0.4637850000000 1.0
C      1  0.4457240000000  0.5359280000000  0.5381280000000 1.0
C      1  0.5357050000000  0.4615850000000  0.5537660000000 1.0
C      1  0.4613620000000  0.4459460000000  0.4637850000000 1.0
C      1  0.5537880000000  0.4640290000000  0.5381280000000 1.0
C      1  0.4457240000000  0.4640290000000  0.4613410000000 1.0
C      1  0.5537880000000  0.5359280000000  0.4613410000000 1.0
C      1  0.4638070000000  0.5383720000000  0.5537660000000 1.0
C      1  0.5357050000000  0.5383720000000  0.4457020000000 1.0
C      1  0.4638070000000  0.4615850000000  0.4457020000000 1.0
C      1  0.5381500000000  0.5540110000000  0.4637850000000 1.0
C      1  0.4613620000000  0.5540110000000  0.5356830000000 1.0
C      1  0.5381500000000  0.4459460000000  0.5356830000000 1.0
C      1  0.5276080000000  0.5278300000000  0.4718830000000 1.0
C      1  0.4719040000000  0.5278300000000  0.5275860000000 1.0
C      1  0.5276080000000  0.4721270000000  0.5275860000000 1.0
C      1  0.4719040000000  0.4721270000000  0.5275860000000 1.0
C      1  0.4719040000000  0.5278300000000  0.4718830000000 1.0
C      1  0.5276080000000  0.4721270000000  0.4718830000000 1.0
C      1  0.4719040000000  0.4721270000000  0.4718830000000 1.0
C      1  0.5276080000000  0.5278300000000  0.5275860000000 1.0
END
