TITL C-1379266-1300-353 1.10637901499333e-06 1000000 -3075.2638517482 0 0 420 (Th) n - 1
REM
REM in /nfs/bkarasulu/CARBON/AIRSS/Generating-Clusters/GAP-ML-2020/Higher-Symm/Selected-Sizes/TryA-Only_Ih-Symm/Larger-Clusters/Try2-MINAMP_6A
REM
REM
REM
REM
REM
REM ./C.cell (31579ac4e95a012ec27f3239692ae8a5)
REM
REM compiler GCC version 9.2.1 20190827 (Red Hat 9.2.1-1)
REM options -cpp -mtune=generic -march=x86-64 -g -O0 -fpre-include=/usr/include/finclude/math-vector-fortran.h
REM seed -1775841031 -1263310554 -329281452 1710475563 1038939348 -1427662767 -746074003 611257342 -1123715839 -1337819637 797755747 2110664308 1347486914 2057523601 695587165 -2059908844 -1869224734 -626430856 -5451903 -1010694393 1349430411 287752849 -404792696 145406301 -1313377845 1096504396 -1714686740 2053282690 -1796890071 -368493985 808103952 -817405858 2115401128
REM
CELL 1.54180  100.00000  100.00000  100.00000   90.00000   90.00000   90.00000
LATT -1
SFAC C  
C      1  0.4493100000000  0.4303290000000  0.4695880000000 1.0
C      1  0.4695880000000  0.4493100000000  0.4303290000000 1.0
C      1  0.4303290000000  0.4695880000000  0.4493100000000 1.0
C      1  0.4493100000000  0.5696710000000  0.5304120000000 1.0
C      1  0.5506900000000  0.5696710000000  0.4695880000000 1.0
C      1  0.5506900000000  0.4303290000000  0.5304120000000 1.0
C      1  0.4695880000000  0.5506900000000  0.5696710000000 1.0
C      1  0.5304120000000  0.5506900000000  0.4303290000000 1.0
C      1  0.5304120000000  0.4493100000000  0.5696710000000 1.0
C      1  0.4303290000000  0.5304120000000  0.5506900000000 1.0
C      1  0.5696710000000  0.5304120000000  0.4493100000000 1.0
C      1  0.5696710000000  0.4695880000000  0.5506900000000 1.0
C      1  0.5506900000000  0.4303290000000  0.4695880000000 1.0
C      1  0.5304120000000  0.4493100000000  0.4303290000000 1.0
C      1  0.5696710000000  0.4695880000000  0.4493100000000 1.0
C      1  0.5506900000000  0.5696710000000  0.5304120000000 1.0
C      1  0.4493100000000  0.5696710000000  0.4695880000000 1.0
C      1  0.4493100000000  0.4303290000000  0.5304120000000 1.0
C      1  0.5304120000000  0.5506900000000  0.5696710000000 1.0
C      1  0.4695880000000  0.5506900000000  0.4303290000000 1.0
C      1  0.4695880000000  0.4493100000000  0.5696710000000 1.0
C      1  0.5696710000000  0.5304120000000  0.5506900000000 1.0
C      1  0.4303290000000  0.5304120000000  0.4493100000000 1.0
C      1  0.4303290000000  0.4695880000000  0.5506900000000 1.0
C      1  0.4372070000000  0.4473150000000  0.4573910000000 1.0
C      1  0.4573910000000  0.4372070000000  0.4473150000000 1.0
C      1  0.4473150000000  0.4573910000000  0.4372070000000 1.0
C      1  0.4372070000000  0.5526850000000  0.5426090000000 1.0
C      1  0.5627930000000  0.5526850000000  0.4573910000000 1.0
C      1  0.5627930000000  0.4473150000000  0.5426090000000 1.0
C      1  0.4573910000000  0.5627930000000  0.5526850000000 1.0
C      1  0.5426090000000  0.5627930000000  0.4473150000000 1.0
C      1  0.5426090000000  0.4372070000000  0.5526850000000 1.0
C      1  0.4473150000000  0.5426090000000  0.5627930000000 1.0
C      1  0.5526850000000  0.5426090000000  0.4372070000000 1.0
C      1  0.5526850000000  0.4573910000000  0.5627930000000 1.0
C      1  0.5627930000000  0.4473150000000  0.4573910000000 1.0
C      1  0.5426090000000  0.4372070000000  0.4473150000000 1.0
C      1  0.5526850000000  0.4573910000000  0.4372070000000 1.0
C      1  0.5627930000000  0.5526850000000  0.5426090000000 1.0
C      1  0.4372070000000  0.5526850000000  0.4573910000000 1.0
C      1  0.4372070000000  0.4473150000000  0.5426090000000 1.0
C      1  0.5426090000000  0.5627930000000  0.5526850000000 1.0
C      1  0.4573910000000  0.5627930000000  0.4473150000000 1.0
C      1  0.4573910000000  0.4372070000000  0.5526850000000 1.0
C      1  0.5526850000000  0.5426090000000  0.5627930000000 1.0
C      1  0.4473150000000  0.5426090000000  0.4372070000000 1.0
C      1  0.4473150000000  0.4573910000000  0.5627930000000 1.0
C      1  0.4298060000000  0.5069520000000  0.5466820000000 1.0
C      1  0.5466820000000  0.4298060000000  0.5069520000000 1.0
C      1  0.5069520000000  0.5466820000000  0.4298060000000 1.0
C      1  0.4298060000000  0.4930480000000  0.4533180000000 1.0
C      1  0.5701940000000  0.4930480000000  0.5466820000000 1.0
C      1  0.5701940000000  0.5069520000000  0.4533180000000 1.0
C      1  0.5466820000000  0.5701940000000  0.4930480000000 1.0
C      1  0.4533180000000  0.5701940000000  0.5069520000000 1.0
C      1  0.4533180000000  0.4298060000000  0.4930480000000 1.0
C      1  0.5069520000000  0.4533180000000  0.5701940000000 1.0
C      1  0.4930480000000  0.4533180000000  0.4298060000000 1.0
C      1  0.4930480000000  0.5466820000000  0.5701940000000 1.0
C      1  0.5701940000000  0.5069520000000  0.5466820000000 1.0
C      1  0.4533180000000  0.4298060000000  0.5069520000000 1.0
C      1  0.4930480000000  0.5466820000000  0.4298060000000 1.0
C      1  0.5701940000000  0.4930480000000  0.4533180000000 1.0
C      1  0.4298060000000  0.4930480000000  0.5466820000000 1.0
C      1  0.4298060000000  0.5069520000000  0.4533180000000 1.0
C      1  0.4533180000000  0.5701940000000  0.4930480000000 1.0
C      1  0.5466820000000  0.5701940000000  0.5069520000000 1.0
C      1  0.5466820000000  0.4298060000000  0.4930480000000 1.0
C      1  0.4930480000000  0.4533180000000  0.5701940000000 1.0
C      1  0.5069520000000  0.4533180000000  0.4298060000000 1.0
C      1  0.5069520000000  0.5466820000000  0.5701940000000 1.0
C      1  0.5378770000000  0.4247660000000  0.4718280000000 1.0
C      1  0.4718280000000  0.5378770000000  0.4247660000000 1.0
C      1  0.4247660000000  0.4718280000000  0.5378770000000 1.0
C      1  0.5378770000000  0.5752340000000  0.5281720000000 1.0
C      1  0.4621230000000  0.5752340000000  0.4718280000000 1.0
C      1  0.4621230000000  0.4247660000000  0.5281720000000 1.0
C      1  0.4718280000000  0.4621230000000  0.5752340000000 1.0
C      1  0.5281720000000  0.4621230000000  0.4247660000000 1.0
C      1  0.5281720000000  0.5378770000000  0.5752340000000 1.0
C      1  0.4247660000000  0.5281720000000  0.4621230000000 1.0
C      1  0.5752340000000  0.5281720000000  0.5378770000000 1.0
C      1  0.5752340000000  0.4718280000000  0.4621230000000 1.0
C      1  0.4621230000000  0.4247660000000  0.4718280000000 1.0
C      1  0.5281720000000  0.5378770000000  0.4247660000000 1.0
C      1  0.5752340000000  0.4718280000000  0.5378770000000 1.0
C      1  0.4621230000000  0.5752340000000  0.5281720000000 1.0
C      1  0.5378770000000  0.5752340000000  0.4718280000000 1.0
C      1  0.5378770000000  0.4247660000000  0.5281720000000 1.0
C      1  0.5281720000000  0.4621230000000  0.5752340000000 1.0
C      1  0.4718280000000  0.4621230000000  0.4247660000000 1.0
C      1  0.4718280000000  0.5378770000000  0.5752340000000 1.0
C      1  0.5752340000000  0.5281720000000  0.4621230000000 1.0
C      1  0.4247660000000  0.5281720000000  0.5378770000000 1.0
C      1  0.4247660000000  0.4718280000000  0.4621230000000 1.0
C      1  0.5557170000000  0.4827180000000  0.5652510000000 1.0
C      1  0.5652510000000  0.5557170000000  0.4827180000000 1.0
C      1  0.4827180000000  0.5652510000000  0.5557170000000 1.0
C      1  0.5557170000000  0.5172820000000  0.4347490000000 1.0
C      1  0.4442830000000  0.5172820000000  0.5652510000000 1.0
C      1  0.4442830000000  0.4827180000000  0.4347490000000 1.0
C      1  0.5652510000000  0.4442830000000  0.5172820000000 1.0
C      1  0.4347490000000  0.4442830000000  0.4827180000000 1.0
C      1  0.4347490000000  0.5557170000000  0.5172820000000 1.0
C      1  0.4827180000000  0.4347490000000  0.4442830000000 1.0
C      1  0.5172820000000  0.4347490000000  0.5557170000000 1.0
C      1  0.5172820000000  0.5652510000000  0.4442830000000 1.0
C      1  0.4442830000000  0.4827180000000  0.5652510000000 1.0
C      1  0.4347490000000  0.5557170000000  0.4827180000000 1.0
C      1  0.5172820000000  0.5652510000000  0.5557170000000 1.0
C      1  0.4442830000000  0.5172820000000  0.4347490000000 1.0
C      1  0.5557170000000  0.5172820000000  0.5652510000000 1.0
C      1  0.5557170000000  0.4827180000000  0.4347490000000 1.0
C      1  0.4347490000000  0.4442830000000  0.5172820000000 1.0
C      1  0.5652510000000  0.4442830000000  0.4827180000000 1.0
C      1  0.5652510000000  0.5557170000000  0.5172820000000 1.0
C      1  0.5172820000000  0.4347490000000  0.4442830000000 1.0
C      1  0.4827180000000  0.4347490000000  0.5557170000000 1.0
C      1  0.4827180000000  0.5652510000000  0.4442830000000 1.0
C      1  0.5612610000000  0.4749320000000  0.5163520000000 1.0
C      1  0.5163520000000  0.5612610000000  0.4749320000000 1.0
C      1  0.4749320000000  0.5163520000000  0.5612610000000 1.0
C      1  0.5612610000000  0.5250680000000  0.4836480000000 1.0
C      1  0.4387390000000  0.5250680000000  0.5163520000000 1.0
C      1  0.4387390000000  0.4749320000000  0.4836480000000 1.0
C      1  0.5163520000000  0.4387390000000  0.5250680000000 1.0
C      1  0.4836480000000  0.4387390000000  0.4749320000000 1.0
C      1  0.4836480000000  0.5612610000000  0.5250680000000 1.0
C      1  0.4749320000000  0.4836480000000  0.4387390000000 1.0
C      1  0.5250680000000  0.4836480000000  0.5612610000000 1.0
C      1  0.5250680000000  0.5163520000000  0.4387390000000 1.0
C      1  0.4387390000000  0.4749320000000  0.5163520000000 1.0
C      1  0.4836480000000  0.5612610000000  0.4749320000000 1.0
C      1  0.5250680000000  0.5163520000000  0.5612610000000 1.0
C      1  0.4387390000000  0.5250680000000  0.4836480000000 1.0
C      1  0.5612610000000  0.5250680000000  0.5163520000000 1.0
C      1  0.5612610000000  0.4749320000000  0.4836480000000 1.0
C      1  0.4836480000000  0.4387390000000  0.5250680000000 1.0
C      1  0.5163520000000  0.4387390000000  0.4749320000000 1.0
C      1  0.5163520000000  0.5612610000000  0.5250680000000 1.0
C      1  0.5250680000000  0.4836480000000  0.4387390000000 1.0
C      1  0.4749320000000  0.4836480000000  0.5612610000000 1.0
C      1  0.4749320000000  0.5163520000000  0.4387390000000 1.0
C      1  0.4733160000000  0.4937010000000  0.4149760000000 1.0
C      1  0.4149760000000  0.4733160000000  0.4937010000000 1.0
C      1  0.4937010000000  0.4149760000000  0.4733160000000 1.0
C      1  0.4733160000000  0.5062990000000  0.5850240000000 1.0
C      1  0.5266840000000  0.5062990000000  0.4149760000000 1.0
C      1  0.5266840000000  0.4937010000000  0.5850240000000 1.0
C      1  0.4149760000000  0.5266840000000  0.5062990000000 1.0
C      1  0.5850240000000  0.5266840000000  0.4937010000000 1.0
C      1  0.5850240000000  0.4733160000000  0.5062990000000 1.0
C      1  0.4937010000000  0.5850240000000  0.5266840000000 1.0
C      1  0.5062990000000  0.5850240000000  0.4733160000000 1.0
C      1  0.5062990000000  0.4149760000000  0.5266840000000 1.0
C      1  0.5266840000000  0.4937010000000  0.4149760000000 1.0
C      1  0.5850240000000  0.4733160000000  0.4937010000000 1.0
C      1  0.5062990000000  0.4149760000000  0.4733160000000 1.0
C      1  0.5266840000000  0.5062990000000  0.5850240000000 1.0
C      1  0.4733160000000  0.5062990000000  0.4149760000000 1.0
C      1  0.4733160000000  0.4937010000000  0.5850240000000 1.0
C      1  0.5850240000000  0.5266840000000  0.5062990000000 1.0
C      1  0.4149760000000  0.5266840000000  0.4937010000000 1.0
C      1  0.4149760000000  0.4733160000000  0.5062990000000 1.0
C      1  0.5062990000000  0.5850240000000  0.5266840000000 1.0
C      1  0.4937010000000  0.5850240000000  0.4733160000000 1.0
C      1  0.4937010000000  0.4149760000000  0.5266840000000 1.0
C      1  0.4931450000000  0.4311960000000  0.4532690000000 1.0
C      1  0.4532690000000  0.4931450000000  0.4311960000000 1.0
C      1  0.4311960000000  0.4532690000000  0.4931450000000 1.0
C      1  0.4931450000000  0.5688040000000  0.5467310000000 1.0
C      1  0.5068550000000  0.5688040000000  0.4532690000000 1.0
C      1  0.5068550000000  0.4311960000000  0.5467310000000 1.0
C      1  0.4532690000000  0.5068550000000  0.5688040000000 1.0
C      1  0.5467310000000  0.5068550000000  0.4311960000000 1.0
C      1  0.5467310000000  0.4931450000000  0.5688040000000 1.0
C      1  0.4311960000000  0.5467310000000  0.5068550000000 1.0
C      1  0.5688040000000  0.5467310000000  0.4931450000000 1.0
C      1  0.5688040000000  0.4532690000000  0.5068550000000 1.0
C      1  0.5068550000000  0.4311960000000  0.4532690000000 1.0
C      1  0.5467310000000  0.4931450000000  0.4311960000000 1.0
C      1  0.5688040000000  0.4532690000000  0.4931450000000 1.0
C      1  0.5068550000000  0.5688040000000  0.5467310000000 1.0
C      1  0.4931450000000  0.5688040000000  0.4532690000000 1.0
C      1  0.4931450000000  0.4311960000000  0.5467310000000 1.0
C      1  0.5467310000000  0.5068550000000  0.5688040000000 1.0
C      1  0.4532690000000  0.5068550000000  0.4311960000000 1.0
C      1  0.4532690000000  0.4931450000000  0.5688040000000 1.0
C      1  0.5688040000000  0.5467310000000  0.5068550000000 1.0
C      1  0.4311960000000  0.5467310000000  0.4931450000000 1.0
C      1  0.4311960000000  0.4532690000000  0.5068550000000 1.0
C      1  0.4245720000000  0.5378000000000  0.5281030000000 1.0
C      1  0.5281030000000  0.4245720000000  0.5378000000000 1.0
C      1  0.5378000000000  0.5281030000000  0.4245720000000 1.0
C      1  0.4245720000000  0.4622000000000  0.4718970000000 1.0
C      1  0.5754280000000  0.4622000000000  0.5281030000000 1.0
C      1  0.5754280000000  0.5378000000000  0.4718970000000 1.0
C      1  0.5281030000000  0.5754280000000  0.4622000000000 1.0
C      1  0.4718970000000  0.5754280000000  0.5378000000000 1.0
C      1  0.4718970000000  0.4245720000000  0.4622000000000 1.0
C      1  0.5378000000000  0.4718970000000  0.5754280000000 1.0
C      1  0.4622000000000  0.4718970000000  0.4245720000000 1.0
C      1  0.4622000000000  0.5281030000000  0.5754280000000 1.0
C      1  0.5754280000000  0.5378000000000  0.5281030000000 1.0
C      1  0.4718970000000  0.4245720000000  0.5378000000000 1.0
C      1  0.4622000000000  0.5281030000000  0.4245720000000 1.0
C      1  0.5754280000000  0.4622000000000  0.4718970000000 1.0
C      1  0.4245720000000  0.4622000000000  0.5281030000000 1.0
C      1  0.4245720000000  0.5378000000000  0.4718970000000 1.0
C      1  0.4718970000000  0.5754280000000  0.4622000000000 1.0
C      1  0.5281030000000  0.5754280000000  0.5378000000000 1.0
C      1  0.5281030000000  0.4245720000000  0.4622000000000 1.0
C      1  0.4622000000000  0.4718970000000  0.5754280000000 1.0
C      1  0.5378000000000  0.4718970000000  0.4245720000000 1.0
C      1  0.5378000000000  0.5281030000000  0.5754280000000 1.0
C      1  0.5301300000000  0.4307990000000  0.5500850000000 1.0
C      1  0.5500850000000  0.5301300000000  0.4307990000000 1.0
C      1  0.4307990000000  0.5500850000000  0.5301300000000 1.0
C      1  0.5301300000000  0.5692010000000  0.4499150000000 1.0
C      1  0.4698700000000  0.5692010000000  0.5500850000000 1.0
C      1  0.4698700000000  0.4307990000000  0.4499150000000 1.0
C      1  0.5500850000000  0.4698700000000  0.5692010000000 1.0
C      1  0.4499150000000  0.4698700000000  0.4307990000000 1.0
C      1  0.4499150000000  0.5301300000000  0.5692010000000 1.0
C      1  0.4307990000000  0.4499150000000  0.4698700000000 1.0
C      1  0.5692010000000  0.4499150000000  0.5301300000000 1.0
C      1  0.5692010000000  0.5500850000000  0.4698700000000 1.0
C      1  0.4698700000000  0.4307990000000  0.5500850000000 1.0
C      1  0.4499150000000  0.5301300000000  0.4307990000000 1.0
C      1  0.5692010000000  0.5500850000000  0.5301300000000 1.0
C      1  0.4698700000000  0.5692010000000  0.4499150000000 1.0
C      1  0.5301300000000  0.5692010000000  0.5500850000000 1.0
C      1  0.5301300000000  0.4307990000000  0.4499150000000 1.0
C      1  0.4499150000000  0.4698700000000  0.5692010000000 1.0
C      1  0.5500850000000  0.4698700000000  0.4307990000000 1.0
C      1  0.5500850000000  0.5301300000000  0.5692010000000 1.0
C      1  0.5692010000000  0.4499150000000  0.4698700000000 1.0
C      1  0.4307990000000  0.4499150000000  0.5301300000000 1.0
C      1  0.4307990000000  0.5500850000000  0.4698700000000 1.0
C      1  0.4580030000000  0.5338080000000  0.5305110000000 1.0
C      1  0.5305110000000  0.4580030000000  0.5338080000000 1.0
C      1  0.5338080000000  0.5305110000000  0.4580030000000 1.0
C      1  0.4580030000000  0.4661920000000  0.4694890000000 1.0
C      1  0.5419970000000  0.4661920000000  0.5305110000000 1.0
C      1  0.5419970000000  0.5338080000000  0.4694890000000 1.0
C      1  0.5305110000000  0.5419970000000  0.4661920000000 1.0
C      1  0.4694890000000  0.5419970000000  0.5338080000000 1.0
C      1  0.4694890000000  0.4580030000000  0.4661920000000 1.0
C      1  0.5338080000000  0.4694890000000  0.5419970000000 1.0
C      1  0.4661920000000  0.4694890000000  0.4580030000000 1.0
C      1  0.4661920000000  0.5305110000000  0.5419970000000 1.0
C      1  0.5419970000000  0.5338080000000  0.5305110000000 1.0
C      1  0.4694890000000  0.4580030000000  0.5338080000000 1.0
C      1  0.4661920000000  0.5305110000000  0.4580030000000 1.0
C      1  0.5419970000000  0.4661920000000  0.4694890000000 1.0
C      1  0.4580030000000  0.4661920000000  0.5305110000000 1.0
C      1  0.4580030000000  0.5338080000000  0.4694890000000 1.0
C      1  0.4694890000000  0.5419970000000  0.4661920000000 1.0
C      1  0.5305110000000  0.5419970000000  0.5338080000000 1.0
C      1  0.5305110000000  0.4580030000000  0.4661920000000 1.0
C      1  0.4661920000000  0.4694890000000  0.5419970000000 1.0
C      1  0.5338080000000  0.4694890000000  0.4580030000000 1.0
C      1  0.5338080000000  0.5305110000000  0.5419970000000 1.0
C      1  0.5653130000000  0.4875300000000  0.5224810000000 1.0
C      1  0.5224810000000  0.5653130000000  0.4875300000000 1.0
C      1  0.4875300000000  0.5224810000000  0.5653130000000 1.0
C      1  0.5653130000000  0.5124700000000  0.4775190000000 1.0
C      1  0.4346870000000  0.5124700000000  0.5224810000000 1.0
C      1  0.4346870000000  0.4875300000000  0.4775190000000 1.0
C      1  0.5224810000000  0.4346870000000  0.5124700000000 1.0
C      1  0.4775190000000  0.4346870000000  0.4875300000000 1.0
C      1  0.4775190000000  0.5653130000000  0.5124700000000 1.0
C      1  0.4875300000000  0.4775190000000  0.4346870000000 1.0
C      1  0.5124700000000  0.4775190000000  0.5653130000000 1.0
C      1  0.5124700000000  0.5224810000000  0.4346870000000 1.0
C      1  0.4346870000000  0.4875300000000  0.5224810000000 1.0
C      1  0.4775190000000  0.5653130000000  0.4875300000000 1.0
C      1  0.5124700000000  0.5224810000000  0.5653130000000 1.0
C      1  0.4346870000000  0.5124700000000  0.4775190000000 1.0
C      1  0.5653130000000  0.5124700000000  0.5224810000000 1.0
C      1  0.5653130000000  0.4875300000000  0.4775190000000 1.0
C      1  0.4775190000000  0.4346870000000  0.5124700000000 1.0
C      1  0.5224810000000  0.4346870000000  0.4875300000000 1.0
C      1  0.5224810000000  0.5653130000000  0.5124700000000 1.0
C      1  0.5124700000000  0.4775190000000  0.4346870000000 1.0
C      1  0.4875300000000  0.4775190000000  0.5653130000000 1.0
C      1  0.4875300000000  0.5224810000000  0.4346870000000 1.0
C      1  0.5627860000000  0.5426050000000  0.4471030000000 1.0
C      1  0.4471030000000  0.5627860000000  0.5426050000000 1.0
C      1  0.5426050000000  0.4471030000000  0.5627860000000 1.0
C      1  0.5627860000000  0.4573950000000  0.5528970000000 1.0
C      1  0.4372140000000  0.4573950000000  0.4471030000000 1.0
C      1  0.4372140000000  0.5426050000000  0.5528970000000 1.0
C      1  0.4471030000000  0.4372140000000  0.4573950000000 1.0
C      1  0.5528970000000  0.4372140000000  0.5426050000000 1.0
C      1  0.5528970000000  0.5627860000000  0.4573950000000 1.0
C      1  0.5426050000000  0.5528970000000  0.4372140000000 1.0
C      1  0.4573950000000  0.5528970000000  0.5627860000000 1.0
C      1  0.4573950000000  0.4471030000000  0.4372140000000 1.0
C      1  0.4372140000000  0.5426050000000  0.4471030000000 1.0
C      1  0.5528970000000  0.5627860000000  0.5426050000000 1.0
C      1  0.4573950000000  0.4471030000000  0.5627860000000 1.0
C      1  0.4372140000000  0.4573950000000  0.5528970000000 1.0
C      1  0.5627860000000  0.4573950000000  0.4471030000000 1.0
C      1  0.5627860000000  0.5426050000000  0.5528970000000 1.0
C      1  0.5528970000000  0.4372140000000  0.4573950000000 1.0
C      1  0.4471030000000  0.4372140000000  0.5426050000000 1.0
C      1  0.4471030000000  0.5627860000000  0.4573950000000 1.0
C      1  0.4573950000000  0.5528970000000  0.4372140000000 1.0
C      1  0.5426050000000  0.5528970000000  0.5627860000000 1.0
C      1  0.5426050000000  0.4471030000000  0.4372140000000 1.0
C      1  0.4791890000000  0.4500990000000  0.5305400000000 1.0
C      1  0.5305400000000  0.4791890000000  0.4500990000000 1.0
C      1  0.4500990000000  0.5305400000000  0.4791890000000 1.0
C      1  0.4791890000000  0.5499010000000  0.4694600000000 1.0
C      1  0.5208110000000  0.5499010000000  0.5305400000000 1.0
C      1  0.5208110000000  0.4500990000000  0.4694600000000 1.0
C      1  0.5305400000000  0.5208110000000  0.5499010000000 1.0
C      1  0.4694600000000  0.5208110000000  0.4500990000000 1.0
C      1  0.4694600000000  0.4791890000000  0.5499010000000 1.0
C      1  0.4500990000000  0.4694600000000  0.5208110000000 1.0
C      1  0.5499010000000  0.4694600000000  0.4791890000000 1.0
C      1  0.5499010000000  0.5305400000000  0.5208110000000 1.0
C      1  0.5208110000000  0.4500990000000  0.5305400000000 1.0
C      1  0.4694600000000  0.4791890000000  0.4500990000000 1.0
C      1  0.5499010000000  0.5305400000000  0.4791890000000 1.0
C      1  0.5208110000000  0.5499010000000  0.4694600000000 1.0
C      1  0.4791890000000  0.5499010000000  0.5305400000000 1.0
C      1  0.4791890000000  0.4500990000000  0.4694600000000 1.0
C      1  0.4694600000000  0.5208110000000  0.5499010000000 1.0
C      1  0.5305400000000  0.5208110000000  0.4500990000000 1.0
C      1  0.5305400000000  0.4791890000000  0.5499010000000 1.0
C      1  0.5499010000000  0.4694600000000  0.5208110000000 1.0
C      1  0.4500990000000  0.4694600000000  0.4791890000000 1.0
C      1  0.4500990000000  0.5305400000000  0.5208110000000 1.0
C      1  0.5138600000000  0.5733620000000  0.5337250000000 1.0
C      1  0.5337250000000  0.5138600000000  0.5733620000000 1.0
C      1  0.5733620000000  0.5337250000000  0.5138600000000 1.0
C      1  0.5138600000000  0.4266380000000  0.4662750000000 1.0
C      1  0.4861400000000  0.4266380000000  0.5337250000000 1.0
C      1  0.4861400000000  0.5733620000000  0.4662750000000 1.0
C      1  0.5337250000000  0.4861400000000  0.4266380000000 1.0
C      1  0.4662750000000  0.4861400000000  0.5733620000000 1.0
C      1  0.4662750000000  0.5138600000000  0.4266380000000 1.0
C      1  0.5733620000000  0.4662750000000  0.4861400000000 1.0
C      1  0.4266380000000  0.4662750000000  0.5138600000000 1.0
C      1  0.4266380000000  0.5337250000000  0.4861400000000 1.0
C      1  0.4861400000000  0.5733620000000  0.5337250000000 1.0
C      1  0.4662750000000  0.5138600000000  0.5733620000000 1.0
C      1  0.4266380000000  0.5337250000000  0.5138600000000 1.0
C      1  0.4861400000000  0.4266380000000  0.4662750000000 1.0
C      1  0.5138600000000  0.4266380000000  0.5337250000000 1.0
C      1  0.5138600000000  0.5733620000000  0.4662750000000 1.0
C      1  0.4662750000000  0.4861400000000  0.4266380000000 1.0
C      1  0.5337250000000  0.4861400000000  0.5733620000000 1.0
C      1  0.5337250000000  0.5138600000000  0.4266380000000 1.0
C      1  0.4266380000000  0.4662750000000  0.4861400000000 1.0
C      1  0.5733620000000  0.4662750000000  0.5138600000000 1.0
C      1  0.5733620000000  0.5337250000000  0.4861400000000 1.0
C      1  0.4438200000000  0.5663340000000  0.4825510000000 1.0
C      1  0.4825510000000  0.4438200000000  0.5663340000000 1.0
C      1  0.5663340000000  0.4825510000000  0.4438200000000 1.0
C      1  0.4438200000000  0.4336660000000  0.5174490000000 1.0
C      1  0.5561800000000  0.4336660000000  0.4825510000000 1.0
C      1  0.5561800000000  0.5663340000000  0.5174490000000 1.0
C      1  0.4825510000000  0.5561800000000  0.4336660000000 1.0
C      1  0.5174490000000  0.5561800000000  0.5663340000000 1.0
C      1  0.5174490000000  0.4438200000000  0.4336660000000 1.0
C      1  0.5663340000000  0.5174490000000  0.5561800000000 1.0
C      1  0.4336660000000  0.5174490000000  0.4438200000000 1.0
C      1  0.4336660000000  0.4825510000000  0.5561800000000 1.0
C      1  0.5561800000000  0.5663340000000  0.4825510000000 1.0
C      1  0.5174490000000  0.4438200000000  0.5663340000000 1.0
C      1  0.4336660000000  0.4825510000000  0.4438200000000 1.0
C      1  0.5561800000000  0.4336660000000  0.5174490000000 1.0
C      1  0.4438200000000  0.4336660000000  0.4825510000000 1.0
C      1  0.4438200000000  0.5663340000000  0.5174490000000 1.0
C      1  0.5174490000000  0.5561800000000  0.4336660000000 1.0
C      1  0.4825510000000  0.5561800000000  0.5663340000000 1.0
C      1  0.4825510000000  0.4438200000000  0.4336660000000 1.0
C      1  0.4336660000000  0.5174490000000  0.5561800000000 1.0
C      1  0.5663340000000  0.5174490000000  0.4438200000000 1.0
C      1  0.5663340000000  0.4825510000000  0.5561800000000 1.0
C      1  0.5344040000000  0.5730300000000  0.4856410000000 1.0
C      1  0.4856410000000  0.5344040000000  0.5730300000000 1.0
C      1  0.5730300000000  0.4856410000000  0.5344040000000 1.0
C      1  0.5344040000000  0.4269700000000  0.5143590000000 1.0
C      1  0.4655960000000  0.4269700000000  0.4856410000000 1.0
C      1  0.4655960000000  0.5730300000000  0.5143590000000 1.0
C      1  0.4856410000000  0.4655960000000  0.4269700000000 1.0
C      1  0.5143590000000  0.4655960000000  0.5730300000000 1.0
C      1  0.5143590000000  0.5344040000000  0.4269700000000 1.0
C      1  0.5730300000000  0.5143590000000  0.4655960000000 1.0
C      1  0.4269700000000  0.5143590000000  0.5344040000000 1.0
C      1  0.4269700000000  0.4856410000000  0.4655960000000 1.0
C      1  0.4655960000000  0.5730300000000  0.4856410000000 1.0
C      1  0.5143590000000  0.5344040000000  0.5730300000000 1.0
C      1  0.4269700000000  0.4856410000000  0.5344040000000 1.0
C      1  0.4655960000000  0.4269700000000  0.5143590000000 1.0
C      1  0.5344040000000  0.4269700000000  0.4856410000000 1.0
C      1  0.5344040000000  0.5730300000000  0.5143590000000 1.0
C      1  0.5143590000000  0.4655960000000  0.4269700000000 1.0
C      1  0.4856410000000  0.4655960000000  0.5730300000000 1.0
C      1  0.4856410000000  0.5344040000000  0.4269700000000 1.0
C      1  0.4269700000000  0.5143590000000  0.4655960000000 1.0
C      1  0.5730300000000  0.5143590000000  0.5344040000000 1.0
C      1  0.5730300000000  0.4856410000000  0.4655960000000 1.0
C      1  0.5611850000000  0.5000000000000  0.5200030000000 1.0
C      1  0.5000000000000  0.5200030000000  0.5611850000000 1.0
C      1  0.5611850000000  0.5000000000000  0.4799970000000 1.0
C      1  0.4388150000000  0.5000000000000  0.5200030000000 1.0
C      1  0.4388150000000  0.5000000000000  0.4799970000000 1.0
C      1  0.5000000000000  0.4799970000000  0.4388150000000 1.0
C      1  0.5200030000000  0.5611850000000  0.5000000000000 1.0
C      1  0.5200030000000  0.4388150000000  0.5000000000000 1.0
C      1  0.4799970000000  0.4388150000000  0.5000000000000 1.0
C      1  0.4799970000000  0.5611850000000  0.5000000000000 1.0
C      1  0.5000000000000  0.4799970000000  0.5611850000000 1.0
C      1  0.5000000000000  0.5200030000000  0.4388150000000 1.0
END
