TITL C-1379266-1300-211 4.07745090729126e-08 1000000 -2929.39003656151 0 0 420 (C1) n - 1
REM
REM in /nfs/bkarasulu/CARBON/AIRSS/Generating-Clusters/GAP-ML-2020/Higher-Symm/Selected-Sizes/TryA-Only_Ih-Symm/Larger-Clusters/Try2-MINAMP_6A
REM
REM
REM
REM
REM
REM ./C.cell (31579ac4e95a012ec27f3239692ae8a5)
REM
REM compiler GCC version 9.2.1 20190827 (Red Hat 9.2.1-1)
REM options -cpp -mtune=generic -march=x86-64 -g -O0 -fpre-include=/usr/include/finclude/math-vector-fortran.h
REM seed -1537387641 -1239322410 -2127282907 1769327785 -454465797 543975069 -144363638 -1622135325 1300119102 335066029 -2091452032 -639696647 1992295721 375510807 -1368370707 1473581692 -855138432 1765655411 1610165533 -1863390664 675541142 483661622 -1953593410 1882915324 1909504933 -1736126197 -1088743125 782398436 1029393093 -924263727 1058427033 1048520577 -1263831126
REM
CELL 1.54180  100.00000  100.00000  100.00000   90.00000   90.00000   90.00000
LATT -1
SFAC C  
C      1  0.5175440000000  0.5455970000000  0.5705880000000 1.0
C      1  0.5466340000000  0.5703730000000  0.5156710000000 1.0
C      1  0.5697100000000  0.5167670000000  0.5471550000000 1.0
C      1  0.4863730000000  0.4544290000000  0.5685660000000 1.0
C      1  0.5168920000000  0.4534890000000  0.4320980000000 1.0
C      1  0.4837880000000  0.5446620000000  0.4306220000000 1.0
C      1  0.4548330000000  0.4297410000000  0.5181040000000 1.0
C      1  0.5453390000000  0.4361330000000  0.4796420000000 1.0
C      1  0.4548050000000  0.5684950000000  0.4848870000000 1.0
C      1  0.4295430000000  0.4830110000000  0.5453760000000 1.0
C      1  0.5671870000000  0.4823190000000  0.4544950000000 1.0
C      1  0.4312750000000  0.5152020000000  0.4530650000000 1.0
C      1  0.5177540000000  0.5442910000000  0.4306660000000 1.0
C      1  0.5459570000000  0.5698580000000  0.4835150000000 1.0
C      1  0.5678520000000  0.5175520000000  0.4543660000000 1.0
C      1  0.4823760000000  0.4528700000000  0.4329340000000 1.0
C      1  0.5191970000000  0.4558610000000  0.5777660000000 1.0
C      1  0.4842920000000  0.5452560000000  0.5689560000000 1.0
C      1  0.4530110000000  0.4317590000000  0.4831380000000 1.0
C      1  0.5468590000000  0.4343810000000  0.5141320000000 1.0
C      1  0.4554000000000  0.5695810000000  0.5183390000000 1.0
C      1  0.4197810000000  0.4813950000000  0.4543360000000 1.0
C      1  0.5678190000000  0.4823070000000  0.5461010000000 1.0
C      1  0.4294990000000  0.5166170000000  0.5448760000000 1.0
C      1  0.4378190000000  0.4572610000000  0.4739380000000 1.0
C      1  0.4578360000000  0.4722330000000  0.4345130000000 1.0
C      1  0.4708740000000  0.4417400000000  0.4580260000000 1.0
C      1  0.5707610000000  0.5435450000000  0.4746600000000 1.0
C      1  0.4367080000000  0.5432050000000  0.5254470000000 1.0
C      1  0.5572610000000  0.4587050000000  0.5267160000000 1.0
C      1  0.5435330000000  0.5246790000000  0.4392110000000 1.0
C      1  0.4575790000000  0.5266840000000  0.5614780000000 1.0
C      1  0.5422020000000  0.4744140000000  0.5603710000000 1.0
C      1  0.5275440000000  0.5612940000000  0.4578900000000 1.0
C      1  0.4761640000000  0.5723970000000  0.5442970000000 1.0
C      1  0.5283870000000  0.4342770000000  0.5399950000000 1.0
C      1  0.4360750000000  0.4558980000000  0.5266030000000 1.0
C      1  0.4586620000000  0.4721120000000  0.5611150000000 1.0
C      1  0.4766920000000  0.4269310000000  0.5436000000000 1.0
C      1  0.5686990000000  0.5416320000000  0.5285190000000 1.0
C      1  0.4334250000000  0.5401990000000  0.4714620000000 1.0
C      1  0.5638050000000  0.4579910000000  0.4740120000000 1.0
C      1  0.5427600000000  0.5277110000000  0.5630500000000 1.0
C      1  0.4574820000000  0.5251130000000  0.4375040000000 1.0
C      1  0.5413780000000  0.4717440000000  0.4424560000000 1.0
C      1  0.5285720000000  0.5633200000000  0.5427650000000 1.0
C      1  0.4731350000000  0.5605480000000  0.4581450000000 1.0
C      1  0.5241150000000  0.4387310000000  0.4561170000000 1.0
C      1  0.4620400000000  0.4851830000000  0.4348920000000 1.0
C      1  0.4844310000000  0.4385770000000  0.4614060000000 1.0
C      1  0.4357890000000  0.4607690000000  0.4874070000000 1.0
C      1  0.5390070000000  0.5115110000000  0.4383820000000 1.0
C      1  0.4618270000000  0.5132740000000  0.5638170000000 1.0
C      1  0.5389740000000  0.4880560000000  0.5624390000000 1.0
C      1  0.5140290000000  0.5635730000000  0.4619560000000 1.0
C      1  0.4876250000000  0.5668670000000  0.5399700000000 1.0
C      1  0.5152550000000  0.4337360000000  0.5365300000000 1.0
C      1  0.5676330000000  0.5393300000000  0.4870410000000 1.0
C      1  0.4352230000000  0.5383990000000  0.5124260000000 1.0
C      1  0.5603750000000  0.4623230000000  0.5132890000000 1.0
C      1  0.4623830000000  0.4857190000000  0.5635940000000 1.0
C      1  0.4880110000000  0.4325370000000  0.5391400000000 1.0
C      1  0.4349990000000  0.4608300000000  0.5135470000000 1.0
C      1  0.5386110000000  0.5143280000000  0.5634200000000 1.0
C      1  0.4616080000000  0.5119610000000  0.4354870000000 1.0
C      1  0.5380270000000  0.4851630000000  0.4392140000000 1.0
C      1  0.5151830000000  0.5658960000000  0.5387620000000 1.0
C      1  0.4865790000000  0.5630770000000  0.4619930000000 1.0
C      1  0.5108970000000  0.4374650000000  0.4603670000000 1.0
C      1  0.5666990000000  0.5388830000000  0.5152510000000 1.0
C      1  0.4354890000000  0.5378740000000  0.4848780000000 1.0
C      1  0.5619210000000  0.4622630000000  0.4867230000000 1.0
C      1  0.5433230000000  0.4695670000000  0.4573090000000 1.0
C      1  0.4539150000000  0.4583660000000  0.5415290000000 1.0
C      1  0.4587840000000  0.5398360000000  0.4562140000000 1.0
C      1  0.4546760000000  0.5275310000000  0.4517180000000 1.0
C      1  0.5474820000000  0.5310440000000  0.5492590000000 1.0
C      1  0.4524710000000  0.4699270000000  0.5482770000000 1.0
C      1  0.5311330000000  0.5498140000000  0.5476150000000 1.0
C      1  0.4706520000000  0.5468130000000  0.4539450000000 1.0
C      1  0.5277760000000  0.4523850000000  0.4555090000000 1.0
C      1  0.5380410000000  0.4581370000000  0.4639650000000 1.0
C      1  0.4503340000000  0.4531960000000  0.5297080000000 1.0
C      1  0.5431510000000  0.5432360000000  0.5449060000000 1.0
C      1  0.5438880000000  0.4723710000000  0.5463240000000 1.0
C      1  0.4690550000000  0.4565510000000  0.4560060000000 1.0
C      1  0.4509380000000  0.5453530000000  0.5288740000000 1.0
C      1  0.4526500000000  0.5290890000000  0.5480400000000 1.0
C      1  0.5453200000000  0.5282240000000  0.4532020000000 1.0
C      1  0.4583970000000  0.4638690000000  0.4619770000000 1.0
C      1  0.5300340000000  0.5476870000000  0.4537370000000 1.0
C      1  0.4543170000000  0.5406370000000  0.5411460000000 1.0
C      1  0.5356850000000  0.4626910000000  0.5394170000000 1.0
C      1  0.5425330000000  0.4568550000000  0.5283490000000 1.0
C      1  0.4517330000000  0.4554770000000  0.4717980000000 1.0
C      1  0.5415770000000  0.5408310000000  0.4567630000000 1.0
C      1  0.4245700000000  0.4928530000000  0.5357360000000 1.0
C      1  0.4939120000000  0.5353060000000  0.4258290000000 1.0
C      1  0.5374620000000  0.4287560000000  0.4900510000000 1.0
C      1  0.5742950000000  0.5061290000000  0.5379500000000 1.0
C      1  0.4251560000000  0.5058280000000  0.4623540000000 1.0
C      1  0.5737360000000  0.4928490000000  0.4630200000000 1.0
C      1  0.5066310000000  0.4619050000000  0.4263420000000 1.0
C      1  0.4944530000000  0.4636610000000  0.5762700000000 1.0
C      1  0.5072170000000  0.5361780000000  0.5749720000000 1.0
C      1  0.4642920000000  0.5754850000000  0.4939350000000 1.0
C      1  0.5370840000000  0.5773380000000  0.5064590000000 1.0
C      1  0.4633920000000  0.4255140000000  0.5066400000000 1.0
C      1  0.4235910000000  0.4917820000000  0.4627470000000 1.0
C      1  0.4934250000000  0.5359940000000  0.5760170000000 1.0
C      1  0.5383840000000  0.4276830000000  0.5038700000000 1.0
C      1  0.5740410000000  0.5067260000000  0.4631850000000 1.0
C      1  0.4245560000000  0.5065940000000  0.5355100000000 1.0
C      1  0.5741240000000  0.4923800000000  0.5377160000000 1.0
C      1  0.5085120000000  0.4640240000000  0.5752670000000 1.0
C      1  0.4928460000000  0.4613930000000  0.4262710000000 1.0
C      1  0.5076340000000  0.5350530000000  0.4259140000000 1.0
C      1  0.4646620000000  0.5747210000000  0.5076730000000 1.0
C      1  0.5367440000000  0.5771800000000  0.4926130000000 1.0
C      1  0.4623580000000  0.4258320000000  0.4928960000000 1.0
C      1  0.4708570000000  0.5457270000000  0.5718300000000 1.0
C      1  0.5468150000000  0.5725610000000  0.4700540000000 1.0
C      1  0.5714930000000  0.4688690000000  0.5455990000000 1.0
C      1  0.5320750000000  0.4556210000000  0.5754540000000 1.0
C      1  0.4697530000000  0.4508780000000  0.4276130000000 1.0
C      1  0.5307420000000  0.5418910000000  0.4260630000000 1.0
C      1  0.4527960000000  0.4279110000000  0.4697330000000 1.0
C      1  0.5490850000000  0.4287990000000  0.5265510000000 1.0
C      1  0.4584800000000  0.5746250000000  0.5305090000000 1.0
C      1  0.4252130000000  0.5298250000000  0.5432030000000 1.0
C      1  0.5714660000000  0.5307320000000  0.4552790000000 1.0
C      1  0.4232480000000  0.4689210000000  0.4565160000000 1.0
C      1  0.4707310000000  0.5430850000000  0.4260110000000 1.0
C      1  0.5465990000000  0.5734310000000  0.5289760000000 1.0
C      1  0.5723820000000  0.4695610000000  0.4529190000000 1.0
C      1  0.5301770000000  0.4540390000000  0.4279250000000 1.0
C      1  0.4728710000000  0.4531880000000  0.5710280000000 1.0
C      1  0.5302090000000  0.5457590000000  0.5766500000000 1.0
C      1  0.4586270000000  0.4242470000000  0.5299610000000 1.0
C      1  0.5430170000000  0.4314220000000  0.4669980000000 1.0
C      1  0.4552480000000  0.5713500000000  0.4715320000000 1.0
C      1  0.4262700000000  0.5278530000000  0.4502170000000 1.0
C      1  0.5764520000000  0.5287690000000  0.5491190000000 1.0
C      1  0.4249490000000  0.4699030000000  0.5441250000000 1.0
C      1  0.4293800000000  0.4849230000000  0.4747780000000 1.0
C      1  0.4858630000000  0.4743780000000  0.4277730000000 1.0
C      1  0.4745400000000  0.4293110000000  0.4854120000000 1.0
C      1  0.5720340000000  0.5141690000000  0.4759080000000 1.0
C      1  0.4284480000000  0.5138590000000  0.5233630000000 1.0
C      1  0.5706030000000  0.4859120000000  0.5247520000000 1.0
C      1  0.5146500000000  0.5227970000000  0.4303200000000 1.0
C      1  0.4859160000000  0.5237280000000  0.5723750000000 1.0
C      1  0.5150250000000  0.4754490000000  0.5684470000000 1.0
C      1  0.5245130000000  0.5731890000000  0.4853500000000 1.0
C      1  0.4766700000000  0.5710310000000  0.5149340000000 1.0
C      1  0.5254480000000  0.4279720000000  0.5114920000000 1.0
C      1  0.4283180000000  0.4853090000000  0.5237980000000 1.0
C      1  0.4869300000000  0.4758590000000  0.5724480000000 1.0
C      1  0.4758140000000  0.4290280000000  0.5136570000000 1.0
C      1  0.5713330000000  0.5134900000000  0.5255450000000 1.0
C      1  0.4287530000000  0.5128520000000  0.4747420000000 1.0
C      1  0.5716320000000  0.4858030000000  0.4760610000000 1.0
C      1  0.5143670000000  0.5244160000000  0.5702980000000 1.0
C      1  0.4865090000000  0.5231070000000  0.4293720000000 1.0
C      1  0.5135670000000  0.4748830000000  0.4295600000000 1.0
C      1  0.5251200000000  0.5740800000000  0.5143110000000 1.0
C      1  0.4764540000000  0.5720910000000  0.4861460000000 1.0
C      1  0.5239750000000  0.4300590000000  0.4834730000000 1.0
C      1  0.5316520000000  0.5075420000000  0.5735860000000 1.0
C      1  0.5087210000000  0.5763900000000  0.5313680000000 1.0
C      1  0.5758920000000  0.5300660000000  0.5082030000000 1.0
C      1  0.4690020000000  0.4923160000000  0.5743810000000 1.0
C      1  0.5316950000000  0.4911150000000  0.4278560000000 1.0
C      1  0.4693500000000  0.5062290000000  0.4251120000000 1.0
C      1  0.4944200000000  0.4241740000000  0.5291860000000 1.0
C      1  0.5051240000000  0.4268100000000  0.4671690000000 1.0
C      1  0.4929650000000  0.5740990000000  0.4684470000000 1.0
C      1  0.4246650000000  0.4678470000000  0.5069890000000 1.0
C      1  0.5726340000000  0.4688570000000  0.4937550000000 1.0
C      1  0.4254830000000  0.5302700000000  0.4919730000000 1.0
C      1  0.5322190000000  0.5054210000000  0.4276820000000 1.0
C      1  0.5073240000000  0.5743670000000  0.4684160000000 1.0
C      1  0.5762680000000  0.5300730000000  0.4940780000000 1.0
C      1  0.4696520000000  0.4920650000000  0.4247110000000 1.0
C      1  0.5320060000000  0.4932940000000  0.5732640000000 1.0
C      1  0.4688340000000  0.5067060000000  0.5744160000000 1.0
C      1  0.4906850000000  0.4272010000000  0.4674050000000 1.0
C      1  0.5085320000000  0.4238170000000  0.5284100000000 1.0
C      1  0.4945620000000  0.5758580000000  0.5311840000000 1.0
C      1  0.4248900000000  0.4676480000000  0.4926230000000 1.0
C      1  0.5720820000000  0.4684110000000  0.5078970000000 1.0
C      1  0.4249570000000  0.5309330000000  0.5062020000000 1.0
C      1  0.4803170000000  0.5142370000000  0.4516180000000 1.0
C      1  0.5126760000000  0.4515540000000  0.4815540000000 1.0
C      1  0.4508830000000  0.4810110000000  0.5156490000000 1.0
C      1  0.5177690000000  0.4847980000000  0.4523040000000 1.0
C      1  0.4823500000000  0.4851060000000  0.5489320000000 1.0
C      1  0.5187520000000  0.5164950000000  0.5475370000000 1.0
C      1  0.4858070000000  0.5488030000000  0.4823710000000 1.0
C      1  0.5154400000000  0.5512580000000  0.5193990000000 1.0
C      1  0.4847400000000  0.4502660000000  0.5207660000000 1.0
C      1  0.5499350000000  0.5208050000000  0.5158290000000 1.0
C      1  0.4508910000000  0.5182590000000  0.4847580000000 1.0
C      1  0.5488610000000  0.4839590000000  0.4858740000000 1.0
C      1  0.4812450000000  0.5149240000000  0.5488080000000 1.0
C      1  0.5137040000000  0.4488070000000  0.5178680000000 1.0
C      1  0.4500960000000  0.4807750000000  0.4861700000000 1.0
C      1  0.5194100000000  0.4868950000000  0.5478280000000 1.0
C      1  0.4814610000000  0.4850630000000  0.4497780000000 1.0
C      1  0.5183770000000  0.5148920000000  0.4532010000000 1.0
C      1  0.4856880000000  0.5495770000000  0.5204150000000 1.0
C      1  0.5153730000000  0.5496960000000  0.4823320000000 1.0
C      1  0.4833570000000  0.4523390000000  0.4819950000000 1.0
C      1  0.5508020000000  0.5209080000000  0.4863010000000 1.0
C      1  0.4508340000000  0.5188600000000  0.5148390000000 1.0
C      1  0.5475190000000  0.4830260000000  0.5149420000000 1.0
C      1  0.5399680000000  0.5557370000000  0.4854340000000 1.0
C      1  0.5527150000000  0.4828690000000  0.5403090000000 1.0
C      1  0.4862970000000  0.5390320000000  0.5549440000000 1.0
C      1  0.4581810000000  0.4470210000000  0.4824500000000 1.0
C      1  0.5384420000000  0.4483250000000  0.5162610000000 1.0
C      1  0.4594270000000  0.5527980000000  0.5185340000000 1.0
C      1  0.4457510000000  0.5173560000000  0.5407050000000 1.0
C      1  0.5527720000000  0.5175650000000  0.4607300000000 1.0
C      1  0.4517070000000  0.4781130000000  0.4622780000000 1.0
C      1  0.5219300000000  0.4628630000000  0.5460550000000 1.0
C      1  0.4807130000000  0.4604790000000  0.4470060000000 1.0
C      1  0.5184750000000  0.5404460000000  0.4468870000000 1.0
C      1  0.5400230000000  0.5563230000000  0.5150900000000 1.0
C      1  0.5525040000000  0.4811220000000  0.4614530000000 1.0
C      1  0.4824870000000  0.5399360000000  0.4470370000000 1.0
C      1  0.4586450000000  0.4461430000000  0.5190540000000 1.0
C      1  0.5381000000000  0.4507140000000  0.4791430000000 1.0
C      1  0.4613610000000  0.5544660000000  0.4856450000000 1.0
C      1  0.4466790000000  0.5163240000000  0.4587390000000 1.0
C      1  0.5546580000000  0.5197980000000  0.5419280000000 1.0
C      1  0.4455780000000  0.4818420000000  0.5413300000000 1.0
C      1  0.5172430000000  0.4595540000000  0.4476150000000 1.0
C      1  0.4891000000000  0.4610340000000  0.5551180000000 1.0
C      1  0.5193190000000  0.5423500000000  0.5544320000000 1.0
C      1  0.5265170000000  0.5599420000000  0.5167700000000 1.0
C      1  0.5576680000000  0.5181310000000  0.5273910000000 1.0
C      1  0.5173480000000  0.5274620000000  0.5564550000000 1.0
C      1  0.4731910000000  0.4423250000000  0.5195450000000 1.0
C      1  0.5247080000000  0.4443160000000  0.4817720000000 1.0
C      1  0.4748460000000  0.5578380000000  0.4843910000000 1.0
C      1  0.4420880000000  0.4819540000000  0.5267030000000 1.0
C      1  0.5574310000000  0.4843610000000  0.4748770000000 1.0
C      1  0.4427840000000  0.5161270000000  0.4731580000000 1.0
C      1  0.4858860000000  0.4744520000000  0.5581410000000 1.0
C      1  0.5159930000000  0.4737150000000  0.4436310000000 1.0
C      1  0.4823760000000  0.5254370000000  0.4430840000000 1.0
C      1  0.5262570000000  0.5588780000000  0.4840060000000 1.0
C      1  0.5583050000000  0.5186320000000  0.4746520000000 1.0
C      1  0.5176540000000  0.5257930000000  0.4441200000000 1.0
C      1  0.4725320000000  0.4434160000000  0.4832270000000 1.0
C      1  0.5253320000000  0.4418330000000  0.5148190000000 1.0
C      1  0.4738880000000  0.5571900000000  0.5194830000000 1.0
C      1  0.4433420000000  0.4814900000000  0.4736500000000 1.0
C      1  0.5563630000000  0.4841990000000  0.5260090000000 1.0
C      1  0.4421860000000  0.5176780000000  0.5260230000000 1.0
C      1  0.4835440000000  0.4738050000000  0.4418270000000 1.0
C      1  0.5183420000000  0.4743210000000  0.5545080000000 1.0
C      1  0.4841440000000  0.5254680000000  0.5581400000000 1.0
C      1  0.4113330000000  0.4877480000000  0.5061800000000 1.0
C      1  0.4900200000000  0.5068450000000  0.4117370000000 1.0
C      1  0.5062420000000  0.4118630000000  0.4857760000000 1.0
C      1  0.5885950000000  0.5093620000000  0.5085980000000 1.0
C      1  0.4114270000000  0.5103510000000  0.4919860000000 1.0
C      1  0.5890860000000  0.4866880000000  0.4940940000000 1.0
C      1  0.5130360000000  0.4923260000000  0.4119830000000 1.0
C      1  0.4889030000000  0.4924180000000  0.5895070000000 1.0
C      1  0.5116930000000  0.5066250000000  0.5869880000000 1.0
C      1  0.4927240000000  0.5897600000000  0.4878330000000 1.0
C      1  0.5070990000000  0.5903330000000  0.5108860000000 1.0
C      1  0.4923360000000  0.4115760000000  0.5090050000000 1.0
C      1  0.4114450000000  0.4873460000000  0.4915730000000 1.0
C      1  0.4887350000000  0.5067090000000  0.5894640000000 1.0
C      1  0.5068070000000  0.4105000000000  0.5084980000000 1.0
C      1  0.5890250000000  0.5094650000000  0.4940790000000 1.0
C      1  0.4112940000000  0.5106680000000  0.5064050000000 1.0
C      1  0.5886790000000  0.4865260000000  0.5085390000000 1.0
C      1  0.5120940000000  0.4919500000000  0.5867230000000 1.0
C      1  0.4900090000000  0.4924210000000  0.4110220000000 1.0
C      1  0.5131180000000  0.5067470000000  0.4125750000000 1.0
C      1  0.4927560000000  0.5889600000000  0.5107960000000 1.0
C      1  0.5070420000000  0.5901060000000  0.4877430000000 1.0
C      1  0.4916770000000  0.4119120000000  0.4862630000000 1.0
C      1  0.4628420000000  0.4602430000000  0.5679550000000 1.0
C      1  0.4614230000000  0.5687570000000  0.4608300000000 1.0
C      1  0.5690580000000  0.4609900000000  0.4626570000000 1.0
C      1  0.5393290000000  0.5376860000000  0.5722500000000 1.0
C      1  0.4604180000000  0.5362220000000  0.4287890000000 1.0
C      1  0.5393370000000  0.4613050000000  0.4332130000000 1.0
C      1  0.5352760000000  0.4296000000000  0.4572210000000 1.0
C      1  0.4651990000000  0.4207180000000  0.5405360000000 1.0
C      1  0.5404670000000  0.5712080000000  0.5397630000000 1.0
C      1  0.4295320000000  0.5367450000000  0.4597720000000 1.0
C      1  0.5730490000000  0.5381540000000  0.5401140000000 1.0
C      1  0.4273400000000  0.4592920000000  0.5376180000000 1.0
C      1  0.4607090000000  0.4603090000000  0.4302940000000 1.0
C      1  0.4645650000000  0.5782970000000  0.5413460000000 1.0
C      1  0.5664590000000  0.4605140000000  0.5372970000000 1.0
C      1  0.5406190000000  0.5347470000000  0.4294680000000 1.0
C      1  0.4607560000000  0.5386410000000  0.5689920000000 1.0
C      1  0.5396470000000  0.4636350000000  0.5686970000000 1.0
C      1  0.5403830000000  0.4308010000000  0.5363190000000 1.0
C      1  0.4602240000000  0.4327440000000  0.4604330000000 1.0
C      1  0.5393210000000  0.5689640000000  0.4605000000000 1.0
C      1  0.4277080000000  0.5403510000000  0.5366140000000 1.0
C      1  0.5721370000000  0.5421710000000  0.4616220000000 1.0
C      1  0.4293320000000  0.4598130000000  0.4631370000000 1.0
C      1  0.5136040000000  0.5802670000000  0.4798500000000 1.0
C      1  0.5781140000000  0.4794260000000  0.5146910000000 1.0
C      1  0.4804480000000  0.5130630000000  0.5798120000000 1.0
C      1  0.4847430000000  0.4218560000000  0.4790880000000 1.0
C      1  0.5145000000000  0.4197590000000  0.5161130000000 1.0
C      1  0.4874000000000  0.5790270000000  0.5193530000000 1.0
C      1  0.4207370000000  0.5190120000000  0.5127960000000 1.0
C      1  0.5798810000000  0.5179390000000  0.4873570000000 1.0
C      1  0.4211820000000  0.4791270000000  0.4851640000000 1.0
C      1  0.5203700000000  0.4859620000000  0.5766680000000 1.0
C      1  0.4814930000000  0.4855490000000  0.4200450000000 1.0
C      1  0.5208720000000  0.5126050000000  0.4228460000000 1.0
C      1  0.5143480000000  0.5815290000000  0.5193700000000 1.0
C      1  0.5787710000000  0.4799260000000  0.4870420000000 1.0
C      1  0.4814400000000  0.5128220000000  0.4212860000000 1.0
C      1  0.4867720000000  0.4211010000000  0.5176730000000 1.0
C      1  0.5128280000000  0.4222160000000  0.4784370000000 1.0
C      1  0.4866210000000  0.5796240000000  0.4800340000000 1.0
C      1  0.4211700000000  0.5182710000000  0.4855740000000 1.0
C      1  0.5792770000000  0.5178760000000  0.5147210000000 1.0
C      1  0.4206300000000  0.4798280000000  0.5132560000000 1.0
C      1  0.5200760000000  0.4851120000000  0.4220770000000 1.0
C      1  0.4805090000000  0.4860000000000  0.5799980000000 1.0
C      1  0.5196540000000  0.5136030000000  0.5776690000000 1.0
C      1  0.5073950000000  0.5084760000000  0.5449910000000 1.0
C      1  0.5077680000000  0.5476450000000  0.5085970000000 1.0
C      1  0.5460530000000  0.5098360000000  0.5081480000000 1.0
C      1  0.4930890000000  0.4932440000000  0.5452780000000 1.0
C      1  0.5067880000000  0.4928080000000  0.4546550000000 1.0
C      1  0.4918250000000  0.5070900000000  0.4546940000000 1.0
C      1  0.4913240000000  0.4536590000000  0.5086960000000 1.0
C      1  0.5052970000000  0.4536220000000  0.4930630000000 1.0
C      1  0.4933360000000  0.5463810000000  0.4938630000000 1.0
C      1  0.4532020000000  0.4924790000000  0.5078680000000 1.0
C      1  0.5459130000000  0.4952300000000  0.4933220000000 1.0
C      1  0.4532920000000  0.5071530000000  0.4929150000000 1.0
C      1  0.5067620000000  0.5072850000000  0.4552020000000 1.0
C      1  0.5078480000000  0.5470980000000  0.4937710000000 1.0
C      1  0.5465370000000  0.5100380000000  0.4936460000000 1.0
C      1  0.4920500000000  0.4926540000000  0.4540600000000 1.0
C      1  0.5079380000000  0.4939910000000  0.5451320000000 1.0
C      1  0.4925270000000  0.5077510000000  0.5450990000000 1.0
C      1  0.4908370000000  0.4542030000000  0.4936630000000 1.0
C      1  0.5057580000000  0.4531710000000  0.5077670000000 1.0
C      1  0.4932510000000  0.5468630000000  0.5087950000000 1.0
C      1  0.4528290000000  0.4921990000000  0.4933820000000 1.0
C      1  0.5453910000000  0.4948990000000  0.5078130000000 1.0
C      1  0.4534190000000  0.5073870000000  0.5074540000000 1.0
C      1  0.4674880000000  0.5062140000000  0.4482340000000 1.0
C      1  0.5058320000000  0.4496710000000  0.4686040000000 1.0
C      1  0.4479260000000  0.4678050000000  0.5086850000000 1.0
C      1  0.5310330000000  0.4916620000000  0.4511330000000 1.0
C      1  0.4683120000000  0.4918510000000  0.5510310000000 1.0
C      1  0.5321400000000  0.5095330000000  0.5503380000000 1.0
C      1  0.4927440000000  0.5507660000000  0.4688380000000 1.0
C      1  0.5088610000000  0.5532970000000  0.5328890000000 1.0
C      1  0.4930900000000  0.4468040000000  0.5333940000000 1.0
C      1  0.5533710000000  0.5340150000000  0.5089980000000 1.0
C      1  0.4485660000000  0.5319510000000  0.4915600000000 1.0
C      1  0.5495620000000  0.4705660000000  0.4917660000000 1.0
C      1  0.4680020000000  0.5074800000000  0.5510890000000 1.0
C      1  0.5087510000000  0.4464310000000  0.5311980000000 1.0
C      1  0.4481250000000  0.4680000000000  0.4933420000000 1.0
C      1  0.5320730000000  0.4941660000000  0.5500930000000 1.0
C      1  0.4682080000000  0.4908430000000  0.4477940000000 1.0
C      1  0.5313350000000  0.5070650000000  0.4507860000000 1.0
C      1  0.4930110000000  0.5529850000000  0.5334420000000 1.0
C      1  0.5082720000000  0.5510660000000  0.4687180000000 1.0
C      1  0.4905710000000  0.4504230000000  0.4688150000000 1.0
C      1  0.5538100000000  0.5340230000000  0.4929330000000 1.0
C      1  0.4480430000000  0.5317580000000  0.5073730000000 1.0
C      1  0.5487710000000  0.4699460000000  0.5071500000000 1.0
C      1  0.4582420000000  0.5433790000000  0.4933870000000 1.0
C      1  0.5429500000000  0.4924830000000  0.4602850000000 1.0
C      1  0.4962890000000  0.4568260000000  0.5441730000000 1.0
C      1  0.5396880000000  0.4594490000000  0.4910500000000 1.0
C      1  0.4571930000000  0.4558140000000  0.5079570000000 1.0
C      1  0.5434310000000  0.5450690000000  0.5077520000000 1.0
C      1  0.4559140000000  0.5046300000000  0.4575460000000 1.0
C      1  0.5445250000000  0.5088250000000  0.5413110000000 1.0
C      1  0.4557960000000  0.4925830000000  0.5423690000000 1.0
C      1  0.5086810000000  0.5434180000000  0.5442430000000 1.0
C      1  0.4935220000000  0.5415570000000  0.4568280000000 1.0
C      1  0.5057250000000  0.4590030000000  0.4568710000000 1.0
C      1  0.4577860000000  0.5430270000000  0.5074900000000 1.0
C      1  0.5440550000000  0.4948550000000  0.5411740000000 1.0
C      1  0.4917760000000  0.4597960000000  0.4569410000000 1.0
C      1  0.5391720000000  0.4585760000000  0.5052770000000 1.0
C      1  0.4573500000000  0.4561720000000  0.4940470000000 1.0
C      1  0.5436840000000  0.5449650000000  0.4934120000000 1.0
C      1  0.4556850000000  0.5064890000000  0.5422930000000 1.0
C      1  0.5431710000000  0.5064380000000  0.4600200000000 1.0
C      1  0.4569030000000  0.4903320000000  0.4576960000000 1.0
C      1  0.5074640000000  0.5416980000000  0.4567540000000 1.0
C      1  0.4945690000000  0.5430210000000  0.5445650000000 1.0
C      1  0.5103540000000  0.4571160000000  0.5412550000000 1.0
C      1  0.5017320000000  0.5137120000000  0.4086500000000 1.0
C      1  0.5126540000000  0.4066470000000  0.4966870000000 1.0
C      1  0.4075460000000  0.4991610000000  0.5131490000000 1.0
C      1  0.5016860000000  0.4857790000000  0.4075650000000 1.0
C      1  0.5008610000000  0.4855090000000  0.5914980000000 1.0
C      1  0.5006880000000  0.5134310000000  0.5919650000000 1.0
C      1  0.4857020000000  0.5929290000000  0.4995060000000 1.0
C      1  0.5137880000000  0.5941750000000  0.4992500000000 1.0
C      1  0.4849120000000  0.4080320000000  0.4978230000000 1.0
C      1  0.5921640000000  0.4979600000000  0.5157930000000 1.0
C      1  0.4079480000000  0.4989360000000  0.4849460000000 1.0
C      1  0.5934580000000  0.4981000000000  0.4876240000000 1.0
END
