TITL C-1379266-1300-427 -9.51355303520208e-07 1000000 -4232.69630495702 0 0 600 (Th) n - 1
REM
REM in /nfs/bkarasulu/CARBON/AIRSS/Generating-Clusters/GAP-ML-2020/Higher-Symm/Selected-Sizes/TryA-Only_Ih-Symm/Larger-Clusters/Try2-MINAMP_6A
REM
REM
REM
REM
REM
REM ./C.cell (31579ac4e95a012ec27f3239692ae8a5)
REM
REM compiler GCC version 9.2.1 20190827 (Red Hat 9.2.1-1)
REM options -cpp -mtune=generic -march=x86-64 -g -O0 -fpre-include=/usr/include/finclude/math-vector-fortran.h
REM seed -421397303 224874233 1231487969 496938996 -80303219 -1426808092 1462602441 -1266033100 -560336529 -1209776615 1167673165 1532387324 1342779310 752066383 -960542234 1239327424 402567234 -1527724529 1873381707 -294026128 -413395413 12045469 -1916256294 1117579980 120411773 -1038936997 -978064094 1876217498 385303232 505610224 -754452704 -1261454562 -582036438
REM
CELL 1.54180  100.00000  100.00000  100.00000   90.00000   90.00000   90.00000
LATT -1
SFAC C  
C      1  0.5751390000000  0.5073940000000  0.5076820000000 1.0
C      1  0.5073940000000  0.5076820000000  0.5751390000000 1.0
C      1  0.5076820000000  0.5751390000000  0.5073940000000 1.0
C      1  0.5751390000000  0.4926060000000  0.4923180000000 1.0
C      1  0.4248610000000  0.5073940000000  0.4923180000000 1.0
C      1  0.4248610000000  0.4926060000000  0.5076820000000 1.0
C      1  0.5073940000000  0.4923180000000  0.4248610000000 1.0
C      1  0.4926060000000  0.5076820000000  0.4248610000000 1.0
C      1  0.4926060000000  0.4923180000000  0.5751390000000 1.0
C      1  0.5076820000000  0.4248610000000  0.4926060000000 1.0
C      1  0.4923180000000  0.5751390000000  0.4926060000000 1.0
C      1  0.4923180000000  0.4248610000000  0.5073940000000 1.0
C      1  0.4248610000000  0.5073940000000  0.5076820000000 1.0
C      1  0.4926060000000  0.5076820000000  0.5751390000000 1.0
C      1  0.4923180000000  0.5751390000000  0.5073940000000 1.0
C      1  0.4248610000000  0.4926060000000  0.4923180000000 1.0
C      1  0.5751390000000  0.5073940000000  0.4923180000000 1.0
C      1  0.5751390000000  0.4926060000000  0.5076820000000 1.0
C      1  0.4926060000000  0.4923180000000  0.4248610000000 1.0
C      1  0.5073940000000  0.5076820000000  0.4248610000000 1.0
C      1  0.5073940000000  0.4923180000000  0.5751390000000 1.0
C      1  0.4923180000000  0.4248610000000  0.4926060000000 1.0
C      1  0.5076820000000  0.5751390000000  0.4926060000000 1.0
C      1  0.5076820000000  0.4248610000000  0.5073940000000 1.0
C      1  0.5305080000000  0.4263060000000  0.5145990000000 1.0
C      1  0.4263060000000  0.5145990000000  0.5305080000000 1.0
C      1  0.5145990000000  0.5305080000000  0.4263060000000 1.0
C      1  0.5305080000000  0.5736940000000  0.4854010000000 1.0
C      1  0.4694920000000  0.4263060000000  0.4854010000000 1.0
C      1  0.4694920000000  0.5736940000000  0.5145990000000 1.0
C      1  0.4263060000000  0.4854010000000  0.4694920000000 1.0
C      1  0.5736940000000  0.5145990000000  0.4694920000000 1.0
C      1  0.5736940000000  0.4854010000000  0.5305080000000 1.0
C      1  0.5145990000000  0.4694920000000  0.5736940000000 1.0
C      1  0.4854010000000  0.5305080000000  0.5736940000000 1.0
C      1  0.4854010000000  0.4694920000000  0.4263060000000 1.0
C      1  0.4694920000000  0.4263060000000  0.5145990000000 1.0
C      1  0.5736940000000  0.5145990000000  0.5305080000000 1.0
C      1  0.4854010000000  0.5305080000000  0.4263060000000 1.0
C      1  0.4694920000000  0.5736940000000  0.4854010000000 1.0
C      1  0.5305080000000  0.4263060000000  0.4854010000000 1.0
C      1  0.5305080000000  0.5736940000000  0.5145990000000 1.0
C      1  0.5736940000000  0.4854010000000  0.4694920000000 1.0
C      1  0.4263060000000  0.5145990000000  0.4694920000000 1.0
C      1  0.4263060000000  0.4854010000000  0.5305080000000 1.0
C      1  0.4854010000000  0.4694920000000  0.5736940000000 1.0
C      1  0.5145990000000  0.5305080000000  0.5736940000000 1.0
C      1  0.5145990000000  0.4694920000000  0.4263060000000 1.0
C      1  0.5655180000000  0.4741300000000  0.4633800000000 1.0
C      1  0.4741300000000  0.4633800000000  0.5655180000000 1.0
C      1  0.4633800000000  0.5655180000000  0.4741300000000 1.0
C      1  0.5655180000000  0.5258700000000  0.5366200000000 1.0
C      1  0.4344820000000  0.4741300000000  0.5366200000000 1.0
C      1  0.4344820000000  0.5258700000000  0.4633800000000 1.0
C      1  0.4741300000000  0.5366200000000  0.4344820000000 1.0
C      1  0.5258700000000  0.4633800000000  0.4344820000000 1.0
C      1  0.5258700000000  0.5366200000000  0.5655180000000 1.0
C      1  0.4633800000000  0.4344820000000  0.5258700000000 1.0
C      1  0.5366200000000  0.5655180000000  0.5258700000000 1.0
C      1  0.5366200000000  0.4344820000000  0.4741300000000 1.0
C      1  0.4344820000000  0.4741300000000  0.4633800000000 1.0
C      1  0.5258700000000  0.4633800000000  0.5655180000000 1.0
C      1  0.5366200000000  0.5655180000000  0.4741300000000 1.0
C      1  0.4344820000000  0.5258700000000  0.5366200000000 1.0
C      1  0.5655180000000  0.4741300000000  0.5366200000000 1.0
C      1  0.5655180000000  0.5258700000000  0.4633800000000 1.0
C      1  0.5258700000000  0.5366200000000  0.4344820000000 1.0
C      1  0.4741300000000  0.4633800000000  0.4344820000000 1.0
C      1  0.4741300000000  0.5366200000000  0.5655180000000 1.0
C      1  0.5366200000000  0.4344820000000  0.5258700000000 1.0
C      1  0.4633800000000  0.5655180000000  0.5258700000000 1.0
C      1  0.4633800000000  0.4344820000000  0.4741300000000 1.0
C      1  0.4704530000000  0.5258870000000  0.4448870000000 1.0
C      1  0.5258870000000  0.4448870000000  0.4704530000000 1.0
C      1  0.4448870000000  0.4704530000000  0.5258870000000 1.0
C      1  0.4704530000000  0.4741130000000  0.5551130000000 1.0
C      1  0.5295470000000  0.5258870000000  0.5551130000000 1.0
C      1  0.5295470000000  0.4741130000000  0.4448870000000 1.0
C      1  0.5258870000000  0.5551130000000  0.5295470000000 1.0
C      1  0.4741130000000  0.4448870000000  0.5295470000000 1.0
C      1  0.4741130000000  0.5551130000000  0.4704530000000 1.0
C      1  0.4448870000000  0.5295470000000  0.4741130000000 1.0
C      1  0.5551130000000  0.4704530000000  0.4741130000000 1.0
C      1  0.5551130000000  0.5295470000000  0.5258870000000 1.0
C      1  0.5295470000000  0.5258870000000  0.4448870000000 1.0
C      1  0.4741130000000  0.4448870000000  0.4704530000000 1.0
C      1  0.5551130000000  0.4704530000000  0.5258870000000 1.0
C      1  0.5295470000000  0.4741130000000  0.5551130000000 1.0
C      1  0.4704530000000  0.5258870000000  0.5551130000000 1.0
C      1  0.4704530000000  0.4741130000000  0.4448870000000 1.0
C      1  0.4741130000000  0.5551130000000  0.5295470000000 1.0
C      1  0.5258870000000  0.4448870000000  0.5295470000000 1.0
C      1  0.5258870000000  0.5551130000000  0.4704530000000 1.0
C      1  0.5551130000000  0.5295470000000  0.4741130000000 1.0
C      1  0.4448870000000  0.4704530000000  0.4741130000000 1.0
C      1  0.4448870000000  0.5295470000000  0.5258870000000 1.0
C      1  0.5130610000000  0.5374110000000  0.4651120000000 1.0
C      1  0.5374110000000  0.4651120000000  0.5130610000000 1.0
C      1  0.4651120000000  0.5130610000000  0.5374110000000 1.0
C      1  0.5130610000000  0.4625890000000  0.5348880000000 1.0
C      1  0.4869390000000  0.5374110000000  0.5348880000000 1.0
C      1  0.4869390000000  0.4625890000000  0.4651120000000 1.0
C      1  0.5374110000000  0.5348880000000  0.4869390000000 1.0
C      1  0.4625890000000  0.4651120000000  0.4869390000000 1.0
C      1  0.4625890000000  0.5348880000000  0.5130610000000 1.0
C      1  0.4651120000000  0.4869390000000  0.4625890000000 1.0
C      1  0.5348880000000  0.5130610000000  0.4625890000000 1.0
C      1  0.5348880000000  0.4869390000000  0.5374110000000 1.0
C      1  0.4869390000000  0.5374110000000  0.4651120000000 1.0
C      1  0.4625890000000  0.4651120000000  0.5130610000000 1.0
C      1  0.5348880000000  0.5130610000000  0.5374110000000 1.0
C      1  0.4869390000000  0.4625890000000  0.5348880000000 1.0
C      1  0.5130610000000  0.5374110000000  0.5348880000000 1.0
C      1  0.5130610000000  0.4625890000000  0.4651120000000 1.0
C      1  0.4625890000000  0.5348880000000  0.4869390000000 1.0
C      1  0.5374110000000  0.4651120000000  0.4869390000000 1.0
C      1  0.5374110000000  0.5348880000000  0.5130610000000 1.0
C      1  0.5348880000000  0.4869390000000  0.4625890000000 1.0
C      1  0.4651120000000  0.5130610000000  0.4625890000000 1.0
C      1  0.4651120000000  0.4869390000000  0.5374110000000 1.0
C      1  0.5435030000000  0.4528800000000  0.5070270000000 1.0
C      1  0.4528800000000  0.5070270000000  0.5435030000000 1.0
C      1  0.5070270000000  0.5435030000000  0.4528800000000 1.0
C      1  0.5435030000000  0.5471200000000  0.4929730000000 1.0
C      1  0.4564970000000  0.4528800000000  0.4929730000000 1.0
C      1  0.4564970000000  0.5471200000000  0.5070270000000 1.0
C      1  0.4528800000000  0.4929730000000  0.4564970000000 1.0
C      1  0.5471200000000  0.5070270000000  0.4564970000000 1.0
C      1  0.5471200000000  0.4929730000000  0.5435030000000 1.0
C      1  0.5070270000000  0.4564970000000  0.5471200000000 1.0
C      1  0.4929730000000  0.5435030000000  0.5471200000000 1.0
C      1  0.4929730000000  0.4564970000000  0.4528800000000 1.0
C      1  0.4564970000000  0.4528800000000  0.5070270000000 1.0
C      1  0.5471200000000  0.5070270000000  0.5435030000000 1.0
C      1  0.4929730000000  0.5435030000000  0.4528800000000 1.0
C      1  0.4564970000000  0.5471200000000  0.4929730000000 1.0
C      1  0.5435030000000  0.4528800000000  0.4929730000000 1.0
C      1  0.5435030000000  0.5471200000000  0.5070270000000 1.0
C      1  0.5471200000000  0.4929730000000  0.4564970000000 1.0
C      1  0.4528800000000  0.5070270000000  0.4564970000000 1.0
C      1  0.4528800000000  0.4929730000000  0.5435030000000 1.0
C      1  0.4929730000000  0.4564970000000  0.5471200000000 1.0
C      1  0.5070270000000  0.5435030000000  0.5471200000000 1.0
C      1  0.5070270000000  0.4564970000000  0.4528800000000 1.0
C      1  0.5574700000000  0.5524820000000  0.5086670000000 1.0
C      1  0.5524820000000  0.5086670000000  0.5574700000000 1.0
C      1  0.5086670000000  0.5574700000000  0.5524820000000 1.0
C      1  0.5574700000000  0.4475180000000  0.4913330000000 1.0
C      1  0.4425300000000  0.5524820000000  0.4913330000000 1.0
C      1  0.4425300000000  0.4475180000000  0.5086670000000 1.0
C      1  0.5524820000000  0.4913330000000  0.4425300000000 1.0
C      1  0.4475180000000  0.5086670000000  0.4425300000000 1.0
C      1  0.4475180000000  0.4913330000000  0.5574700000000 1.0
C      1  0.5086670000000  0.4425300000000  0.4475180000000 1.0
C      1  0.4913330000000  0.5574700000000  0.4475180000000 1.0
C      1  0.4913330000000  0.4425300000000  0.5524820000000 1.0
C      1  0.4425300000000  0.5524820000000  0.5086670000000 1.0
C      1  0.4475180000000  0.5086670000000  0.5574700000000 1.0
C      1  0.4913330000000  0.5574700000000  0.5524820000000 1.0
C      1  0.4425300000000  0.4475180000000  0.4913330000000 1.0
C      1  0.5574700000000  0.5524820000000  0.4913330000000 1.0
C      1  0.5574700000000  0.4475180000000  0.5086670000000 1.0
C      1  0.4475180000000  0.4913330000000  0.4425300000000 1.0
C      1  0.5524820000000  0.5086670000000  0.4425300000000 1.0
C      1  0.5524820000000  0.4913330000000  0.5574700000000 1.0
C      1  0.4913330000000  0.4425300000000  0.4475180000000 1.0
C      1  0.5086670000000  0.5574700000000  0.4475180000000 1.0
C      1  0.5086670000000  0.4425300000000  0.5524820000000 1.0
C      1  0.4196060000000  0.4929600000000  0.4590840000000 1.0
C      1  0.4929600000000  0.4590840000000  0.4196060000000 1.0
C      1  0.4590840000000  0.4196060000000  0.4929600000000 1.0
C      1  0.4196060000000  0.5070400000000  0.5409160000000 1.0
C      1  0.5803940000000  0.4929600000000  0.5409160000000 1.0
C      1  0.5803940000000  0.5070400000000  0.4590840000000 1.0
C      1  0.4929600000000  0.5409160000000  0.5803940000000 1.0
C      1  0.5070400000000  0.4590840000000  0.5803940000000 1.0
C      1  0.5070400000000  0.5409160000000  0.4196060000000 1.0
C      1  0.4590840000000  0.5803940000000  0.5070400000000 1.0
C      1  0.5409160000000  0.4196060000000  0.5070400000000 1.0
C      1  0.5409160000000  0.5803940000000  0.4929600000000 1.0
C      1  0.5803940000000  0.4929600000000  0.4590840000000 1.0
C      1  0.5070400000000  0.4590840000000  0.4196060000000 1.0
C      1  0.5409160000000  0.4196060000000  0.4929600000000 1.0
C      1  0.5803940000000  0.5070400000000  0.5409160000000 1.0
C      1  0.4196060000000  0.4929600000000  0.5409160000000 1.0
C      1  0.4196060000000  0.5070400000000  0.4590840000000 1.0
C      1  0.5070400000000  0.5409160000000  0.5803940000000 1.0
C      1  0.4929600000000  0.4590840000000  0.5803940000000 1.0
C      1  0.4929600000000  0.5409160000000  0.4196060000000 1.0
C      1  0.5409160000000  0.5803940000000  0.5070400000000 1.0
C      1  0.4590840000000  0.4196060000000  0.5070400000000 1.0
C      1  0.4590840000000  0.5803940000000  0.4929600000000 1.0
C      1  0.4772780000000  0.4930800000000  0.5441770000000 1.0
C      1  0.4930800000000  0.5441770000000  0.4772780000000 1.0
C      1  0.5441770000000  0.4772780000000  0.4930800000000 1.0
C      1  0.4772780000000  0.5069200000000  0.4558230000000 1.0
C      1  0.5227220000000  0.4930800000000  0.4558230000000 1.0
C      1  0.5227220000000  0.5069200000000  0.5441770000000 1.0
C      1  0.4930800000000  0.4558230000000  0.5227220000000 1.0
C      1  0.5069200000000  0.5441770000000  0.5227220000000 1.0
C      1  0.5069200000000  0.4558230000000  0.4772780000000 1.0
C      1  0.5441770000000  0.5227220000000  0.5069200000000 1.0
C      1  0.4558230000000  0.4772780000000  0.5069200000000 1.0
C      1  0.4558230000000  0.5227220000000  0.4930800000000 1.0
C      1  0.5227220000000  0.4930800000000  0.5441770000000 1.0
C      1  0.5069200000000  0.5441770000000  0.4772780000000 1.0
C      1  0.4558230000000  0.4772780000000  0.4930800000000 1.0
C      1  0.5227220000000  0.5069200000000  0.4558230000000 1.0
C      1  0.4772780000000  0.4930800000000  0.4558230000000 1.0
C      1  0.4772780000000  0.5069200000000  0.5441770000000 1.0
C      1  0.5069200000000  0.4558230000000  0.5227220000000 1.0
C      1  0.4930800000000  0.5441770000000  0.5227220000000 1.0
C      1  0.4930800000000  0.4558230000000  0.4772780000000 1.0
C      1  0.4558230000000  0.5227220000000  0.5069200000000 1.0
C      1  0.5441770000000  0.4772780000000  0.5069200000000 1.0
C      1  0.5441770000000  0.5227220000000  0.4930800000000 1.0
C      1  0.5422710000000  0.4375390000000  0.4496850000000 1.0
C      1  0.4375390000000  0.4496850000000  0.5422710000000 1.0
C      1  0.4496850000000  0.5422710000000  0.4375390000000 1.0
C      1  0.5422710000000  0.5624610000000  0.5503150000000 1.0
C      1  0.4577290000000  0.4375390000000  0.5503150000000 1.0
C      1  0.4577290000000  0.5624610000000  0.4496850000000 1.0
C      1  0.4375390000000  0.5503150000000  0.4577290000000 1.0
C      1  0.5624610000000  0.4496850000000  0.4577290000000 1.0
C      1  0.5624610000000  0.5503150000000  0.5422710000000 1.0
C      1  0.4496850000000  0.4577290000000  0.5624610000000 1.0
C      1  0.5503150000000  0.5422710000000  0.5624610000000 1.0
C      1  0.5503150000000  0.4577290000000  0.4375390000000 1.0
C      1  0.4577290000000  0.4375390000000  0.4496850000000 1.0
C      1  0.5624610000000  0.4496850000000  0.5422710000000 1.0
C      1  0.5503150000000  0.5422710000000  0.4375390000000 1.0
C      1  0.4577290000000  0.5624610000000  0.5503150000000 1.0
C      1  0.5422710000000  0.4375390000000  0.5503150000000 1.0
C      1  0.5422710000000  0.5624610000000  0.4496850000000 1.0
C      1  0.5624610000000  0.5503150000000  0.4577290000000 1.0
C      1  0.4375390000000  0.4496850000000  0.4577290000000 1.0
C      1  0.4375390000000  0.5503150000000  0.5422710000000 1.0
C      1  0.5503150000000  0.4577290000000  0.5624610000000 1.0
C      1  0.4496850000000  0.5422710000000  0.5624610000000 1.0
C      1  0.4496850000000  0.4577290000000  0.4375390000000 1.0
C      1  0.4929400000000  0.4129580000000  0.5161890000000 1.0
C      1  0.4129580000000  0.5161890000000  0.4929400000000 1.0
C      1  0.5161890000000  0.4929400000000  0.4129580000000 1.0
C      1  0.4929400000000  0.5870420000000  0.4838110000000 1.0
C      1  0.5070600000000  0.4129580000000  0.4838110000000 1.0
C      1  0.5070600000000  0.5870420000000  0.5161890000000 1.0
C      1  0.4129580000000  0.4838110000000  0.5070600000000 1.0
C      1  0.5870420000000  0.5161890000000  0.5070600000000 1.0
C      1  0.5870420000000  0.4838110000000  0.4929400000000 1.0
C      1  0.5161890000000  0.5070600000000  0.5870420000000 1.0
C      1  0.4838110000000  0.4929400000000  0.5870420000000 1.0
C      1  0.4838110000000  0.5070600000000  0.4129580000000 1.0
C      1  0.5070600000000  0.4129580000000  0.5161890000000 1.0
C      1  0.5870420000000  0.5161890000000  0.4929400000000 1.0
C      1  0.4838110000000  0.4929400000000  0.4129580000000 1.0
C      1  0.5070600000000  0.5870420000000  0.4838110000000 1.0
C      1  0.4929400000000  0.4129580000000  0.4838110000000 1.0
C      1  0.4929400000000  0.5870420000000  0.5161890000000 1.0
C      1  0.5870420000000  0.4838110000000  0.5070600000000 1.0
C      1  0.4129580000000  0.5161890000000  0.5070600000000 1.0
C      1  0.4129580000000  0.4838110000000  0.4929400000000 1.0
C      1  0.4838110000000  0.5070600000000  0.5870420000000 1.0
C      1  0.5161890000000  0.4929400000000  0.5870420000000 1.0
C      1  0.5161890000000  0.5070600000000  0.4129580000000 1.0
C      1  0.5189520000000  0.4349240000000  0.4920560000000 1.0
C      1  0.4349240000000  0.4920560000000  0.5189520000000 1.0
C      1  0.4920560000000  0.5189520000000  0.4349240000000 1.0
C      1  0.5189520000000  0.5650760000000  0.5079440000000 1.0
C      1  0.4810480000000  0.4349240000000  0.5079440000000 1.0
C      1  0.4810480000000  0.5650760000000  0.4920560000000 1.0
C      1  0.4349240000000  0.5079440000000  0.4810480000000 1.0
C      1  0.5650760000000  0.4920560000000  0.4810480000000 1.0
C      1  0.5650760000000  0.5079440000000  0.5189520000000 1.0
C      1  0.4920560000000  0.4810480000000  0.5650760000000 1.0
C      1  0.5079440000000  0.5189520000000  0.5650760000000 1.0
C      1  0.5079440000000  0.4810480000000  0.4349240000000 1.0
C      1  0.4810480000000  0.4349240000000  0.4920560000000 1.0
C      1  0.5650760000000  0.4920560000000  0.5189520000000 1.0
C      1  0.5079440000000  0.5189520000000  0.4349240000000 1.0
C      1  0.4810480000000  0.5650760000000  0.5079440000000 1.0
C      1  0.5189520000000  0.4349240000000  0.5079440000000 1.0
C      1  0.5189520000000  0.5650760000000  0.4920560000000 1.0
C      1  0.5650760000000  0.5079440000000  0.4810480000000 1.0
C      1  0.4349240000000  0.4920560000000  0.4810480000000 1.0
C      1  0.4349240000000  0.5079440000000  0.5189520000000 1.0
C      1  0.5079440000000  0.4810480000000  0.5650760000000 1.0
C      1  0.4920560000000  0.5189520000000  0.5650760000000 1.0
C      1  0.4920560000000  0.4810480000000  0.4349240000000 1.0
C      1  0.4589560000000  0.4467850000000  0.5608680000000 1.0
C      1  0.4467850000000  0.5608680000000  0.4589560000000 1.0
C      1  0.5608680000000  0.4589560000000  0.4467850000000 1.0
C      1  0.4589560000000  0.5532150000000  0.4391320000000 1.0
C      1  0.5410440000000  0.4467850000000  0.4391320000000 1.0
C      1  0.5410440000000  0.5532150000000  0.5608680000000 1.0
C      1  0.4467850000000  0.4391320000000  0.5410440000000 1.0
C      1  0.5532150000000  0.5608680000000  0.5410440000000 1.0
C      1  0.5532150000000  0.4391320000000  0.4589560000000 1.0
C      1  0.5608680000000  0.5410440000000  0.5532150000000 1.0
C      1  0.4391320000000  0.4589560000000  0.5532150000000 1.0
C      1  0.4391320000000  0.5410440000000  0.4467850000000 1.0
C      1  0.5410440000000  0.4467850000000  0.5608680000000 1.0
C      1  0.5532150000000  0.5608680000000  0.4589560000000 1.0
C      1  0.4391320000000  0.4589560000000  0.4467850000000 1.0
C      1  0.5410440000000  0.5532150000000  0.4391320000000 1.0
C      1  0.4589560000000  0.4467850000000  0.4391320000000 1.0
C      1  0.4589560000000  0.5532150000000  0.5608680000000 1.0
C      1  0.5532150000000  0.4391320000000  0.5410440000000 1.0
C      1  0.4467850000000  0.5608680000000  0.5410440000000 1.0
C      1  0.4467850000000  0.4391320000000  0.4589560000000 1.0
C      1  0.4391320000000  0.5410440000000  0.5532150000000 1.0
C      1  0.5608680000000  0.4589560000000  0.5532150000000 1.0
C      1  0.5608680000000  0.5410440000000  0.4467850000000 1.0
C      1  0.5374920000000  0.5072560000000  0.5752920000000 1.0
C      1  0.5072560000000  0.5752920000000  0.5374920000000 1.0
C      1  0.5752920000000  0.5374920000000  0.5072560000000 1.0
C      1  0.5374920000000  0.4927440000000  0.4247080000000 1.0
C      1  0.4625080000000  0.5072560000000  0.4247080000000 1.0
C      1  0.4625080000000  0.4927440000000  0.5752920000000 1.0
C      1  0.5072560000000  0.4247080000000  0.4625080000000 1.0
C      1  0.4927440000000  0.5752920000000  0.4625080000000 1.0
C      1  0.4927440000000  0.4247080000000  0.5374920000000 1.0
C      1  0.5752920000000  0.4625080000000  0.4927440000000 1.0
C      1  0.4247080000000  0.5374920000000  0.4927440000000 1.0
C      1  0.4247080000000  0.4625080000000  0.5072560000000 1.0
C      1  0.4625080000000  0.5072560000000  0.5752920000000 1.0
C      1  0.4927440000000  0.5752920000000  0.5374920000000 1.0
C      1  0.4247080000000  0.5374920000000  0.5072560000000 1.0
C      1  0.4625080000000  0.4927440000000  0.4247080000000 1.0
C      1  0.5374920000000  0.5072560000000  0.4247080000000 1.0
C      1  0.5374920000000  0.4927440000000  0.5752920000000 1.0
C      1  0.4927440000000  0.4247080000000  0.4625080000000 1.0
C      1  0.5072560000000  0.5752920000000  0.4625080000000 1.0
C      1  0.5072560000000  0.4247080000000  0.5374920000000 1.0
C      1  0.4247080000000  0.4625080000000  0.4927440000000 1.0
C      1  0.5752920000000  0.5374920000000  0.4927440000000 1.0
C      1  0.5752920000000  0.4625080000000  0.5072560000000 1.0
C      1  0.5166820000000  0.5650030000000  0.5423390000000 1.0
C      1  0.5650030000000  0.5423390000000  0.5166820000000 1.0
C      1  0.5423390000000  0.5166820000000  0.5650030000000 1.0
C      1  0.5166820000000  0.4349970000000  0.4576610000000 1.0
C      1  0.4833180000000  0.5650030000000  0.4576610000000 1.0
C      1  0.4833180000000  0.4349970000000  0.5423390000000 1.0
C      1  0.5650030000000  0.4576610000000  0.4833180000000 1.0
C      1  0.4349970000000  0.5423390000000  0.4833180000000 1.0
C      1  0.4349970000000  0.4576610000000  0.5166820000000 1.0
C      1  0.5423390000000  0.4833180000000  0.4349970000000 1.0
C      1  0.4576610000000  0.5166820000000  0.4349970000000 1.0
C      1  0.4576610000000  0.4833180000000  0.5650030000000 1.0
C      1  0.4833180000000  0.5650030000000  0.5423390000000 1.0
C      1  0.4349970000000  0.5423390000000  0.5166820000000 1.0
C      1  0.4576610000000  0.5166820000000  0.5650030000000 1.0
C      1  0.4833180000000  0.4349970000000  0.4576610000000 1.0
C      1  0.5166820000000  0.5650030000000  0.4576610000000 1.0
C      1  0.5166820000000  0.4349970000000  0.5423390000000 1.0
C      1  0.4349970000000  0.4576610000000  0.4833180000000 1.0
C      1  0.5650030000000  0.5423390000000  0.4833180000000 1.0
C      1  0.5650030000000  0.4576610000000  0.5166820000000 1.0
C      1  0.4576610000000  0.4833180000000  0.4349970000000 1.0
C      1  0.5423390000000  0.5166820000000  0.4349970000000 1.0
C      1  0.5423390000000  0.4833180000000  0.5650030000000 1.0
C      1  0.5704870000000  0.5468280000000  0.4690990000000 1.0
C      1  0.5468280000000  0.4690990000000  0.5704870000000 1.0
C      1  0.4690990000000  0.5704870000000  0.5468280000000 1.0
C      1  0.5704870000000  0.4531720000000  0.5309010000000 1.0
C      1  0.4295130000000  0.5468280000000  0.5309010000000 1.0
C      1  0.4295130000000  0.4531720000000  0.4690990000000 1.0
C      1  0.5468280000000  0.5309010000000  0.4295130000000 1.0
C      1  0.4531720000000  0.4690990000000  0.4295130000000 1.0
C      1  0.4531720000000  0.5309010000000  0.5704870000000 1.0
C      1  0.4690990000000  0.4295130000000  0.4531720000000 1.0
C      1  0.5309010000000  0.5704870000000  0.4531720000000 1.0
C      1  0.5309010000000  0.4295130000000  0.5468280000000 1.0
C      1  0.4295130000000  0.5468280000000  0.4690990000000 1.0
C      1  0.4531720000000  0.4690990000000  0.5704870000000 1.0
C      1  0.5309010000000  0.5704870000000  0.5468280000000 1.0
C      1  0.4295130000000  0.4531720000000  0.5309010000000 1.0
C      1  0.5704870000000  0.5468280000000  0.5309010000000 1.0
C      1  0.5704870000000  0.4531720000000  0.4690990000000 1.0
C      1  0.4531720000000  0.5309010000000  0.4295130000000 1.0
C      1  0.5468280000000  0.4690990000000  0.4295130000000 1.0
C      1  0.5468280000000  0.5309010000000  0.5704870000000 1.0
C      1  0.5309010000000  0.4295130000000  0.4531720000000 1.0
C      1  0.4690990000000  0.5704870000000  0.4531720000000 1.0
C      1  0.4690990000000  0.4295130000000  0.5468280000000 1.0
C      1  0.5547450000000  0.4236480000000  0.5071750000000 1.0
C      1  0.4236480000000  0.5071750000000  0.5547450000000 1.0
C      1  0.5071750000000  0.5547450000000  0.4236480000000 1.0
C      1  0.5547450000000  0.5763520000000  0.4928250000000 1.0
C      1  0.4452550000000  0.4236480000000  0.4928250000000 1.0
C      1  0.4452550000000  0.5763520000000  0.5071750000000 1.0
C      1  0.4236480000000  0.4928250000000  0.4452550000000 1.0
C      1  0.5763520000000  0.5071750000000  0.4452550000000 1.0
C      1  0.5763520000000  0.4928250000000  0.5547450000000 1.0
C      1  0.5071750000000  0.4452550000000  0.5763520000000 1.0
C      1  0.4928250000000  0.5547450000000  0.5763520000000 1.0
C      1  0.4928250000000  0.4452550000000  0.4236480000000 1.0
C      1  0.4452550000000  0.4236480000000  0.5071750000000 1.0
C      1  0.5763520000000  0.5071750000000  0.5547450000000 1.0
C      1  0.4928250000000  0.5547450000000  0.4236480000000 1.0
C      1  0.4452550000000  0.5763520000000  0.4928250000000 1.0
C      1  0.5547450000000  0.4236480000000  0.4928250000000 1.0
C      1  0.5547450000000  0.5763520000000  0.5071750000000 1.0
C      1  0.5763520000000  0.4928250000000  0.4452550000000 1.0
C      1  0.4236480000000  0.5071750000000  0.4452550000000 1.0
C      1  0.4236480000000  0.4928250000000  0.5547450000000 1.0
C      1  0.4928250000000  0.4452550000000  0.5763520000000 1.0
C      1  0.5071750000000  0.5547450000000  0.5763520000000 1.0
C      1  0.5071750000000  0.4452550000000  0.4236480000000 1.0
C      1  0.4149260000000  0.4713140000000  0.5133400000000 1.0
C      1  0.4713140000000  0.5133400000000  0.4149260000000 1.0
C      1  0.5133400000000  0.4149260000000  0.4713140000000 1.0
C      1  0.4149260000000  0.5286860000000  0.4866600000000 1.0
C      1  0.5850740000000  0.4713140000000  0.4866600000000 1.0
C      1  0.5850740000000  0.5286860000000  0.5133400000000 1.0
C      1  0.4713140000000  0.4866600000000  0.5850740000000 1.0
C      1  0.5286860000000  0.5133400000000  0.5850740000000 1.0
C      1  0.5286860000000  0.4866600000000  0.4149260000000 1.0
C      1  0.5133400000000  0.5850740000000  0.5286860000000 1.0
C      1  0.4866600000000  0.4149260000000  0.5286860000000 1.0
C      1  0.4866600000000  0.5850740000000  0.4713140000000 1.0
C      1  0.5850740000000  0.4713140000000  0.5133400000000 1.0
C      1  0.5286860000000  0.5133400000000  0.4149260000000 1.0
C      1  0.4866600000000  0.4149260000000  0.4713140000000 1.0
C      1  0.5850740000000  0.5286860000000  0.4866600000000 1.0
C      1  0.4149260000000  0.4713140000000  0.4866600000000 1.0
C      1  0.4149260000000  0.5286860000000  0.5133400000000 1.0
C      1  0.5286860000000  0.4866600000000  0.5850740000000 1.0
C      1  0.4713140000000  0.5133400000000  0.5850740000000 1.0
C      1  0.4713140000000  0.4866600000000  0.4149260000000 1.0
C      1  0.4866600000000  0.5850740000000  0.5286860000000 1.0
C      1  0.5133400000000  0.4149260000000  0.5286860000000 1.0
C      1  0.5133400000000  0.5850740000000  0.4713140000000 1.0
C      1  0.4419620000000  0.5656130000000  0.4845710000000 1.0
C      1  0.5656130000000  0.4845710000000  0.4419620000000 1.0
C      1  0.4845710000000  0.4419620000000  0.5656130000000 1.0
C      1  0.4419620000000  0.4343870000000  0.5154290000000 1.0
C      1  0.5580380000000  0.5656130000000  0.5154290000000 1.0
C      1  0.5580380000000  0.4343870000000  0.4845710000000 1.0
C      1  0.5656130000000  0.5154290000000  0.5580380000000 1.0
C      1  0.4343870000000  0.4845710000000  0.5580380000000 1.0
C      1  0.4343870000000  0.5154290000000  0.4419620000000 1.0
C      1  0.4845710000000  0.5580380000000  0.4343870000000 1.0
C      1  0.5154290000000  0.4419620000000  0.4343870000000 1.0
C      1  0.5154290000000  0.5580380000000  0.5656130000000 1.0
C      1  0.5580380000000  0.5656130000000  0.4845710000000 1.0
C      1  0.4343870000000  0.4845710000000  0.4419620000000 1.0
C      1  0.5154290000000  0.4419620000000  0.5656130000000 1.0
C      1  0.5580380000000  0.4343870000000  0.5154290000000 1.0
C      1  0.4419620000000  0.5656130000000  0.5154290000000 1.0
C      1  0.4419620000000  0.4343870000000  0.4845710000000 1.0
C      1  0.4343870000000  0.5154290000000  0.5580380000000 1.0
C      1  0.5656130000000  0.4845710000000  0.5580380000000 1.0
C      1  0.5656130000000  0.5154290000000  0.4419620000000 1.0
C      1  0.5154290000000  0.5580380000000  0.4343870000000 1.0
C      1  0.4845710000000  0.4419620000000  0.4343870000000 1.0
C      1  0.4845710000000  0.5580380000000  0.5656130000000 1.0
C      1  0.5352180000000  0.4718130000000  0.4591960000000 1.0
C      1  0.4718130000000  0.4591960000000  0.5352180000000 1.0
C      1  0.4591960000000  0.5352180000000  0.4718130000000 1.0
C      1  0.5352180000000  0.5281870000000  0.5408040000000 1.0
C      1  0.4647820000000  0.4718130000000  0.5408040000000 1.0
C      1  0.4647820000000  0.5281870000000  0.4591960000000 1.0
C      1  0.4718130000000  0.5408040000000  0.4647820000000 1.0
C      1  0.5281870000000  0.4591960000000  0.4647820000000 1.0
C      1  0.5281870000000  0.5408040000000  0.5352180000000 1.0
C      1  0.4591960000000  0.4647820000000  0.5281870000000 1.0
C      1  0.5408040000000  0.5352180000000  0.5281870000000 1.0
C      1  0.5408040000000  0.4647820000000  0.4718130000000 1.0
C      1  0.4647820000000  0.4718130000000  0.4591960000000 1.0
C      1  0.5281870000000  0.4591960000000  0.5352180000000 1.0
C      1  0.5408040000000  0.5352180000000  0.4718130000000 1.0
C      1  0.4647820000000  0.5281870000000  0.5408040000000 1.0
C      1  0.5352180000000  0.4718130000000  0.5408040000000 1.0
C      1  0.5352180000000  0.5281870000000  0.4591960000000 1.0
C      1  0.5281870000000  0.5408040000000  0.4647820000000 1.0
C      1  0.4718130000000  0.4591960000000  0.4647820000000 1.0
C      1  0.4718130000000  0.5408040000000  0.5352180000000 1.0
C      1  0.5408040000000  0.4647820000000  0.5281870000000 1.0
C      1  0.4591960000000  0.5352180000000  0.5281870000000 1.0
C      1  0.4591960000000  0.4647820000000  0.4718130000000 1.0
C      1  0.5517330000000  0.4838290000000  0.4816730000000 1.0
C      1  0.4838290000000  0.4816730000000  0.5517330000000 1.0
C      1  0.4816730000000  0.5517330000000  0.4838290000000 1.0
C      1  0.5517330000000  0.5161710000000  0.5183270000000 1.0
C      1  0.4482670000000  0.4838290000000  0.5183270000000 1.0
C      1  0.4482670000000  0.5161710000000  0.4816730000000 1.0
C      1  0.4838290000000  0.5183270000000  0.4482670000000 1.0
C      1  0.5161710000000  0.4816730000000  0.4482670000000 1.0
C      1  0.5161710000000  0.5183270000000  0.5517330000000 1.0
C      1  0.4816730000000  0.4482670000000  0.5161710000000 1.0
C      1  0.5183270000000  0.5517330000000  0.5161710000000 1.0
C      1  0.5183270000000  0.4482670000000  0.4838290000000 1.0
C      1  0.4482670000000  0.4838290000000  0.4816730000000 1.0
C      1  0.5161710000000  0.4816730000000  0.5517330000000 1.0
C      1  0.5183270000000  0.5517330000000  0.4838290000000 1.0
C      1  0.4482670000000  0.5161710000000  0.5183270000000 1.0
C      1  0.5517330000000  0.4838290000000  0.5183270000000 1.0
C      1  0.5517330000000  0.5161710000000  0.4816730000000 1.0
C      1  0.5161710000000  0.5183270000000  0.4482670000000 1.0
C      1  0.4838290000000  0.4816730000000  0.4482670000000 1.0
C      1  0.4838290000000  0.5183270000000  0.5517330000000 1.0
C      1  0.5183270000000  0.4482670000000  0.5161710000000 1.0
C      1  0.4816730000000  0.5517330000000  0.5161710000000 1.0
C      1  0.4816730000000  0.4482670000000  0.4838290000000 1.0
C      1  0.4491480000000  0.4343660000000  0.4721020000000 1.0
C      1  0.4343660000000  0.4721020000000  0.4491480000000 1.0
C      1  0.4721020000000  0.4491480000000  0.4343660000000 1.0
C      1  0.4491480000000  0.5656340000000  0.5278980000000 1.0
C      1  0.5508520000000  0.4343660000000  0.5278980000000 1.0
C      1  0.5508520000000  0.5656340000000  0.4721020000000 1.0
C      1  0.4343660000000  0.5278980000000  0.5508520000000 1.0
C      1  0.5656340000000  0.4721020000000  0.5508520000000 1.0
C      1  0.5656340000000  0.5278980000000  0.4491480000000 1.0
C      1  0.4721020000000  0.5508520000000  0.5656340000000 1.0
C      1  0.5278980000000  0.4491480000000  0.5656340000000 1.0
C      1  0.5278980000000  0.5508520000000  0.4343660000000 1.0
C      1  0.5508520000000  0.4343660000000  0.4721020000000 1.0
C      1  0.5656340000000  0.4721020000000  0.4491480000000 1.0
C      1  0.5278980000000  0.4491480000000  0.4343660000000 1.0
C      1  0.5508520000000  0.5656340000000  0.5278980000000 1.0
C      1  0.4491480000000  0.4343660000000  0.5278980000000 1.0
C      1  0.4491480000000  0.5656340000000  0.4721020000000 1.0
C      1  0.5656340000000  0.5278980000000  0.5508520000000 1.0
C      1  0.4343660000000  0.4721020000000  0.5508520000000 1.0
C      1  0.4343660000000  0.5278980000000  0.4491480000000 1.0
C      1  0.5278980000000  0.5508520000000  0.5656340000000 1.0
C      1  0.4721020000000  0.4491480000000  0.5656340000000 1.0
C      1  0.4721020000000  0.5508520000000  0.4343660000000 1.0
C      1  0.5073320000000  0.4751080000000  0.5413790000000 1.0
C      1  0.4751080000000  0.5413790000000  0.5073320000000 1.0
C      1  0.5413790000000  0.5073320000000  0.4751080000000 1.0
C      1  0.5073320000000  0.5248920000000  0.4586210000000 1.0
C      1  0.4926680000000  0.4751080000000  0.4586210000000 1.0
C      1  0.4926680000000  0.5248920000000  0.5413790000000 1.0
C      1  0.4751080000000  0.4586210000000  0.4926680000000 1.0
C      1  0.5248920000000  0.5413790000000  0.4926680000000 1.0
C      1  0.5248920000000  0.4586210000000  0.5073320000000 1.0
C      1  0.5413790000000  0.4926680000000  0.5248920000000 1.0
C      1  0.4586210000000  0.5073320000000  0.5248920000000 1.0
C      1  0.4586210000000  0.4926680000000  0.4751080000000 1.0
C      1  0.4926680000000  0.4751080000000  0.5413790000000 1.0
C      1  0.5248920000000  0.5413790000000  0.5073320000000 1.0
C      1  0.4586210000000  0.5073320000000  0.4751080000000 1.0
C      1  0.4926680000000  0.5248920000000  0.4586210000000 1.0
C      1  0.5073320000000  0.4751080000000  0.4586210000000 1.0
C      1  0.5073320000000  0.5248920000000  0.5413790000000 1.0
C      1  0.5248920000000  0.4586210000000  0.4926680000000 1.0
C      1  0.4751080000000  0.5413790000000  0.4926680000000 1.0
C      1  0.4751080000000  0.4586210000000  0.5073320000000 1.0
C      1  0.4586210000000  0.4926680000000  0.5248920000000 1.0
C      1  0.5413790000000  0.5073320000000  0.5248920000000 1.0
C      1  0.5413790000000  0.4926680000000  0.4751080000000 1.0
C      1  0.4165820000000  0.4739070000000  0.4733570000000 1.0
C      1  0.4739070000000  0.4733570000000  0.4165820000000 1.0
C      1  0.4733570000000  0.4165820000000  0.4739070000000 1.0
C      1  0.4165820000000  0.5260930000000  0.5266430000000 1.0
C      1  0.5834180000000  0.4739070000000  0.5266430000000 1.0
C      1  0.5834180000000  0.5260930000000  0.4733570000000 1.0
C      1  0.4739070000000  0.5266430000000  0.5834180000000 1.0
C      1  0.5260930000000  0.4733570000000  0.5834180000000 1.0
C      1  0.5260930000000  0.5266430000000  0.4165820000000 1.0
C      1  0.4733570000000  0.5834180000000  0.5260930000000 1.0
C      1  0.5266430000000  0.4165820000000  0.5260930000000 1.0
C      1  0.5266430000000  0.5834180000000  0.4739070000000 1.0
C      1  0.5834180000000  0.4739070000000  0.4733570000000 1.0
C      1  0.5260930000000  0.4733570000000  0.4165820000000 1.0
C      1  0.5266430000000  0.4165820000000  0.4739070000000 1.0
C      1  0.5834180000000  0.5260930000000  0.5266430000000 1.0
C      1  0.4165820000000  0.4739070000000  0.5266430000000 1.0
C      1  0.4165820000000  0.5260930000000  0.4733570000000 1.0
C      1  0.5260930000000  0.5266430000000  0.5834180000000 1.0
C      1  0.4739070000000  0.4733570000000  0.5834180000000 1.0
C      1  0.4739070000000  0.5266430000000  0.4165820000000 1.0
C      1  0.5266430000000  0.5834180000000  0.5260930000000 1.0
C      1  0.4733570000000  0.4165820000000  0.5260930000000 1.0
C      1  0.4733570000000  0.5834180000000  0.4739070000000 1.0
C      1  0.4229420000000  0.5353930000000  0.4652600000000 1.0
C      1  0.5353930000000  0.4652600000000  0.4229420000000 1.0
C      1  0.4652600000000  0.4229420000000  0.5353930000000 1.0
C      1  0.4229420000000  0.4646070000000  0.5347400000000 1.0
C      1  0.5770580000000  0.5353930000000  0.5347400000000 1.0
C      1  0.5770580000000  0.4646070000000  0.4652600000000 1.0
C      1  0.5353930000000  0.5347400000000  0.5770580000000 1.0
C      1  0.4646070000000  0.4652600000000  0.5770580000000 1.0
C      1  0.4646070000000  0.5347400000000  0.4229420000000 1.0
C      1  0.4652600000000  0.5770580000000  0.4646070000000 1.0
C      1  0.5347400000000  0.4229420000000  0.4646070000000 1.0
C      1  0.5347400000000  0.5770580000000  0.5353930000000 1.0
C      1  0.5770580000000  0.5353930000000  0.4652600000000 1.0
C      1  0.4646070000000  0.4652600000000  0.4229420000000 1.0
C      1  0.5347400000000  0.4229420000000  0.5353930000000 1.0
C      1  0.5770580000000  0.4646070000000  0.5347400000000 1.0
C      1  0.4229420000000  0.5353930000000  0.5347400000000 1.0
C      1  0.4229420000000  0.4646070000000  0.4652600000000 1.0
C      1  0.4646070000000  0.5347400000000  0.5770580000000 1.0
C      1  0.5353930000000  0.4652600000000  0.5770580000000 1.0
C      1  0.5353930000000  0.5347400000000  0.4229420000000 1.0
C      1  0.5347400000000  0.5770580000000  0.4646070000000 1.0
C      1  0.4652600000000  0.4229420000000  0.4646070000000 1.0
C      1  0.4652600000000  0.5770580000000  0.5353930000000 1.0
END
