TITL C-1379267-1329-298 1.38099843509078e-07 1000000 -3803.72993596121 0 0 520 (C1) n - 1
REM
REM in /nfs/bkarasulu/CARBON/AIRSS/Generating-Clusters/GAP-ML-2020/Higher-Symm/Selected-Sizes/TryA-Only_Ih-Symm/Larger-Clusters/Try2-MINAMP_6A
REM
REM
REM
REM
REM
REM ./C.cell (31579ac4e95a012ec27f3239692ae8a5)
REM
REM compiler GCC version 9.2.1 20190827 (Red Hat 9.2.1-1)
REM options -cpp -mtune=generic -march=x86-64 -g -O0 -fpre-include=/usr/include/finclude/math-vector-fortran.h
REM seed -797142720 118014908 1022193005 1099120733 -1780177934 1238940278 1253130335 763060638 -1853824495 617209130 -378018031 1258166583 -954348875 1581401471 1320567343 1974115030 -391157864 63923790 350665901 663839955 596465020 844817544 1329619204 1626562504 -1265977476 1146439638 -1904564061 847494929 -409034618 1818414720 -134406557 2050701317 -421425328
REM
CELL 1.54180  100.00000  100.00000  100.00000   90.00000   90.00000   90.00000
LATT -1
SFAC C  
C      1  0.5161350000000  0.4953440000000  0.4206600000000 1.0
C      1  0.4216680000000  0.5163930000000  0.4936770000000 1.0
C      1  0.4953510000000  0.4203880000000  0.5159810000000 1.0
C      1  0.4844730000000  0.5043920000000  0.4196040000000 1.0
C      1  0.4848330000000  0.4958190000000  0.5802130000000 1.0
C      1  0.5159870000000  0.5044320000000  0.5795710000000 1.0
C      1  0.5803750000000  0.4842500000000  0.4952690000000 1.0
C      1  0.5793610000000  0.5154820000000  0.5056700000000 1.0
C      1  0.4215180000000  0.4844210000000  0.5065610000000 1.0
C      1  0.5053890000000  0.5795690000000  0.5166410000000 1.0
C      1  0.5048340000000  0.4213110000000  0.4829640000000 1.0
C      1  0.4953250000000  0.5797100000000  0.4840190000000 1.0
C      1  0.4953990000000  0.5155170000000  0.4201700000000 1.0
C      1  0.5164930000000  0.4222180000000  0.4940720000000 1.0
C      1  0.4211940000000  0.4968510000000  0.5167730000000 1.0
C      1  0.5053580000000  0.4840510000000  0.4200520000000 1.0
C      1  0.4954530000000  0.4843050000000  0.5802740000000 1.0
C      1  0.5056710000000  0.5163270000000  0.5796430000000 1.0
C      1  0.4846550000000  0.5803660000000  0.4954190000000 1.0
C      1  0.5160640000000  0.5787630000000  0.5052350000000 1.0
C      1  0.4843530000000  0.4198780000000  0.5046370000000 1.0
C      1  0.5796720000000  0.5045820000000  0.5168770000000 1.0
C      1  0.4212030000000  0.5039740000000  0.4834680000000 1.0
C      1  0.5800720000000  0.4950780000000  0.4838930000000 1.0
C      1  0.5311310000000  0.5053400000000  0.4592150000000 1.0
C      1  0.4583530000000  0.5327300000000  0.5049240000000 1.0
C      1  0.5049100000000  0.4582120000000  0.5318220000000 1.0
C      1  0.4674080000000  0.4936240000000  0.4570070000000 1.0
C      1  0.4680790000000  0.5065480000000  0.5426480000000 1.0
C      1  0.5327150000000  0.4928940000000  0.5426880000000 1.0
C      1  0.5443060000000  0.4661290000000  0.5071050000000 1.0
C      1  0.5423620000000  0.5323940000000  0.4932470000000 1.0
C      1  0.4580580000000  0.4677820000000  0.4954190000000 1.0
C      1  0.4932470000000  0.5421230000000  0.5322120000000 1.0
C      1  0.4919800000000  0.4580120000000  0.4679530000000 1.0
C      1  0.5048170000000  0.5420730000000  0.4680460000000 1.0
C      1  0.5046560000000  0.5317640000000  0.4582330000000 1.0
C      1  0.5323820000000  0.4580750000000  0.5069720000000 1.0
C      1  0.4580870000000  0.5074180000000  0.5324830000000 1.0
C      1  0.4924110000000  0.4675660000000  0.4576620000000 1.0
C      1  0.5049080000000  0.4683070000000  0.5418820000000 1.0
C      1  0.4939480000000  0.5317750000000  0.5417250000000 1.0
C      1  0.4665780000000  0.5442940000000  0.5062750000000 1.0
C      1  0.5321200000000  0.5423890000000  0.4937190000000 1.0
C      1  0.4664040000000  0.4562830000000  0.4944020000000 1.0
C      1  0.5434440000000  0.4927310000000  0.5331040000000 1.0
C      1  0.4577010000000  0.4929250000000  0.4674670000000 1.0
C      1  0.5417380000000  0.5051920000000  0.4688340000000 1.0
C      1  0.5016240000000  0.4080000000000  0.5097090000000 1.0
C      1  0.5108810000000  0.5004370000000  0.4073400000000 1.0
C      1  0.4085040000000  0.5108080000000  0.4993250000000 1.0
C      1  0.5012020000000  0.5927900000000  0.5103570000000 1.0
C      1  0.5009660000000  0.4079880000000  0.4892360000000 1.0
C      1  0.5013150000000  0.5926560000000  0.4896750000000 1.0
C      1  0.4907100000000  0.4996210000000  0.4066080000000 1.0
C      1  0.4907930000000  0.5010630000000  0.5931390000000 1.0
C      1  0.5105890000000  0.4998410000000  0.5929410000000 1.0
C      1  0.5932700000000  0.4904190000000  0.5005360000000 1.0
C      1  0.5924460000000  0.5102740000000  0.5002320000000 1.0
C      1  0.4084000000000  0.4901480000000  0.5009390000000 1.0
C      1  0.4085010000000  0.5016250000000  0.5100170000000 1.0
C      1  0.5008520000000  0.5101940000000  0.4070770000000 1.0
C      1  0.5113500000000  0.4089020000000  0.4995070000000 1.0
C      1  0.5931010000000  0.5001450000000  0.5107840000000 1.0
C      1  0.4084650000000  0.4993310000000  0.4902430000000 1.0
C      1  0.5929040000000  0.5006120000000  0.4899810000000 1.0
C      1  0.5007740000000  0.4898390000000  0.4068250000000 1.0
C      1  0.5005480000000  0.4901220000000  0.5933620000000 1.0
C      1  0.5008760000000  0.5108380000000  0.5930230000000 1.0
C      1  0.4912710000000  0.5931290000000  0.5003580000000 1.0
C      1  0.5112570000000  0.5921380000000  0.4997070000000 1.0
C      1  0.4912030000000  0.4072280000000  0.4994070000000 1.0
C      1  0.4484890000000  0.5452610000000  0.5606240000000 1.0
C      1  0.5679540000000  0.4465490000000  0.5424340000000 1.0
C      1  0.5429460000000  0.5655180000000  0.4496410000000 1.0
C      1  0.5539100000000  0.4578680000000  0.5596100000000 1.0
C      1  0.5516170000000  0.5429380000000  0.4435300000000 1.0
C      1  0.4475850000000  0.4557800000000  0.4389640000000 1.0
C      1  0.4384500000000  0.5574830000000  0.5409840000000 1.0
C      1  0.4378080000000  0.4436400000000  0.4589060000000 1.0
C      1  0.5618150000000  0.5563050000000  0.4622440000000 1.0
C      1  0.4564450000000  0.4338720000000  0.4462390000000 1.0
C      1  0.4571430000000  0.5673900000000  0.5535040000000 1.0
C      1  0.5459120000000  0.4377420000000  0.5482670000000 1.0
C      1  0.5432670000000  0.4477810000000  0.5578920000000 1.0
C      1  0.4473090000000  0.5682750000000  0.5433140000000 1.0
C      1  0.5619420000000  0.5453530000000  0.4529260000000 1.0
C      1  0.4587890000000  0.5556310000000  0.5615070000000 1.0
C      1  0.5413620000000  0.5534650000000  0.4421180000000 1.0
C      1  0.4577670000000  0.4453780000000  0.4378000000000 1.0
C      1  0.5574470000000  0.4376060000000  0.5395740000000 1.0
C      1  0.4466070000000  0.4328770000000  0.4564660000000 1.0
C      1  0.5526710000000  0.5667370000000  0.4598580000000 1.0
C      1  0.4373200000000  0.4538460000000  0.4488450000000 1.0
C      1  0.5661810000000  0.4563330000000  0.5524100000000 1.0
C      1  0.4379950000000  0.5472920000000  0.5510690000000 1.0
C      1  0.4613670000000  0.5028970000000  0.5777370000000 1.0
C      1  0.5788960000000  0.4604810000000  0.5013450000000 1.0
C      1  0.5005870000000  0.5760720000000  0.4601870000000 1.0
C      1  0.5395380000000  0.4976760000000  0.5764140000000 1.0
C      1  0.5395330000000  0.5016310000000  0.4245280000000 1.0
C      1  0.4607720000000  0.4978600000000  0.4219200000000 1.0
C      1  0.4263300000000  0.5406400000000  0.4982650000000 1.0
C      1  0.4259740000000  0.4601150000000  0.5019290000000 1.0
C      1  0.5758560000000  0.5390010000000  0.5016630000000 1.0
C      1  0.4979900000000  0.4260170000000  0.4589320000000 1.0
C      1  0.5001640000000  0.5763210000000  0.5406150000000 1.0
C      1  0.4993110000000  0.4249220000000  0.5399790000000 1.0
C      1  0.5013300000000  0.4604860000000  0.5765460000000 1.0
C      1  0.4608330000000  0.5788400000000  0.5018220000000 1.0
C      1  0.5752280000000  0.4990910000000  0.4601000000000 1.0
C      1  0.5003960000000  0.5398030000000  0.5746210000000 1.0
C      1  0.5012420000000  0.5390870000000  0.4238710000000 1.0
C      1  0.4998850000000  0.4604960000000  0.4225730000000 1.0
C      1  0.5405580000000  0.4269350000000  0.4984430000000 1.0
C      1  0.4603390000000  0.4216560000000  0.4982760000000 1.0
C      1  0.5398460000000  0.5752380000000  0.4999820000000 1.0
C      1  0.4247360000000  0.4953320000000  0.4595350000000 1.0
C      1  0.5758810000000  0.4989090000000  0.5408440000000 1.0
C      1  0.4249740000000  0.5055420000000  0.5406310000000 1.0
C      1  0.4720200000000  0.4604970000000  0.4250270000000 1.0
C      1  0.4247380000000  0.4681300000000  0.4639380000000 1.0
C      1  0.4618490000000  0.4207640000000  0.4712290000000 1.0
C      1  0.5281770000000  0.5388450000000  0.4286050000000 1.0
C      1  0.5284990000000  0.4603250000000  0.5720880000000 1.0
C      1  0.4731640000000  0.5403090000000  0.5735350000000 1.0
C      1  0.5808700000000  0.5373890000000  0.4647980000000 1.0
C      1  0.5793000000000  0.4720560000000  0.5389240000000 1.0
C      1  0.4252650000000  0.5328670000000  0.5362380000000 1.0
C      1  0.5370600000000  0.5794810000000  0.4734960000000 1.0
C      1  0.5441320000000  0.4249650000000  0.5238310000000 1.0
C      1  0.4629480000000  0.5802540000000  0.5288140000000 1.0
C      1  0.4612970000000  0.4706420000000  0.4253360000000 1.0
C      1  0.4717570000000  0.4217590000000  0.4611030000000 1.0
C      1  0.4267230000000  0.4587800000000  0.4747800000000 1.0
C      1  0.5390030000000  0.5284800000000  0.4291310000000 1.0
C      1  0.4623180000000  0.5301880000000  0.5737240000000 1.0
C      1  0.5389650000000  0.4710160000000  0.5726440000000 1.0
C      1  0.5274370000000  0.5792020000000  0.4629970000000 1.0
C      1  0.4729200000000  0.5794740000000  0.5390140000000 1.0
C      1  0.5372330000000  0.4203650000000  0.5347030000000 1.0
C      1  0.5765420000000  0.5433580000000  0.4762640000000 1.0
C      1  0.4272720000000  0.5421470000000  0.5253350000000 1.0
C      1  0.5803820000000  0.4623400000000  0.5285680000000 1.0
C      1  0.5161780000000  0.5599520000000  0.4389430000000 1.0
C      1  0.4296710000000  0.5256310000000  0.5578960000000 1.0
C      1  0.5653350000000  0.4373290000000  0.5158060000000 1.0
C      1  0.4824240000000  0.4392710000000  0.4345720000000 1.0
C      1  0.4836590000000  0.5622250000000  0.5635370000000 1.0
C      1  0.5173360000000  0.4406900000000  0.5583510000000 1.0
C      1  0.5728570000000  0.4777730000000  0.5607810000000 1.0
C      1  0.5686150000000  0.5215200000000  0.4519440000000 1.0
C      1  0.4291310000000  0.4755280000000  0.4422940000000 1.0
C      1  0.4408220000000  0.5764790000000  0.5218260000000 1.0
C      1  0.4396820000000  0.4243910000000  0.4778500000000 1.0
C      1  0.5577540000000  0.5738440000000  0.4821700000000 1.0
C      1  0.5590830000000  0.5173880000000  0.4424800000000 1.0
C      1  0.5215820000000  0.4317030000000  0.5483900000000 1.0
C      1  0.4378280000000  0.5641590000000  0.5166810000000 1.0
C      1  0.4404610000000  0.4807670000000  0.4371600000000 1.0
C      1  0.5605090000000  0.4828800000000  0.5625890000000 1.0
C      1  0.4410960000000  0.5201850000000  0.5626020000000 1.0
C      1  0.4786470000000  0.5745860000000  0.5613290000000 1.0
C      1  0.5211750000000  0.5720390000000  0.4419530000000 1.0
C      1  0.4783200000000  0.4271780000000  0.4389670000000 1.0
C      1  0.5775270000000  0.4404830000000  0.5212020000000 1.0
C      1  0.4372100000000  0.4367170000000  0.4832940000000 1.0
C      1  0.5622880000000  0.5619420000000  0.4867980000000 1.0
C      1  0.5449720000000  0.4379570000000  0.4589070000000 1.0
C      1  0.4603770000000  0.5467000000000  0.4432670000000 1.0
C      1  0.4409870000000  0.4646570000000  0.5491440000000 1.0
C      1  0.4486850000000  0.5559380000000  0.4619500000000 1.0
C      1  0.4482540000000  0.4446510000000  0.5382300000000 1.0
C      1  0.5434060000000  0.5575740000000  0.5410090000000 1.0
C      1  0.5327270000000  0.4507440000000  0.4411040000000 1.0
C      1  0.5354440000000  0.5488160000000  0.5606860000000 1.0
C      1  0.4602520000000  0.4538140000000  0.5569350000000 1.0
C      1  0.5596140000000  0.5446610000000  0.5541060000000 1.0
C      1  0.5526440000000  0.4592270000000  0.4533020000000 1.0
C      1  0.4410290000000  0.5360290000000  0.4509800000000 1.0
C      1  0.4387140000000  0.5462670000000  0.4597700000000 1.0
C      1  0.5423370000000  0.4601830000000  0.4439350000000 1.0
C      1  0.4592240000000  0.4447320000000  0.5464690000000 1.0
C      1  0.5541460000000  0.4483240000000  0.4612630000000 1.0
C      1  0.4384210000000  0.4544410000000  0.5403910000000 1.0
C      1  0.5557500000000  0.5509280000000  0.5426700000000 1.0
C      1  0.4514390000000  0.5368130000000  0.4418850000000 1.0
C      1  0.5483200000000  0.5431390000000  0.5629310000000 1.0
C      1  0.4514050000000  0.4637990000000  0.5582280000000 1.0
C      1  0.5334980000000  0.5588340000000  0.5505540000000 1.0
C      1  0.4596220000000  0.5558820000000  0.4536660000000 1.0
C      1  0.5335260000000  0.4401290000000  0.4505980000000 1.0
C      1  0.4341230000000  0.5044720000000  0.5143780000000 1.0
C      1  0.5140200000000  0.4344920000000  0.5033910000000 1.0
C      1  0.5029140000000  0.5136610000000  0.4336320000000 1.0
C      1  0.5667660000000  0.4965020000000  0.5147880000000 1.0
C      1  0.5667550000000  0.5030690000000  0.4854450000000 1.0
C      1  0.4340590000000  0.4962170000000  0.4858680000000 1.0
C      1  0.4858790000000  0.5671830000000  0.5037160000000 1.0
C      1  0.4855360000000  0.4331190000000  0.4967040000000 1.0
C      1  0.5135080000000  0.5658180000000  0.4969430000000 1.0
C      1  0.4968870000000  0.4855560000000  0.4330010000000 1.0
C      1  0.4975410000000  0.5143630000000  0.5667070000000 1.0
C      1  0.5030920000000  0.4858040000000  0.5668440000000 1.0
C      1  0.5032230000000  0.4336740000000  0.5147840000000 1.0
C      1  0.4344140000000  0.5144910000000  0.5023870000000 1.0
C      1  0.5139120000000  0.5028480000000  0.4339810000000 1.0
C      1  0.4968470000000  0.5666840000000  0.5149400000000 1.0
C      1  0.5026500000000  0.5661250000000  0.4857500000000 1.0
C      1  0.4964210000000  0.4338680000000  0.4854860000000 1.0
C      1  0.5672800000000  0.4855300000000  0.5035460000000 1.0
C      1  0.4342710000000  0.4861830000000  0.4978490000000 1.0
C      1  0.5664440000000  0.5138920000000  0.4967810000000 1.0
C      1  0.4858370000000  0.4964280000000  0.4327990000000 1.0
C      1  0.5140890000000  0.4965750000000  0.5665450000000 1.0
C      1  0.4864240000000  0.5035940000000  0.5669600000000 1.0
C      1  0.5477310000000  0.5299330000000  0.5287760000000 1.0
C      1  0.5201710000000  0.5395850000000  0.5306030000000 1.0
C      1  0.5295410000000  0.5175410000000  0.5395880000000 1.0
C      1  0.4603500000000  0.4727690000000  0.5208900000000 1.0
C      1  0.4603980000000  0.5276700000000  0.4792220000000 1.0
C      1  0.5497440000000  0.4612070000000  0.4833120000000 1.0
C      1  0.4789650000000  0.4582420000000  0.5324850000000 1.0
C      1  0.4789900000000  0.5419980000000  0.4675450000000 1.0
C      1  0.5169490000000  0.4629960000000  0.4725890000000 1.0
C      1  0.4682160000000  0.4805530000000  0.5438940000000 1.0
C      1  0.4680180000000  0.5197250000000  0.4561110000000 1.0
C      1  0.5302420000000  0.4795120000000  0.4579510000000 1.0
C      1  0.5309460000000  0.5420120000000  0.5197600000000 1.0
C      1  0.5420310000000  0.5179060000000  0.5327670000000 1.0
C      1  0.5195740000000  0.5270670000000  0.5378760000000 1.0
C      1  0.4618440000000  0.4499060000000  0.5177120000000 1.0
C      1  0.5261180000000  0.4636870000000  0.4828150000000 1.0
C      1  0.4622200000000  0.5504570000000  0.4826510000000 1.0
C      1  0.4572970000000  0.4815120000000  0.5324680000000 1.0
C      1  0.5414380000000  0.4791510000000  0.4687130000000 1.0
C      1  0.4572140000000  0.5188870000000  0.4676300000000 1.0
C      1  0.4790400000000  0.4689340000000  0.5438420000000 1.0
C      1  0.5190130000000  0.4694060000000  0.4600940000000 1.0
C      1  0.4789160000000  0.5312510000000  0.4562150000000 1.0
C      1  0.4747930000000  0.5436340000000  0.4452740000000 1.0
C      1  0.4456450000000  0.4784020000000  0.5445820000000 1.0
C      1  0.5528330000000  0.4364230000000  0.4804810000000 1.0
C      1  0.5142190000000  0.4591520000000  0.4493970000000 1.0
C      1  0.5130620000000  0.5421980000000  0.5541510000000 1.0
C      1  0.4747380000000  0.4566230000000  0.5548120000000 1.0
C      1  0.5633690000000  0.5302180000000  0.5550740000000 1.0
C      1  0.5528020000000  0.4735680000000  0.4570460000000 1.0
C      1  0.4455540000000  0.5222170000000  0.4555060000000 1.0
C      1  0.4494900000000  0.5588550000000  0.4761970000000 1.0
C      1  0.4491050000000  0.4417750000000  0.5239570000000 1.0
C      1  0.5424940000000  0.5527130000000  0.5264220000000 1.0
C      1  0.5415210000000  0.4749270000000  0.4464490000000 1.0
C      1  0.4738650000000  0.4459970000000  0.5434270000000 1.0
C      1  0.4367110000000  0.5526730000000  0.4809660000000 1.0
C      1  0.4563600000000  0.5228660000000  0.4448290000000 1.0
C      1  0.5526190000000  0.5292980000000  0.5645700000000 1.0
C      1  0.4565120000000  0.4776580000000  0.5552070000000 1.0
C      1  0.5157310000000  0.5498490000000  0.5413860000000 1.0
C      1  0.4743140000000  0.5543240000000  0.4566310000000 1.0
C      1  0.5108170000000  0.4463890000000  0.4565900000000 1.0
C      1  0.5579590000000  0.4495420000000  0.4757040000000 1.0
C      1  0.4363840000000  0.4480500000000  0.5191530000000 1.0
C      1  0.5548140000000  0.5435730000000  0.5296890000000 1.0
C      1  0.5749730000000  0.4677490000000  0.5518540000000 1.0
C      1  0.5504980000000  0.5757670000000  0.4707210000000 1.0
C      1  0.4717670000000  0.5528650000000  0.5672560000000 1.0
C      1  0.4290170000000  0.5364270000000  0.5493200000000 1.0
C      1  0.4284080000000  0.4647000000000  0.4507910000000 1.0
C      1  0.5713790000000  0.5349580000000  0.4550960000000 1.0
C      1  0.4485190000000  0.4236790000000  0.4673880000000 1.0
C      1  0.4494940000000  0.5773600000000  0.5323970000000 1.0
C      1  0.5561640000000  0.4322760000000  0.5263010000000 1.0
C      1  0.5296660000000  0.4489220000000  0.5636460000000 1.0
C      1  0.5286050000000  0.5508830000000  0.4358250000000 1.0
C      1  0.4704140000000  0.4480740000000  0.4313140000000 1.0
C      1  0.4685890000000  0.5760890000000  0.5522200000000 1.0
C      1  0.5677410000000  0.5545110000000  0.4751910000000 1.0
C      1  0.5512000000000  0.4705870000000  0.5657160000000 1.0
C      1  0.5350530000000  0.4290940000000  0.5451100000000 1.0
C      1  0.4680670000000  0.4254820000000  0.4477930000000 1.0
C      1  0.5317160000000  0.5744960000000  0.4501730000000 1.0
C      1  0.4328220000000  0.4462090000000  0.4723490000000 1.0
C      1  0.5776340000000  0.4488570000000  0.5320430000000 1.0
C      1  0.4334140000000  0.5547760000000  0.5276390000000 1.0
C      1  0.4503700000000  0.5320150000000  0.5664900000000 1.0
C      1  0.5504560000000  0.5295410000000  0.4375660000000 1.0
C      1  0.4494910000000  0.4689360000000  0.4329670000000 1.0
C      1  0.4552360000000  0.5256840000000  0.4924030000000 1.0
C      1  0.4924060000000  0.4542440000000  0.5267220000000 1.0
C      1  0.5253670000000  0.4932430000000  0.4549930000000 1.0
C      1  0.5497770000000  0.4701220000000  0.4942240000000 1.0
C      1  0.5451540000000  0.5257060000000  0.5052920000000 1.0
C      1  0.4550600000000  0.4748690000000  0.5078150000000 1.0
C      1  0.5064570000000  0.5469650000000  0.5285240000000 1.0
C      1  0.5061900000000  0.4530710000000  0.4713680000000 1.0
C      1  0.4923370000000  0.5458450000000  0.4734740000000 1.0
C      1  0.4731010000000  0.5060040000000  0.4531380000000 1.0
C      1  0.4736280000000  0.4941420000000  0.5466530000000 1.0
C      1  0.5264120000000  0.5053510000000  0.5460500000000 1.0
C      1  0.5245050000000  0.4563170000000  0.4949710000000 1.0
C      1  0.4540290000000  0.4950740000000  0.5273650000000 1.0
C      1  0.4925320000000  0.5261110000000  0.4536890000000 1.0
C      1  0.4704560000000  0.5500660000000  0.4939140000000 1.0
C      1  0.5259050000000  0.5457700000000  0.5060970000000 1.0
C      1  0.4705060000000  0.4504880000000  0.5067700000000 1.0
C      1  0.5471040000000  0.5054900000000  0.5275980000000 1.0
C      1  0.4539210000000  0.5053460000000  0.4727300000000 1.0
C      1  0.5457200000000  0.4926860000000  0.4740300000000 1.0
C      1  0.5056600000000  0.4714130000000  0.4526200000000 1.0
C      1  0.4927850000000  0.4739050000000  0.5464220000000 1.0
C      1  0.5079310000000  0.5281560000000  0.5471700000000 1.0
C      1  0.5363050000000  0.4266530000000  0.5120150000000 1.0
C      1  0.5147790000000  0.5342550000000  0.4260260000000 1.0
C      1  0.4259160000000  0.5185930000000  0.5342210000000 1.0
C      1  0.4661350000000  0.5773830000000  0.5151990000000 1.0
C      1  0.4653950000000  0.4231420000000  0.4848670000000 1.0
C      1  0.5340880000000  0.5751270000000  0.4866470000000 1.0
C      1  0.4858600000000  0.4651230000000  0.4241030000000 1.0
C      1  0.4865730000000  0.5352350000000  0.5746000000000 1.0
C      1  0.5149790000000  0.4648260000000  0.5745740000000 1.0
C      1  0.5759670000000  0.4855200000000  0.5356900000000 1.0
C      1  0.5730660000000  0.5127970000000  0.4624970000000 1.0
C      1  0.4255930000000  0.4823320000000  0.4660620000000 1.0
C      1  0.4270490000000  0.5364220000000  0.5120270000000 1.0
C      1  0.5346400000000  0.5150340000000  0.4266040000000 1.0
C      1  0.5129940000000  0.4273070000000  0.5376880000000 1.0
C      1  0.5775530000000  0.4655660000000  0.5148680000000 1.0
C      1  0.4266110000000  0.4643660000000  0.4881650000000 1.0
C      1  0.5755020000000  0.5352460000000  0.4879470000000 1.0
C      1  0.4656030000000  0.4843480000000  0.4236770000000 1.0
C      1  0.5344150000000  0.4844300000000  0.5747330000000 1.0
C      1  0.4663480000000  0.5163770000000  0.5757300000000 1.0
C      1  0.4864020000000  0.5758830000000  0.5356660000000 1.0
C      1  0.5139940000000  0.5754390000000  0.4655490000000 1.0
C      1  0.4849610000000  0.4250680000000  0.4647600000000 1.0
C      1  0.4333380000000  0.5527960000000  0.4943860000000 1.0
C      1  0.4933460000000  0.4324900000000  0.5500920000000 1.0
C      1  0.5491940000000  0.4950700000000  0.4327400000000 1.0
C      1  0.5721560000000  0.4495490000000  0.4949880000000 1.0
C      1  0.5679470000000  0.5488440000000  0.5083330000000 1.0
C      1  0.4329890000000  0.4479300000000  0.5057300000000 1.0
C      1  0.5059770000000  0.5682110000000  0.5506440000000 1.0
C      1  0.5015770000000  0.4368420000000  0.4501080000000 1.0
C      1  0.4943680000000  0.5677330000000  0.4503230000000 1.0
C      1  0.4505290000000  0.5036630000000  0.4299930000000 1.0
C      1  0.4509980000000  0.4971560000000  0.5698280000000 1.0
C      1  0.5501710000000  0.5044660000000  0.5694850000000 1.0
C      1  0.5527550000000  0.4334480000000  0.4940230000000 1.0
C      1  0.4329150000000  0.4993300000000  0.5511570000000 1.0
C      1  0.4944770000000  0.5492180000000  0.4314020000000 1.0
C      1  0.4497300000000  0.5722040000000  0.4957400000000 1.0
C      1  0.5497110000000  0.5671020000000  0.5068430000000 1.0
C      1  0.4493000000000  0.4284610000000  0.5042930000000 1.0
C      1  0.5684490000000  0.5051970000000  0.5514770000000 1.0
C      1  0.4325770000000  0.5015160000000  0.4488940000000 1.0
C      1  0.5670050000000  0.4932160000000  0.4505010000000 1.0
C      1  0.5058110000000  0.4504980000000  0.4305430000000 1.0
C      1  0.4948350000000  0.4506050000000  0.5685360000000 1.0
C      1  0.5042590000000  0.5485660000000  0.5641590000000 1.0
C      1  0.4255210000000  0.4700890000000  0.5257060000000 1.0
C      1  0.5210910000000  0.4260460000000  0.4660860000000 1.0
C      1  0.4675680000000  0.5210400000000  0.4236980000000 1.0
C      1  0.5753800000000  0.5319020000000  0.5239940000000 1.0
C      1  0.5773220000000  0.4665410000000  0.4780510000000 1.0
C      1  0.4256710000000  0.5307260000000  0.4744960000000 1.0
C      1  0.4775040000000  0.5761370000000  0.4675720000000 1.0
C      1  0.4769470000000  0.4241650000000  0.5322980000000 1.0
C      1  0.5225000000000  0.5734770000000  0.5330600000000 1.0
C      1  0.5326440000000  0.4785930000000  0.4252150000000 1.0
C      1  0.5334310000000  0.5205350000000  0.5758390000000 1.0
C      1  0.4678060000000  0.4793800000000  0.5762180000000 1.0
C      1  0.4664320000000  0.4226950000000  0.5215740000000 1.0
C      1  0.4249220000000  0.5187780000000  0.4652280000000 1.0
C      1  0.5224040000000  0.4680240000000  0.4259410000000 1.0
C      1  0.5325940000000  0.5740030000000  0.5226340000000 1.0
C      1  0.4669030000000  0.5777250000000  0.4783730000000 1.0
C      1  0.5319880000000  0.4247500000000  0.4753310000000 1.0
C      1  0.5755160000000  0.4768860000000  0.4675160000000 1.0
C      1  0.4249520000000  0.4820700000000  0.5349900000000 1.0
C      1  0.5756030000000  0.5217120000000  0.5345230000000 1.0
C      1  0.4780640000000  0.5319180000000  0.4242380000000 1.0
C      1  0.5236790000000  0.5310760000000  0.5737490000000 1.0
C      1  0.4782200000000  0.4682020000000  0.5757590000000 1.0
C      1  0.4928370000000  0.4447720000000  0.5162860000000 1.0
C      1  0.5151870000000  0.4933150000000  0.4453670000000 1.0
C      1  0.4460980000000  0.5150400000000  0.4934380000000 1.0
C      1  0.5060300000000  0.5551910000000  0.5166180000000 1.0
C      1  0.5056600000000  0.4453150000000  0.4840510000000 1.0
C      1  0.4925670000000  0.5551380000000  0.4841640000000 1.0
C      1  0.4838690000000  0.5056180000000  0.4443030000000 1.0
C      1  0.4844140000000  0.4944390000000  0.5555260000000 1.0
C      1  0.5158620000000  0.5057860000000  0.5551660000000 1.0
C      1  0.5564160000000  0.4829950000000  0.4938790000000 1.0
C      1  0.5548680000000  0.5153680000000  0.5060860000000 1.0
C      1  0.4459520000000  0.4855300000000  0.5067820000000 1.0
C      1  0.4454590000000  0.4951920000000  0.5163530000000 1.0
C      1  0.4933250000000  0.5153450000000  0.4447160000000 1.0
C      1  0.5145280000000  0.4464500000000  0.4945350000000 1.0
C      1  0.5553680000000  0.5059600000000  0.5161640000000 1.0
C      1  0.4454850000000  0.5053680000000  0.4838570000000 1.0
C      1  0.5555080000000  0.4926970000000  0.4841590000000 1.0
C      1  0.5058560000000  0.4834070000000  0.4444620000000 1.0
C      1  0.4936200000000  0.4844590000000  0.5555330000000 1.0
C      1  0.5068110000000  0.5158940000000  0.5553800000000 1.0
C      1  0.4831820000000  0.5562840000000  0.4940260000000 1.0
C      1  0.5150040000000  0.5545080000000  0.5062780000000 1.0
C      1  0.4832110000000  0.4438980000000  0.5065650000000 1.0
C      1  0.5156210000000  0.5259810000000  0.4511330000000 1.0
C      1  0.4507770000000  0.5183740000000  0.5265390000000 1.0
C      1  0.5265680000000  0.4502750000000  0.5174900000000 1.0
C      1  0.4825380000000  0.4731880000000  0.4492800000000 1.0
C      1  0.4839830000000  0.5263470000000  0.5498580000000 1.0
C      1  0.5158350000000  0.4732350000000  0.5496520000000 1.0
C      1  0.5513160000000  0.4819440000000  0.5278680000000 1.0
C      1  0.5499980000000  0.5160570000000  0.4736640000000 1.0
C      1  0.4504510000000  0.4820580000000  0.4736430000000 1.0
C      1  0.4722530000000  0.5514150000000  0.5173600000000 1.0
C      1  0.4715590000000  0.4489910000000  0.4833830000000 1.0
C      1  0.5263820000000  0.5499810000000  0.4829430000000 1.0
C      1  0.5256520000000  0.5160640000000  0.4515000000000 1.0
C      1  0.5159040000000  0.4503500000000  0.5267130000000 1.0
C      1  0.4509310000000  0.5272640000000  0.5156750000000 1.0
C      1  0.4725560000000  0.4830400000000  0.4489900000000 1.0
C      1  0.5264890000000  0.4824520000000  0.5499270000000 1.0
C      1  0.4734660000000  0.5170510000000  0.5504450000000 1.0
C      1  0.4827140000000  0.5505000000000  0.5271020000000 1.0
C      1  0.5158830000000  0.5498380000000  0.4731070000000 1.0
C      1  0.4818110000000  0.4499750000000  0.4734450000000 1.0
C      1  0.5518930000000  0.4718610000000  0.5176830000000 1.0
C      1  0.4506570000000  0.4731700000000  0.4845550000000 1.0
C      1  0.5504620000000  0.5269400000000  0.4828210000000 1.0
C      1  0.4561030000000  0.4832950000000  0.5680490000000 1.0
C      1  0.5711110000000  0.4535070000000  0.4809220000000 1.0
C      1  0.4805450000000  0.5670580000000  0.4560660000000 1.0
C      1  0.5462820000000  0.5185560000000  0.5700640000000 1.0
C      1  0.5436880000000  0.4814340000000  0.4339730000000 1.0
C      1  0.4558460000000  0.5173540000000  0.4319220000000 1.0
C      1  0.4318070000000  0.5432890000000  0.4716650000000 1.0
C      1  0.4315570000000  0.4574760000000  0.5284800000000 1.0
C      1  0.5668780000000  0.5434250000000  0.5218530000000 1.0
C      1  0.5215990000000  0.4364520000000  0.4566520000000 1.0
C      1  0.5203080000000  0.5637480000000  0.5445490000000 1.0
C      1  0.4795440000000  0.4330610000000  0.5441360000000 1.0
C      1  0.4811110000000  0.4563070000000  0.5674070000000 1.0
C      1  0.4535910000000  0.5717440000000  0.4815500000000 1.0
C      1  0.5659170000000  0.4794740000000  0.4563060000000 1.0
C      1  0.5245550000000  0.5408170000000  0.5635580000000 1.0
C      1  0.4808500000000  0.5437910000000  0.4325210000000 1.0
C      1  0.5198790000000  0.4566180000000  0.4356480000000 1.0
C      1  0.5439740000000  0.4308010000000  0.4711840000000 1.0
C      1  0.4531930000000  0.4289370000000  0.5184040000000 1.0
C      1  0.5439340000000  0.5654240000000  0.5200900000000 1.0
C      1  0.4334050000000  0.5152870000000  0.4539320000000 1.0
C      1  0.5693680000000  0.5198730000000  0.5478660000000 1.0
C      1  0.4335910000000  0.4855190000000  0.5461770000000 1.0
C      1  0.5140650000000  0.4350290000000  0.5253130000000 1.0
C      1  0.5241510000000  0.5134300000000  0.4361930000000 1.0
C      1  0.4359960000000  0.5254180000000  0.5124170000000 1.0
C      1  0.4862310000000  0.5654410000000  0.5254880000000 1.0
C      1  0.4854960000000  0.4351260000000  0.4752150000000 1.0
C      1  0.5132320000000  0.5646770000000  0.4752460000000 1.0
C      1  0.4754190000000  0.4858420000000  0.4339490000000 1.0
C      1  0.4761630000000  0.5143680000000  0.5655250000000 1.0
C      1  0.5242100000000  0.4857770000000  0.5649600000000 1.0
C      1  0.5665970000000  0.4750500000000  0.5144100000000 1.0
C      1  0.5656380000000  0.5246190000000  0.4860200000000 1.0
C      1  0.4357130000000  0.4752240000000  0.4878230000000 1.0
C      1  0.4357180000000  0.5157950000000  0.5241380000000 1.0
C      1  0.5133450000000  0.5240040000000  0.4358340000000 1.0
C      1  0.5247150000000  0.4351990000000  0.5141680000000 1.0
C      1  0.5658900000000  0.4858040000000  0.5253760000000 1.0
C      1  0.4354860000000  0.4848580000000  0.4761370000000 1.0
C      1  0.5652790000000  0.5138830000000  0.4748460000000 1.0
C      1  0.4862350000000  0.4751980000000  0.4342680000000 1.0
C      1  0.5133770000000  0.4752340000000  0.5649570000000 1.0
C      1  0.4871330000000  0.5247250000000  0.5649200000000 1.0
C      1  0.4754210000000  0.5662960000000  0.5145930000000 1.0
C      1  0.5240450000000  0.5645900000000  0.4863820000000 1.0
C      1  0.4748090000000  0.4341240000000  0.4859620000000 1.0
C      1  0.4209790000000  0.5060000000000  0.4690390000000 1.0
C      1  0.4703470000000  0.4190110000000  0.5085180000000 1.0
C      1  0.5098450000000  0.4703760000000  0.4200470000000 1.0
C      1  0.5798030000000  0.4901300000000  0.4702140000000 1.0
C      1  0.5791180000000  0.5086020000000  0.5308750000000 1.0
C      1  0.4210120000000  0.4948680000000  0.5312110000000 1.0
C      1  0.5297200000000  0.5784840000000  0.5096590000000 1.0
C      1  0.5303200000000  0.4235490000000  0.4891920000000 1.0
C      1  0.4707530000000  0.5813620000000  0.4915110000000 1.0
C      1  0.4913140000000  0.5292660000000  0.4199970000000 1.0
C      1  0.4913940000000  0.4704890000000  0.5803550000000 1.0
C      1  0.5102430000000  0.5300500000000  0.5781950000000 1.0
C      1  0.5079960000000  0.4222970000000  0.4685680000000 1.0
C      1  0.4229470000000  0.4706970000000  0.5116290000000 1.0
C      1  0.4705860000000  0.5081330000000  0.4188150000000 1.0
C      1  0.4908510000000  0.5799310000000  0.4702350000000 1.0
C      1  0.5099060000000  0.5789640000000  0.5304890000000 1.0
C      1  0.4903820000000  0.4204200000000  0.5296600000000 1.0
C      1  0.5796530000000  0.5288800000000  0.5108320000000 1.0
C      1  0.4232030000000  0.5300960000000  0.4885910000000 1.0
C      1  0.5812190000000  0.4704370000000  0.4911470000000 1.0
C      1  0.5299600000000  0.4916380000000  0.4204520000000 1.0
C      1  0.4709290000000  0.4923340000000  0.5809780000000 1.0
C      1  0.5298600000000  0.5075800000000  0.5798710000000 1.0
C      1  0.4400610000000  0.5629860000000  0.5022560000000 1.0
C      1  0.5015650000000  0.4410720000000  0.5596400000000 1.0
C      1  0.5634070000000  0.4398250000000  0.5015800000000 1.0
C      1  0.5010620000000  0.5589580000000  0.4400460000000 1.0
C      1  0.4415710000000  0.5050100000000  0.5617160000000 1.0
C      1  0.5586610000000  0.5017140000000  0.4413090000000 1.0
C      1  0.5604170000000  0.5591000000000  0.5012730000000 1.0
C      1  0.4396230000000  0.4377390000000  0.4977530000000 1.0
C      1  0.4981190000000  0.5604080000000  0.5601050000000 1.0
C      1  0.4969730000000  0.4414720000000  0.4375280000000 1.0
C      1  0.4410700000000  0.4959040000000  0.4381370000000 1.0
C      1  0.5597320000000  0.4979670000000  0.5611490000000 1.0
C      1  0.4679220000000  0.4610460000000  0.5229520000000 1.0
C      1  0.5388680000000  0.4685530000000  0.4789680000000 1.0
C      1  0.4679660000000  0.5393110000000  0.4770720000000 1.0
C      1  0.5398170000000  0.5304170000000  0.5173630000000 1.0
END
