TITL C-1379265-1223-132 4.30357388345837e-07 1000000 -1383.2254680743 0 0 200 (Oh) n - 1
REM
REM in /nfs/bkarasulu/CARBON/AIRSS/Generating-Clusters/GAP-ML-2020/Higher-Symm/Selected-Sizes/TryA-Only_Ih-Symm/Larger-Clusters/Try2-MINAMP_6A
REM
REM
REM
REM
REM
REM ./C.cell (31579ac4e95a012ec27f3239692ae8a5)
REM
REM compiler GCC version 9.2.1 20190827 (Red Hat 9.2.1-1)
REM options -cpp -mtune=generic -march=x86-64 -g -O0 -fpre-include=/usr/include/finclude/math-vector-fortran.h
REM seed 1350734368 604863475 -58761421 -1817461137 -771652338 1617864151 -1694810568 1702012650 765067421 60126804 715333862 1923013537 1991241842 -1096060491 310455584 1008286306 -1672691695 343417238 1432346133 -179393081 343588972 191707430 353298694 889724515 378755625 -1028243185 1171051760 1008914239 1311963861 2055199437 1238215190 -771916958 306590942
REM
CELL 1.54180  100.00000  100.00000  100.00000   90.00000   90.00000   90.00000
LATT -1
SFAC C  
C      1  0.5259720000000  0.4822420000000  0.4254820000000 1.0
C      1  0.4251150000000  0.5258390000000  0.4827440000000 1.0
C      1  0.4823750000000  0.4249830000000  0.5263410000000 1.0
C      1  0.5259710000000  0.5170210000000  0.5747830000000 1.0
C      1  0.4735550000000  0.5170210000000  0.4254820000000 1.0
C      1  0.4735560000000  0.4822420000000  0.5747840000000 1.0
C      1  0.4251150000000  0.4734230000000  0.5175220000000 1.0
C      1  0.5744130000000  0.4734230000000  0.4827430000000 1.0
C      1  0.5744120000000  0.5258380000000  0.5175220000000 1.0
C      1  0.4823740000000  0.5742800000000  0.4739240000000 1.0
C      1  0.5171530000000  0.5742800000000  0.5263400000000 1.0
C      1  0.5171530000000  0.4249830000000  0.4739230000000 1.0
C      1  0.4735550000000  0.4822420000000  0.4254820000000 1.0
C      1  0.5744130000000  0.5258380000000  0.4827430000000 1.0
C      1  0.5171530000000  0.4249830000000  0.5263410000000 1.0
C      1  0.4735560000000  0.5170210000000  0.5747830000000 1.0
C      1  0.5259720000000  0.5170210000000  0.4254820000000 1.0
C      1  0.5259710000000  0.4822420000000  0.5747840000000 1.0
C      1  0.5744120000000  0.4734230000000  0.5175220000000 1.0
C      1  0.4251150000000  0.4734230000000  0.4827430000000 1.0
C      1  0.4251150000000  0.5258390000000  0.5175220000000 1.0
C      1  0.5171530000000  0.5742800000000  0.4739240000000 1.0
C      1  0.4823750000000  0.5742800000000  0.5263400000000 1.0
C      1  0.4823750000000  0.4249830000000  0.4739230000000 1.0
C      1  0.5489660000000  0.5488320000000  0.5157570000000 1.0
C      1  0.5153880000000  0.5488340000000  0.5493350000000 1.0
C      1  0.5489640000000  0.5152560000000  0.5493360000000 1.0
C      1  0.5489660000000  0.4504300000000  0.4845070000000 1.0
C      1  0.4505620000000  0.4504290000000  0.5157570000000 1.0
C      1  0.4505610000000  0.5488330000000  0.4845070000000 1.0
C      1  0.5153890000000  0.4504300000000  0.4509290000000 1.0
C      1  0.4841390000000  0.4504290000000  0.5493360000000 1.0
C      1  0.4841390000000  0.5488330000000  0.4509300000000 1.0
C      1  0.5489660000000  0.4840060000000  0.4509290000000 1.0
C      1  0.4505640000000  0.4840060000000  0.5493360000000 1.0
C      1  0.4505620000000  0.5152560000000  0.4509300000000 1.0
C      1  0.4505620000000  0.5488330000000  0.5157570000000 1.0
C      1  0.4841390000000  0.5488340000000  0.5493350000000 1.0
C      1  0.4505640000000  0.5152560000000  0.5493350000000 1.0
C      1  0.4505610000000  0.4504290000000  0.4845070000000 1.0
C      1  0.5489650000000  0.4504300000000  0.5157570000000 1.0
C      1  0.5489660000000  0.5488320000000  0.4845070000000 1.0
C      1  0.4841390000000  0.4504300000000  0.4509290000000 1.0
C      1  0.5153890000000  0.4504290000000  0.5493360000000 1.0
C      1  0.5153890000000  0.5488330000000  0.4509300000000 1.0
C      1  0.4505620000000  0.4840060000000  0.4509300000000 1.0
C      1  0.5489640000000  0.4840060000000  0.5493360000000 1.0
C      1  0.5489660000000  0.5152560000000  0.4509300000000 1.0
C      1  0.4735540000000  0.5742800000000  0.4827430000000 1.0
C      1  0.4823750000000  0.4734210000000  0.5747840000000 1.0
C      1  0.5744130000000  0.4822420000000  0.4739230000000 1.0
C      1  0.4735550000000  0.4249820000000  0.5175210000000 1.0
C      1  0.5259730000000  0.4249830000000  0.4827430000000 1.0
C      1  0.5259730000000  0.5742800000000  0.5175210000000 1.0
C      1  0.4823750000000  0.5258410000000  0.4254820000000 1.0
C      1  0.5171520000000  0.5258410000000  0.5747830000000 1.0
C      1  0.5171530000000  0.4734220000000  0.4254810000000 1.0
C      1  0.5744120000000  0.5170190000000  0.5263430000000 1.0
C      1  0.4251140000000  0.5170190000000  0.4739230000000 1.0
C      1  0.4251160000000  0.4822420000000  0.5263420000000 1.0
C      1  0.5259730000000  0.5742800000000  0.4827430000000 1.0
C      1  0.5171520000000  0.4734210000000  0.5747840000000 1.0
C      1  0.4251150000000  0.4822420000000  0.4739230000000 1.0
C      1  0.5259720000000  0.4249830000000  0.5175210000000 1.0
C      1  0.4735550000000  0.4249830000000  0.4827430000000 1.0
C      1  0.4735540000000  0.5742800000000  0.5175210000000 1.0
C      1  0.5171520000000  0.5258410000000  0.4254820000000 1.0
C      1  0.4823750000000  0.5258410000000  0.5747830000000 1.0
C      1  0.4823750000000  0.4734220000000  0.4254810000000 1.0
C      1  0.4251160000000  0.5170190000000  0.5263420000000 1.0
C      1  0.5744130000000  0.5170190000000  0.4739230000000 1.0
C      1  0.5744120000000  0.4822420000000  0.5263430000000 1.0
C      1  0.4293790000000  0.5337600000000  0.4926220000000 1.0
C      1  0.4922530000000  0.4292480000000  0.5342620000000 1.0
C      1  0.5338930000000  0.4921210000000  0.4297470000000 1.0
C      1  0.4293800000000  0.4655020000000  0.5076430000000 1.0
C      1  0.5701480000000  0.4655030000000  0.4926220000000 1.0
C      1  0.5701480000000  0.5337590000000  0.5076430000000 1.0
C      1  0.4922530000000  0.5700160000000  0.4660030000000 1.0
C      1  0.5072740000000  0.5700150000000  0.5342610000000 1.0
C      1  0.5072740000000  0.4292480000000  0.4660020000000 1.0
C      1  0.5338920000000  0.5071420000000  0.5705180000000 1.0
C      1  0.4656340000000  0.5071420000000  0.4297470000000 1.0
C      1  0.4656360000000  0.4921210000000  0.5705190000000 1.0
C      1  0.5701480000000  0.5337590000000  0.4926220000000 1.0
C      1  0.5072740000000  0.4292480000000  0.5342620000000 1.0
C      1  0.4656340000000  0.4921210000000  0.4297470000000 1.0
C      1  0.5701480000000  0.4655030000000  0.5076430000000 1.0
C      1  0.4293790000000  0.4655020000000  0.4926220000000 1.0
C      1  0.4293800000000  0.5337600000000  0.5076430000000 1.0
C      1  0.5072740000000  0.5700150000000  0.4660030000000 1.0
C      1  0.4922530000000  0.5700160000000  0.5342610000000 1.0
C      1  0.4922530000000  0.4292480000000  0.4660020000000 1.0
C      1  0.4656360000000  0.5071420000000  0.5705180000000 1.0
C      1  0.5338930000000  0.5071420000000  0.4297470000000 1.0
C      1  0.5338920000000  0.4921210000000  0.5705190000000 1.0
C      1  0.5432210000000  0.5590670000000  0.4930700000000 1.0
C      1  0.4927010000000  0.5430890000000  0.5595710000000 1.0
C      1  0.5592000000000  0.4925680000000  0.5435910000000 1.0
C      1  0.5432200000000  0.4401950000000  0.5071950000000 1.0
C      1  0.4563070000000  0.4401940000000  0.4930700000000 1.0
C      1  0.4563070000000  0.5590680000000  0.5071950000000 1.0
C      1  0.4927010000000  0.4561750000000  0.4406940000000 1.0
C      1  0.5068260000000  0.4561740000000  0.5595720000000 1.0
C      1  0.5068260000000  0.5430880000000  0.4406950000000 1.0
C      1  0.5592010000000  0.5066930000000  0.4566750000000 1.0
C      1  0.4403280000000  0.5066930000000  0.5435900000000 1.0
C      1  0.4403270000000  0.4925680000000  0.4566750000000 1.0
C      1  0.4563060000000  0.5590680000000  0.4930700000000 1.0
C      1  0.5068260000000  0.5430890000000  0.5595710000000 1.0
C      1  0.4403280000000  0.4925680000000  0.5435900000000 1.0
C      1  0.4563070000000  0.4401940000000  0.5071950000000 1.0
C      1  0.5432200000000  0.4401950000000  0.4930700000000 1.0
C      1  0.5432210000000  0.5590670000000  0.5071950000000 1.0
C      1  0.5068260000000  0.4561750000000  0.4406940000000 1.0
C      1  0.4927010000000  0.4561740000000  0.5595720000000 1.0
C      1  0.4927010000000  0.5430880000000  0.4406950000000 1.0
C      1  0.4403270000000  0.5066930000000  0.4566760000000 1.0
C      1  0.5592000000000  0.5066930000000  0.5435910000000 1.0
C      1  0.5592010000000  0.4925680000000  0.4566750000000 1.0
C      1  0.5276330000000  0.4545090000000  0.4550080000000 1.0
C      1  0.4546410000000  0.5275010000000  0.4550090000000 1.0
C      1  0.4546410000000  0.4545080000000  0.5280020000000 1.0
C      1  0.5276330000000  0.5447540000000  0.5452560000000 1.0
C      1  0.4718940000000  0.5447540000000  0.4550090000000 1.0
C      1  0.4718940000000  0.4545080000000  0.5452570000000 1.0
C      1  0.4546420000000  0.4717610000000  0.5452570000000 1.0
C      1  0.5448870000000  0.4717620000000  0.4550080000000 1.0
C      1  0.5448850000000  0.5275000000000  0.5452560000000 1.0
C      1  0.4546400000000  0.5447540000000  0.4722630000000 1.0
C      1  0.5448860000000  0.5447530000000  0.5280020000000 1.0
C      1  0.5448870000000  0.4545090000000  0.4722620000000 1.0
C      1  0.4718940000000  0.4545090000000  0.4550080000000 1.0
C      1  0.5448870000000  0.5275000000000  0.4550090000000 1.0
C      1  0.5448860000000  0.4545090000000  0.5280020000000 1.0
C      1  0.4718940000000  0.5447550000000  0.5452560000000 1.0
C      1  0.5276330000000  0.5447540000000  0.4550090000000 1.0
C      1  0.5276330000000  0.4545090000000  0.5452570000000 1.0
C      1  0.5448850000000  0.4717620000000  0.5452570000000 1.0
C      1  0.4546410000000  0.4717610000000  0.4550090000000 1.0
C      1  0.4546420000000  0.5275010000000  0.5452560000000 1.0
C      1  0.5448870000000  0.5447530000000  0.4722630000000 1.0
C      1  0.4546410000000  0.5447540000000  0.5280020000000 1.0
C      1  0.4546400000000  0.4545080000000  0.4722620000000 1.0
C      1  0.4922530000000  0.5337620000000  0.4297470000000 1.0
C      1  0.4293810000000  0.4921200000000  0.5342630000000 1.0
C      1  0.5338930000000  0.4292480000000  0.4926210000000 1.0
C      1  0.4922530000000  0.4655000000000  0.5705200000000 1.0
C      1  0.5072740000000  0.4655010000000  0.4297460000000 1.0
C      1  0.5072740000000  0.5337630000000  0.5705180000000 1.0
C      1  0.4293790000000  0.5071410000000  0.4660020000000 1.0
C      1  0.5701470000000  0.5071410000000  0.5342640000000 1.0
C      1  0.5701490000000  0.4921200000000  0.4660010000000 1.0
C      1  0.5338940000000  0.5700150000000  0.5076430000000 1.0
C      1  0.4656330000000  0.5700160000000  0.4926210000000 1.0
C      1  0.4656340000000  0.4292470000000  0.5076430000000 1.0
C      1  0.5072740000000  0.5337620000000  0.4297470000000 1.0
C      1  0.5701470000000  0.4921200000000  0.5342640000000 1.0
C      1  0.4656340000000  0.4292470000000  0.4926210000000 1.0
C      1  0.5072740000000  0.4655000000000  0.5705200000000 1.0
C      1  0.4922530000000  0.4655010000000  0.4297460000000 1.0
C      1  0.4922530000000  0.5337630000000  0.5705180000000 1.0
C      1  0.5701490000000  0.5071410000000  0.4660010000000 1.0
C      1  0.4293810000000  0.5071410000000  0.5342630000000 1.0
C      1  0.4293790000000  0.4921200000000  0.4660020000000 1.0
C      1  0.4656330000000  0.5700160000000  0.5076430000000 1.0
C      1  0.5338940000000  0.5700150000000  0.4926210000000 1.0
C      1  0.5338930000000  0.4292480000000  0.5076430000000 1.0
C      1  0.4403270000000  0.4561750000000  0.5071950000000 1.0
C      1  0.5068260000000  0.4401950000000  0.4566750000000 1.0
C      1  0.4563080000000  0.5066940000000  0.4406950000000 1.0
C      1  0.4403260000000  0.5430870000000  0.4930700000000 1.0
C      1  0.5592010000000  0.5430860000000  0.5071950000000 1.0
C      1  0.5592010000000  0.4561760000000  0.4930700000000 1.0
C      1  0.5068260000000  0.5590690000000  0.5435890000000 1.0
C      1  0.4927010000000  0.5590690000000  0.4566760000000 1.0
C      1  0.4927010000000  0.4401940000000  0.5435900000000 1.0
C      1  0.4563090000000  0.4925690000000  0.5595710000000 1.0
C      1  0.5432200000000  0.4925690000000  0.4406940000000 1.0
C      1  0.5432180000000  0.5066940000000  0.5595710000000 1.0
C      1  0.5592010000000  0.4561760000000  0.5071950000000 1.0
C      1  0.4927010000000  0.4401950000000  0.4566750000000 1.0
C      1  0.5432200000000  0.5066940000000  0.4406940000000 1.0
C      1  0.5592010000000  0.5430860000000  0.4930700000000 1.0
C      1  0.4403270000000  0.5430870000000  0.5071950000000 1.0
C      1  0.4403260000000  0.4561750000000  0.4930700000000 1.0
C      1  0.4927010000000  0.5590690000000  0.5435890000000 1.0
C      1  0.5068260000000  0.5590680000000  0.4566760000000 1.0
C      1  0.5068260000000  0.4401940000000  0.5435900000000 1.0
C      1  0.5432180000000  0.4925690000000  0.5595710000000 1.0
C      1  0.4563080000000  0.4925690000000  0.4406950000000 1.0
C      1  0.4563090000000  0.5066940000000  0.5595710000000 1.0
C      1  0.4602950000000  0.4601620000000  0.5396020000000 1.0
C      1  0.4602940000000  0.5391000000000  0.4606630000000 1.0
C      1  0.5392320000000  0.4601620000000  0.5396020000000 1.0
C      1  0.5392330000000  0.5391000000000  0.4606630000000 1.0
C      1  0.5392330000000  0.4601620000000  0.4606620000000 1.0
C      1  0.5392320000000  0.5391000000000  0.5396020000000 1.0
C      1  0.4602940000000  0.4601620000000  0.4606630000000 1.0
C      1  0.4602950000000  0.5391000000000  0.5396020000000 1.0
END
