TITL C-1379266-1300-318 1.47218263808908e-06 1000000 -3461.29250256786 0 0 480 (Th) n - 1
REM
REM in /nfs/bkarasulu/CARBON/AIRSS/Generating-Clusters/GAP-ML-2020/Higher-Symm/Selected-Sizes/TryA-Only_Ih-Symm/Larger-Clusters/Try2-MINAMP_6A
REM
REM
REM
REM
REM
REM ./C.cell (31579ac4e95a012ec27f3239692ae8a5)
REM
REM compiler GCC version 9.2.1 20190827 (Red Hat 9.2.1-1)
REM options -cpp -mtune=generic -march=x86-64 -g -O0 -fpre-include=/usr/include/finclude/math-vector-fortran.h
REM seed 68563475 2109775533 -320632842 -1979227084 -1346268209 775890578 1252151260 184624425 392574153 85545871 -1526701106 287256418 -843136292 698365564 -1603713727 1223281555 1072997107 -1722591546 -491340446 -1666664213 1237931190 1146695022 -819007035 -1825222738 1609903148 -1690831340 2041972039 854152008 474308627 1523569867 -1323190368 795868206 -1200972009
REM
CELL 1.54180  100.00000  100.00000  100.00000   90.00000   90.00000   90.00000
LATT -1
SFAC C  
C      1  0.5163960000000  0.4312910000000  0.4551230000000 1.0
C      1  0.4551230000000  0.5163960000000  0.4312910000000 1.0
C      1  0.4312910000000  0.4551230000000  0.5163960000000 1.0
C      1  0.4836040000000  0.5687090000000  0.4551230000000 1.0
C      1  0.4836040000000  0.4312910000000  0.5448770000000 1.0
C      1  0.5163960000000  0.5687090000000  0.5448770000000 1.0
C      1  0.5448770000000  0.4836040000000  0.4312910000000 1.0
C      1  0.5448770000000  0.5163960000000  0.5687090000000 1.0
C      1  0.4551230000000  0.4836040000000  0.5687090000000 1.0
C      1  0.5687090000000  0.5448770000000  0.5163960000000 1.0
C      1  0.5687090000000  0.4551230000000  0.4836040000000 1.0
C      1  0.4312910000000  0.5448770000000  0.4836040000000 1.0
C      1  0.5163960000000  0.4312910000000  0.5448770000000 1.0
C      1  0.4551230000000  0.5163960000000  0.5687090000000 1.0
C      1  0.4312910000000  0.4551230000000  0.4836040000000 1.0
C      1  0.4836040000000  0.5687090000000  0.5448770000000 1.0
C      1  0.4836040000000  0.4312910000000  0.4551230000000 1.0
C      1  0.5163960000000  0.5687090000000  0.4551230000000 1.0
C      1  0.5448770000000  0.4836040000000  0.5687090000000 1.0
C      1  0.5448770000000  0.5163960000000  0.4312910000000 1.0
C      1  0.4551230000000  0.4836040000000  0.4312910000000 1.0
C      1  0.5687090000000  0.5448770000000  0.4836040000000 1.0
C      1  0.5687090000000  0.4551230000000  0.5163960000000 1.0
C      1  0.4312910000000  0.5448770000000  0.5163960000000 1.0
C      1  0.4853320000000  0.4921240000000  0.4452580000000 1.0
C      1  0.4452580000000  0.4853320000000  0.4921240000000 1.0
C      1  0.4921240000000  0.4452580000000  0.4853320000000 1.0
C      1  0.5146680000000  0.5078760000000  0.4452580000000 1.0
C      1  0.5146680000000  0.4921240000000  0.5547420000000 1.0
C      1  0.4853320000000  0.5078760000000  0.5547420000000 1.0
C      1  0.5547420000000  0.5146680000000  0.4921240000000 1.0
C      1  0.5547420000000  0.4853320000000  0.5078760000000 1.0
C      1  0.4452580000000  0.5146680000000  0.5078760000000 1.0
C      1  0.5078760000000  0.5547420000000  0.4853320000000 1.0
C      1  0.5078760000000  0.4452580000000  0.5146680000000 1.0
C      1  0.4921240000000  0.5547420000000  0.5146680000000 1.0
C      1  0.4853320000000  0.4921240000000  0.5547420000000 1.0
C      1  0.4452580000000  0.4853320000000  0.5078760000000 1.0
C      1  0.4921240000000  0.4452580000000  0.5146680000000 1.0
C      1  0.5146680000000  0.5078760000000  0.5547420000000 1.0
C      1  0.5146680000000  0.4921240000000  0.4452580000000 1.0
C      1  0.4853320000000  0.5078760000000  0.4452580000000 1.0
C      1  0.5547420000000  0.5146680000000  0.5078760000000 1.0
C      1  0.5547420000000  0.4853320000000  0.4921240000000 1.0
C      1  0.4452580000000  0.5146680000000  0.4921240000000 1.0
C      1  0.5078760000000  0.5547420000000  0.5146680000000 1.0
C      1  0.5078760000000  0.4452580000000  0.4853320000000 1.0
C      1  0.4921240000000  0.5547420000000  0.4853320000000 1.0
C      1  0.4284320000000  0.5363670000000  0.5381820000000 1.0
C      1  0.5381820000000  0.4284320000000  0.5363670000000 1.0
C      1  0.5363670000000  0.5381820000000  0.4284320000000 1.0
C      1  0.5715680000000  0.4636330000000  0.5381820000000 1.0
C      1  0.5715680000000  0.5363670000000  0.4618180000000 1.0
C      1  0.4284320000000  0.4636330000000  0.4618180000000 1.0
C      1  0.4618180000000  0.5715680000000  0.5363670000000 1.0
C      1  0.4618180000000  0.4284320000000  0.4636330000000 1.0
C      1  0.5381820000000  0.5715680000000  0.4636330000000 1.0
C      1  0.4636330000000  0.4618180000000  0.4284320000000 1.0
C      1  0.4636330000000  0.5381820000000  0.5715680000000 1.0
C      1  0.5363670000000  0.4618180000000  0.5715680000000 1.0
C      1  0.4284320000000  0.5363670000000  0.4618180000000 1.0
C      1  0.5381820000000  0.4284320000000  0.4636330000000 1.0
C      1  0.5363670000000  0.5381820000000  0.5715680000000 1.0
C      1  0.5715680000000  0.4636330000000  0.4618180000000 1.0
C      1  0.5715680000000  0.5363670000000  0.5381820000000 1.0
C      1  0.4284320000000  0.4636330000000  0.5381820000000 1.0
C      1  0.4618180000000  0.5715680000000  0.4636330000000 1.0
C      1  0.4618180000000  0.4284320000000  0.5363670000000 1.0
C      1  0.5381820000000  0.5715680000000  0.5363670000000 1.0
C      1  0.4636330000000  0.4618180000000  0.5715680000000 1.0
C      1  0.4636330000000  0.5381820000000  0.4284320000000 1.0
C      1  0.5363670000000  0.4618180000000  0.4284320000000 1.0
C      1  0.5279720000000  0.4188560000000  0.4840290000000 1.0
C      1  0.4840290000000  0.5279720000000  0.4188560000000 1.0
C      1  0.4188560000000  0.4840290000000  0.5279720000000 1.0
C      1  0.4720280000000  0.5811440000000  0.4840290000000 1.0
C      1  0.4720280000000  0.4188560000000  0.5159710000000 1.0
C      1  0.5279720000000  0.5811440000000  0.5159710000000 1.0
C      1  0.5159710000000  0.4720280000000  0.4188560000000 1.0
C      1  0.5159710000000  0.5279720000000  0.5811440000000 1.0
C      1  0.4840290000000  0.4720280000000  0.5811440000000 1.0
C      1  0.5811440000000  0.5159710000000  0.5279720000000 1.0
C      1  0.5811440000000  0.4840290000000  0.4720280000000 1.0
C      1  0.4188560000000  0.5159710000000  0.4720280000000 1.0
C      1  0.5279720000000  0.4188560000000  0.5159710000000 1.0
C      1  0.4840290000000  0.5279720000000  0.5811440000000 1.0
C      1  0.4188560000000  0.4840290000000  0.4720280000000 1.0
C      1  0.4720280000000  0.5811440000000  0.5159710000000 1.0
C      1  0.4720280000000  0.4188560000000  0.4840290000000 1.0
C      1  0.5279720000000  0.5811440000000  0.4840290000000 1.0
C      1  0.5159710000000  0.4720280000000  0.5811440000000 1.0
C      1  0.5159710000000  0.5279720000000  0.4188560000000 1.0
C      1  0.4840290000000  0.4720280000000  0.4188560000000 1.0
C      1  0.5811440000000  0.5159710000000  0.4720280000000 1.0
C      1  0.5811440000000  0.4840290000000  0.5279720000000 1.0
C      1  0.4188560000000  0.5159710000000  0.5279720000000 1.0
C      1  0.4437050000000  0.5416030000000  0.5077920000000 1.0
C      1  0.5077920000000  0.4437050000000  0.5416030000000 1.0
C      1  0.5416030000000  0.5077920000000  0.4437050000000 1.0
C      1  0.5562950000000  0.4583970000000  0.5077920000000 1.0
C      1  0.5562950000000  0.5416030000000  0.4922080000000 1.0
C      1  0.4437050000000  0.4583970000000  0.4922080000000 1.0
C      1  0.4922080000000  0.5562950000000  0.5416030000000 1.0
C      1  0.4922080000000  0.4437050000000  0.4583970000000 1.0
C      1  0.5077920000000  0.5562950000000  0.4583970000000 1.0
C      1  0.4583970000000  0.4922080000000  0.4437050000000 1.0
C      1  0.4583970000000  0.5077920000000  0.5562950000000 1.0
C      1  0.5416030000000  0.4922080000000  0.5562950000000 1.0
C      1  0.4437050000000  0.5416030000000  0.4922080000000 1.0
C      1  0.5077920000000  0.4437050000000  0.4583970000000 1.0
C      1  0.5416030000000  0.5077920000000  0.5562950000000 1.0
C      1  0.5562950000000  0.4583970000000  0.4922080000000 1.0
C      1  0.5562950000000  0.5416030000000  0.5077920000000 1.0
C      1  0.4437050000000  0.4583970000000  0.5077920000000 1.0
C      1  0.4922080000000  0.5562950000000  0.4583970000000 1.0
C      1  0.4922080000000  0.4437050000000  0.5416030000000 1.0
C      1  0.5077920000000  0.5562950000000  0.5416030000000 1.0
C      1  0.4583970000000  0.4922080000000  0.5562950000000 1.0
C      1  0.4583970000000  0.5077920000000  0.4437050000000 1.0
C      1  0.5416030000000  0.4922080000000  0.4437050000000 1.0
C      1  0.5136590000000  0.5811110000000  0.5141700000000 1.0
C      1  0.5141700000000  0.5136590000000  0.5811110000000 1.0
C      1  0.5811110000000  0.5141700000000  0.5136590000000 1.0
C      1  0.4863410000000  0.4188890000000  0.5141700000000 1.0
C      1  0.4863410000000  0.5811110000000  0.4858300000000 1.0
C      1  0.5136590000000  0.4188890000000  0.4858300000000 1.0
C      1  0.4858300000000  0.4863410000000  0.5811110000000 1.0
C      1  0.4858300000000  0.5136590000000  0.4188890000000 1.0
C      1  0.5141700000000  0.4863410000000  0.4188890000000 1.0
C      1  0.4188890000000  0.4858300000000  0.5136590000000 1.0
C      1  0.4188890000000  0.5141700000000  0.4863410000000 1.0
C      1  0.5811110000000  0.4858300000000  0.4863410000000 1.0
C      1  0.5136590000000  0.5811110000000  0.4858300000000 1.0
C      1  0.5141700000000  0.5136590000000  0.4188890000000 1.0
C      1  0.5811110000000  0.5141700000000  0.4863410000000 1.0
C      1  0.4863410000000  0.4188890000000  0.4858300000000 1.0
C      1  0.4863410000000  0.5811110000000  0.5141700000000 1.0
C      1  0.5136590000000  0.4188890000000  0.5141700000000 1.0
C      1  0.4858300000000  0.4863410000000  0.4188890000000 1.0
C      1  0.4858300000000  0.5136590000000  0.5811110000000 1.0
C      1  0.5141700000000  0.4863410000000  0.5811110000000 1.0
C      1  0.4188890000000  0.4858300000000  0.4863410000000 1.0
C      1  0.4188890000000  0.5141700000000  0.5136590000000 1.0
C      1  0.5811110000000  0.4858300000000  0.5136590000000 1.0
C      1  0.4436110000000  0.4659480000000  0.4436610000000 1.0
C      1  0.4436610000000  0.4436110000000  0.4659480000000 1.0
C      1  0.4659480000000  0.4436610000000  0.4436110000000 1.0
C      1  0.5563890000000  0.5340520000000  0.4436610000000 1.0
C      1  0.5563890000000  0.4659480000000  0.5563390000000 1.0
C      1  0.4436110000000  0.5340520000000  0.5563390000000 1.0
C      1  0.5563390000000  0.5563890000000  0.4659480000000 1.0
C      1  0.5563390000000  0.4436110000000  0.5340520000000 1.0
C      1  0.4436610000000  0.5563890000000  0.5340520000000 1.0
C      1  0.5340520000000  0.5563390000000  0.4436110000000 1.0
C      1  0.5340520000000  0.4436610000000  0.5563890000000 1.0
C      1  0.4659480000000  0.5563390000000  0.5563890000000 1.0
C      1  0.4436110000000  0.4659480000000  0.5563390000000 1.0
C      1  0.4436610000000  0.4436110000000  0.5340520000000 1.0
C      1  0.4659480000000  0.4436610000000  0.5563890000000 1.0
C      1  0.5563890000000  0.5340520000000  0.5563390000000 1.0
C      1  0.5563890000000  0.4659480000000  0.4436610000000 1.0
C      1  0.4436110000000  0.5340520000000  0.4436610000000 1.0
C      1  0.5563390000000  0.5563890000000  0.5340520000000 1.0
C      1  0.5563390000000  0.4436110000000  0.4659480000000 1.0
C      1  0.4436610000000  0.5563890000000  0.4659480000000 1.0
C      1  0.5340520000000  0.5563390000000  0.5563890000000 1.0
C      1  0.5340520000000  0.4436610000000  0.4436110000000 1.0
C      1  0.4659480000000  0.5563390000000  0.4436110000000 1.0
C      1  0.5136660000000  0.4473070000000  0.4717460000000 1.0
C      1  0.4717460000000  0.5136660000000  0.4473070000000 1.0
C      1  0.4473070000000  0.4717460000000  0.5136660000000 1.0
C      1  0.4863340000000  0.5526930000000  0.4717460000000 1.0
C      1  0.4863340000000  0.4473070000000  0.5282540000000 1.0
C      1  0.5136660000000  0.5526930000000  0.5282540000000 1.0
C      1  0.5282540000000  0.4863340000000  0.4473070000000 1.0
C      1  0.5282540000000  0.5136660000000  0.5526930000000 1.0
C      1  0.4717460000000  0.4863340000000  0.5526930000000 1.0
C      1  0.5526930000000  0.5282540000000  0.5136660000000 1.0
C      1  0.5526930000000  0.4717460000000  0.4863340000000 1.0
C      1  0.4473070000000  0.5282540000000  0.4863340000000 1.0
C      1  0.5136660000000  0.4473070000000  0.5282540000000 1.0
C      1  0.4717460000000  0.5136660000000  0.5526930000000 1.0
C      1  0.4473070000000  0.4717460000000  0.4863340000000 1.0
C      1  0.4863340000000  0.5526930000000  0.5282540000000 1.0
C      1  0.4863340000000  0.4473070000000  0.4717460000000 1.0
C      1  0.5136660000000  0.5526930000000  0.4717460000000 1.0
C      1  0.5282540000000  0.4863340000000  0.5526930000000 1.0
C      1  0.5282540000000  0.5136660000000  0.4473070000000 1.0
C      1  0.4717460000000  0.4863340000000  0.4473070000000 1.0
C      1  0.5526930000000  0.5282540000000  0.4863340000000 1.0
C      1  0.5526930000000  0.4717460000000  0.5136660000000 1.0
C      1  0.4473070000000  0.5282540000000  0.5136660000000 1.0
C      1  0.4863220000000  0.5458450000000  0.4344070000000 1.0
C      1  0.4344070000000  0.4863220000000  0.5458450000000 1.0
C      1  0.5458450000000  0.4344070000000  0.4863220000000 1.0
C      1  0.5136780000000  0.4541550000000  0.4344070000000 1.0
C      1  0.5136780000000  0.5458450000000  0.5655930000000 1.0
C      1  0.4863220000000  0.4541550000000  0.5655930000000 1.0
C      1  0.5655930000000  0.5136780000000  0.5458450000000 1.0
C      1  0.5655930000000  0.4863220000000  0.4541550000000 1.0
C      1  0.4344070000000  0.5136780000000  0.4541550000000 1.0
C      1  0.4541550000000  0.5655930000000  0.4863220000000 1.0
C      1  0.4541550000000  0.4344070000000  0.5136780000000 1.0
C      1  0.5458450000000  0.5655930000000  0.5136780000000 1.0
C      1  0.4863220000000  0.5458450000000  0.5655930000000 1.0
C      1  0.4344070000000  0.4863220000000  0.4541550000000 1.0
C      1  0.5458450000000  0.4344070000000  0.5136780000000 1.0
C      1  0.5136780000000  0.4541550000000  0.5655930000000 1.0
C      1  0.5136780000000  0.5458450000000  0.4344070000000 1.0
C      1  0.4863220000000  0.4541550000000  0.4344070000000 1.0
C      1  0.5655930000000  0.5136780000000  0.4541550000000 1.0
C      1  0.5655930000000  0.4863220000000  0.5458450000000 1.0
C      1  0.4344070000000  0.5136780000000  0.5458450000000 1.0
C      1  0.4541550000000  0.5655930000000  0.5136780000000 1.0
C      1  0.4541550000000  0.4344070000000  0.4863220000000 1.0
C      1  0.5458450000000  0.5655930000000  0.4863220000000 1.0
C      1  0.5269760000000  0.5499550000000  0.4732340000000 1.0
C      1  0.4732340000000  0.5269760000000  0.5499550000000 1.0
C      1  0.5499550000000  0.4732340000000  0.5269760000000 1.0
C      1  0.4730240000000  0.4500450000000  0.4732340000000 1.0
C      1  0.4730240000000  0.5499550000000  0.5267660000000 1.0
C      1  0.5269760000000  0.4500450000000  0.5267660000000 1.0
C      1  0.5267660000000  0.4730240000000  0.5499550000000 1.0
C      1  0.5267660000000  0.5269760000000  0.4500450000000 1.0
C      1  0.4732340000000  0.4730240000000  0.4500450000000 1.0
C      1  0.4500450000000  0.5267660000000  0.5269760000000 1.0
C      1  0.4500450000000  0.4732340000000  0.4730240000000 1.0
C      1  0.5499550000000  0.5267660000000  0.4730240000000 1.0
C      1  0.5269760000000  0.5499550000000  0.5267660000000 1.0
C      1  0.4732340000000  0.5269760000000  0.4500450000000 1.0
C      1  0.5499550000000  0.4732340000000  0.4730240000000 1.0
C      1  0.4730240000000  0.4500450000000  0.5267660000000 1.0
C      1  0.4730240000000  0.5499550000000  0.4732340000000 1.0
C      1  0.5269760000000  0.4500450000000  0.4732340000000 1.0
C      1  0.5267660000000  0.4730240000000  0.4500450000000 1.0
C      1  0.5267660000000  0.5269760000000  0.5499550000000 1.0
C      1  0.4732340000000  0.4730240000000  0.5499550000000 1.0
C      1  0.4500450000000  0.5267660000000  0.4730240000000 1.0
C      1  0.4500450000000  0.4732340000000  0.5269760000000 1.0
C      1  0.5499550000000  0.5267660000000  0.5269760000000 1.0
C      1  0.4927930000000  0.5379490000000  0.5755210000000 1.0
C      1  0.5755210000000  0.4927930000000  0.5379490000000 1.0
C      1  0.5379490000000  0.5755210000000  0.4927930000000 1.0
C      1  0.5072070000000  0.4620510000000  0.5755210000000 1.0
C      1  0.5072070000000  0.5379490000000  0.4244790000000 1.0
C      1  0.4927930000000  0.4620510000000  0.4244790000000 1.0
C      1  0.4244790000000  0.5072070000000  0.5379490000000 1.0
C      1  0.4244790000000  0.4927930000000  0.4620510000000 1.0
C      1  0.5755210000000  0.5072070000000  0.4620510000000 1.0
C      1  0.4620510000000  0.4244790000000  0.4927930000000 1.0
C      1  0.4620510000000  0.5755210000000  0.5072070000000 1.0
C      1  0.5379490000000  0.4244790000000  0.5072070000000 1.0
C      1  0.4927930000000  0.5379490000000  0.4244790000000 1.0
C      1  0.5755210000000  0.4927930000000  0.4620510000000 1.0
C      1  0.5379490000000  0.5755210000000  0.5072070000000 1.0
C      1  0.5072070000000  0.4620510000000  0.4244790000000 1.0
C      1  0.5072070000000  0.5379490000000  0.5755210000000 1.0
C      1  0.4927930000000  0.4620510000000  0.5755210000000 1.0
C      1  0.4244790000000  0.5072070000000  0.4620510000000 1.0
C      1  0.4244790000000  0.4927930000000  0.5379490000000 1.0
C      1  0.5755210000000  0.5072070000000  0.5379490000000 1.0
C      1  0.4620510000000  0.4244790000000  0.5072070000000 1.0
C      1  0.4620510000000  0.5755210000000  0.4927930000000 1.0
C      1  0.5379490000000  0.4244790000000  0.4927930000000 1.0
C      1  0.5075650000000  0.5076370000000  0.4304000000000 1.0
C      1  0.4304000000000  0.5075650000000  0.5076370000000 1.0
C      1  0.5076370000000  0.4304000000000  0.5075650000000 1.0
C      1  0.4924350000000  0.4923630000000  0.4304000000000 1.0
C      1  0.4924350000000  0.5076370000000  0.5696000000000 1.0
C      1  0.5075650000000  0.4923630000000  0.5696000000000 1.0
C      1  0.5696000000000  0.4924350000000  0.5076370000000 1.0
C      1  0.5696000000000  0.5075650000000  0.4923630000000 1.0
C      1  0.4304000000000  0.4924350000000  0.4923630000000 1.0
C      1  0.4923630000000  0.5696000000000  0.5075650000000 1.0
C      1  0.4923630000000  0.4304000000000  0.4924350000000 1.0
C      1  0.5076370000000  0.5696000000000  0.4924350000000 1.0
C      1  0.5075650000000  0.5076370000000  0.5696000000000 1.0
C      1  0.4304000000000  0.5075650000000  0.4923630000000 1.0
C      1  0.5076370000000  0.4304000000000  0.4924350000000 1.0
C      1  0.4924350000000  0.4923630000000  0.5696000000000 1.0
C      1  0.4924350000000  0.5076370000000  0.4304000000000 1.0
C      1  0.5075650000000  0.4923630000000  0.4304000000000 1.0
C      1  0.5696000000000  0.4924350000000  0.4923630000000 1.0
C      1  0.5696000000000  0.5075650000000  0.5076370000000 1.0
C      1  0.4304000000000  0.4924350000000  0.5076370000000 1.0
C      1  0.4923630000000  0.5696000000000  0.4924350000000 1.0
C      1  0.4923630000000  0.4304000000000  0.5075650000000 1.0
C      1  0.5076370000000  0.5696000000000  0.5075650000000 1.0
C      1  0.5164250000000  0.5800200000000  0.5362260000000 1.0
C      1  0.5362260000000  0.5164250000000  0.5800200000000 1.0
C      1  0.5800200000000  0.5362260000000  0.5164250000000 1.0
C      1  0.4835750000000  0.4199800000000  0.5362260000000 1.0
C      1  0.4835750000000  0.5800200000000  0.4637740000000 1.0
C      1  0.5164250000000  0.4199800000000  0.4637740000000 1.0
C      1  0.4637740000000  0.4835750000000  0.5800200000000 1.0
C      1  0.4637740000000  0.5164250000000  0.4199800000000 1.0
C      1  0.5362260000000  0.4835750000000  0.4199800000000 1.0
C      1  0.4199800000000  0.4637740000000  0.5164250000000 1.0
C      1  0.4199800000000  0.5362260000000  0.4835750000000 1.0
C      1  0.5800200000000  0.4637740000000  0.4835750000000 1.0
C      1  0.5164250000000  0.5800200000000  0.4637740000000 1.0
C      1  0.5362260000000  0.5164250000000  0.4199800000000 1.0
C      1  0.5800200000000  0.5362260000000  0.4835750000000 1.0
C      1  0.4835750000000  0.4199800000000  0.4637740000000 1.0
C      1  0.4835750000000  0.5800200000000  0.5362260000000 1.0
C      1  0.5164250000000  0.4199800000000  0.5362260000000 1.0
C      1  0.4637740000000  0.4835750000000  0.4199800000000 1.0
C      1  0.4637740000000  0.5164250000000  0.5800200000000 1.0
C      1  0.5362260000000  0.4835750000000  0.5800200000000 1.0
C      1  0.4199800000000  0.4637740000000  0.4835750000000 1.0
C      1  0.4199800000000  0.5362260000000  0.5164250000000 1.0
C      1  0.5800200000000  0.4637740000000  0.5164250000000 1.0
C      1  0.4700140000000  0.4704860000000  0.4193370000000 1.0
C      1  0.4193370000000  0.4700140000000  0.4704860000000 1.0
C      1  0.4704860000000  0.4193370000000  0.4700140000000 1.0
C      1  0.5299860000000  0.5295140000000  0.4193370000000 1.0
C      1  0.5299860000000  0.4704860000000  0.5806630000000 1.0
C      1  0.4700140000000  0.5295140000000  0.5806630000000 1.0
C      1  0.5806630000000  0.5299860000000  0.4704860000000 1.0
C      1  0.5806630000000  0.4700140000000  0.5295140000000 1.0
C      1  0.4193370000000  0.5299860000000  0.5295140000000 1.0
C      1  0.5295140000000  0.5806630000000  0.4700140000000 1.0
C      1  0.5295140000000  0.4193370000000  0.5299860000000 1.0
C      1  0.4704860000000  0.5806630000000  0.5299860000000 1.0
C      1  0.4700140000000  0.4704860000000  0.5806630000000 1.0
C      1  0.4193370000000  0.4700140000000  0.5295140000000 1.0
C      1  0.4704860000000  0.4193370000000  0.5299860000000 1.0
C      1  0.5299860000000  0.5295140000000  0.5806630000000 1.0
C      1  0.5299860000000  0.4704860000000  0.4193370000000 1.0
C      1  0.4700140000000  0.5295140000000  0.4193370000000 1.0
C      1  0.5806630000000  0.5299860000000  0.5295140000000 1.0
C      1  0.5806630000000  0.4700140000000  0.4704860000000 1.0
C      1  0.4193370000000  0.5299860000000  0.4704860000000 1.0
C      1  0.5295140000000  0.5806630000000  0.5299860000000 1.0
C      1  0.5295140000000  0.4193370000000  0.4700140000000 1.0
C      1  0.4704860000000  0.5806630000000  0.4700140000000 1.0
C      1  0.5841490000000  0.4735040000000  0.5069590000000 1.0
C      1  0.5069590000000  0.5841490000000  0.4735040000000 1.0
C      1  0.4735040000000  0.5069590000000  0.5841490000000 1.0
C      1  0.4158510000000  0.5264960000000  0.5069590000000 1.0
C      1  0.4158510000000  0.4735040000000  0.4930410000000 1.0
C      1  0.5841490000000  0.5264960000000  0.4930410000000 1.0
C      1  0.4930410000000  0.4158510000000  0.4735040000000 1.0
C      1  0.4930410000000  0.5841490000000  0.5264960000000 1.0
C      1  0.5069590000000  0.4158510000000  0.5264960000000 1.0
C      1  0.5264960000000  0.4930410000000  0.5841490000000 1.0
C      1  0.5264960000000  0.5069590000000  0.4158510000000 1.0
C      1  0.4735040000000  0.4930410000000  0.4158510000000 1.0
C      1  0.5841490000000  0.4735040000000  0.4930410000000 1.0
C      1  0.5069590000000  0.5841490000000  0.5264960000000 1.0
C      1  0.4735040000000  0.5069590000000  0.4158510000000 1.0
C      1  0.4158510000000  0.5264960000000  0.4930410000000 1.0
C      1  0.4158510000000  0.4735040000000  0.5069590000000 1.0
C      1  0.5841490000000  0.5264960000000  0.5069590000000 1.0
C      1  0.4930410000000  0.4158510000000  0.5264960000000 1.0
C      1  0.4930410000000  0.5841490000000  0.4735040000000 1.0
C      1  0.5069590000000  0.4158510000000  0.4735040000000 1.0
C      1  0.5264960000000  0.4930410000000  0.4158510000000 1.0
C      1  0.5264960000000  0.5069590000000  0.5841490000000 1.0
C      1  0.4735040000000  0.4930410000000  0.5841490000000 1.0
C      1  0.4693390000000  0.5470480000000  0.5137910000000 1.0
C      1  0.5137910000000  0.4693390000000  0.5470480000000 1.0
C      1  0.5470480000000  0.5137910000000  0.4693390000000 1.0
C      1  0.5306610000000  0.4529520000000  0.5137910000000 1.0
C      1  0.5306610000000  0.5470480000000  0.4862090000000 1.0
C      1  0.4693390000000  0.4529520000000  0.4862090000000 1.0
C      1  0.4862090000000  0.5306610000000  0.5470480000000 1.0
C      1  0.4862090000000  0.4693390000000  0.4529520000000 1.0
C      1  0.5137910000000  0.5306610000000  0.4529520000000 1.0
C      1  0.4529520000000  0.4862090000000  0.4693390000000 1.0
C      1  0.4529520000000  0.5137910000000  0.5306610000000 1.0
C      1  0.5470480000000  0.4862090000000  0.5306610000000 1.0
C      1  0.4693390000000  0.5470480000000  0.4862090000000 1.0
C      1  0.5137910000000  0.4693390000000  0.4529520000000 1.0
C      1  0.5470480000000  0.5137910000000  0.5306610000000 1.0
C      1  0.5306610000000  0.4529520000000  0.4862090000000 1.0
C      1  0.5306610000000  0.5470480000000  0.5137910000000 1.0
C      1  0.4693390000000  0.4529520000000  0.5137910000000 1.0
C      1  0.4862090000000  0.5306610000000  0.4529520000000 1.0
C      1  0.4862090000000  0.4693390000000  0.5470480000000 1.0
C      1  0.5137910000000  0.5306610000000  0.5470480000000 1.0
C      1  0.4529520000000  0.4862090000000  0.5306610000000 1.0
C      1  0.4529520000000  0.5137910000000  0.4693390000000 1.0
C      1  0.5470480000000  0.4862090000000  0.4693390000000 1.0
C      1  0.5516370000000  0.4921810000000  0.5441700000000 1.0
C      1  0.5441700000000  0.5516370000000  0.4921810000000 1.0
C      1  0.4921810000000  0.5441700000000  0.5516370000000 1.0
C      1  0.4483630000000  0.5078190000000  0.5441700000000 1.0
C      1  0.4483630000000  0.4921810000000  0.4558300000000 1.0
C      1  0.5516370000000  0.5078190000000  0.4558300000000 1.0
C      1  0.4558300000000  0.4483630000000  0.4921810000000 1.0
C      1  0.4558300000000  0.5516370000000  0.5078190000000 1.0
C      1  0.5441700000000  0.4483630000000  0.5078190000000 1.0
C      1  0.5078190000000  0.4558300000000  0.5516370000000 1.0
C      1  0.5078190000000  0.5441700000000  0.4483630000000 1.0
C      1  0.4921810000000  0.4558300000000  0.4483630000000 1.0
C      1  0.5516370000000  0.4921810000000  0.4558300000000 1.0
C      1  0.5441700000000  0.5516370000000  0.5078190000000 1.0
C      1  0.4921810000000  0.5441700000000  0.4483630000000 1.0
C      1  0.4483630000000  0.5078190000000  0.4558300000000 1.0
C      1  0.4483630000000  0.4921810000000  0.5441700000000 1.0
C      1  0.5516370000000  0.5078190000000  0.5441700000000 1.0
C      1  0.4558300000000  0.4483630000000  0.5078190000000 1.0
C      1  0.4558300000000  0.5516370000000  0.4921810000000 1.0
C      1  0.5441700000000  0.4483630000000  0.4921810000000 1.0
C      1  0.5078190000000  0.4558300000000  0.4483630000000 1.0
C      1  0.5078190000000  0.5441700000000  0.5516370000000 1.0
C      1  0.4921810000000  0.4558300000000  0.5516370000000 1.0
C      1  0.5281540000000  0.5480180000000  0.4345710000000 1.0
C      1  0.4345710000000  0.5281540000000  0.5480180000000 1.0
C      1  0.5480180000000  0.4345710000000  0.5281540000000 1.0
C      1  0.4718460000000  0.4519820000000  0.4345710000000 1.0
C      1  0.4718460000000  0.5480180000000  0.5654290000000 1.0
C      1  0.5281540000000  0.4519820000000  0.5654290000000 1.0
C      1  0.5654290000000  0.4718460000000  0.5480180000000 1.0
C      1  0.5654290000000  0.5281540000000  0.4519820000000 1.0
C      1  0.4345710000000  0.4718460000000  0.4519820000000 1.0
C      1  0.4519820000000  0.5654290000000  0.5281540000000 1.0
C      1  0.4519820000000  0.4345710000000  0.4718460000000 1.0
C      1  0.5480180000000  0.5654290000000  0.4718460000000 1.0
C      1  0.5281540000000  0.5480180000000  0.5654290000000 1.0
C      1  0.4345710000000  0.5281540000000  0.4519820000000 1.0
C      1  0.5480180000000  0.4345710000000  0.4718460000000 1.0
C      1  0.4718460000000  0.4519820000000  0.5654290000000 1.0
C      1  0.4718460000000  0.5480180000000  0.4345710000000 1.0
C      1  0.5281540000000  0.4519820000000  0.4345710000000 1.0
C      1  0.5654290000000  0.4718460000000  0.4519820000000 1.0
C      1  0.5654290000000  0.5281540000000  0.5480180000000 1.0
C      1  0.4345710000000  0.4718460000000  0.5480180000000 1.0
C      1  0.4519820000000  0.5654290000000  0.4718460000000 1.0
C      1  0.4519820000000  0.4345710000000  0.5281540000000 1.0
C      1  0.5480180000000  0.5654290000000  0.5281540000000 1.0
C      1  0.4345530000000  0.5472250000000  0.4693700000000 1.0
C      1  0.4693700000000  0.4345530000000  0.5472250000000 1.0
C      1  0.5472250000000  0.4693700000000  0.4345530000000 1.0
C      1  0.5654470000000  0.4527750000000  0.4693700000000 1.0
C      1  0.5654470000000  0.5472250000000  0.5306300000000 1.0
C      1  0.4345530000000  0.4527750000000  0.5306300000000 1.0
C      1  0.5306300000000  0.5654470000000  0.5472250000000 1.0
C      1  0.5306300000000  0.4345530000000  0.4527750000000 1.0
C      1  0.4693700000000  0.5654470000000  0.4527750000000 1.0
C      1  0.4527750000000  0.5306300000000  0.4345530000000 1.0
C      1  0.4527750000000  0.4693700000000  0.5654470000000 1.0
C      1  0.5472250000000  0.5306300000000  0.5654470000000 1.0
C      1  0.4345530000000  0.5472250000000  0.5306300000000 1.0
C      1  0.4693700000000  0.4345530000000  0.4527750000000 1.0
C      1  0.5472250000000  0.4693700000000  0.5654470000000 1.0
C      1  0.5654470000000  0.4527750000000  0.5306300000000 1.0
C      1  0.5654470000000  0.5472250000000  0.4693700000000 1.0
C      1  0.4345530000000  0.4527750000000  0.4693700000000 1.0
C      1  0.5306300000000  0.5654470000000  0.4527750000000 1.0
C      1  0.5306300000000  0.4345530000000  0.5472250000000 1.0
C      1  0.4693700000000  0.5654470000000  0.5472250000000 1.0
C      1  0.4527750000000  0.5306300000000  0.5654470000000 1.0
C      1  0.4527750000000  0.4693700000000  0.4345530000000 1.0
C      1  0.5472250000000  0.5306300000000  0.4345530000000 1.0
C      1  0.5068330000000  0.4817650000000  0.4528040000000 1.0
C      1  0.4528040000000  0.5068330000000  0.4817650000000 1.0
C      1  0.4817650000000  0.4528040000000  0.5068330000000 1.0
C      1  0.4931670000000  0.5182350000000  0.4528040000000 1.0
C      1  0.4931670000000  0.4817650000000  0.5471960000000 1.0
C      1  0.5068330000000  0.5182350000000  0.5471960000000 1.0
C      1  0.5471960000000  0.4931670000000  0.4817650000000 1.0
C      1  0.5471960000000  0.5068330000000  0.5182350000000 1.0
C      1  0.4528040000000  0.4931670000000  0.5182350000000 1.0
C      1  0.5182350000000  0.5471960000000  0.5068330000000 1.0
C      1  0.5182350000000  0.4528040000000  0.4931670000000 1.0
C      1  0.4817650000000  0.5471960000000  0.4931670000000 1.0
C      1  0.5068330000000  0.4817650000000  0.5471960000000 1.0
C      1  0.4528040000000  0.5068330000000  0.5182350000000 1.0
C      1  0.4817650000000  0.4528040000000  0.4931670000000 1.0
C      1  0.4931670000000  0.5182350000000  0.5471960000000 1.0
C      1  0.4931670000000  0.4817650000000  0.4528040000000 1.0
C      1  0.5068330000000  0.5182350000000  0.4528040000000 1.0
C      1  0.5471960000000  0.4931670000000  0.5182350000000 1.0
C      1  0.5471960000000  0.5068330000000  0.4817650000000 1.0
C      1  0.4528040000000  0.4931670000000  0.4817650000000 1.0
C      1  0.5182350000000  0.5471960000000  0.4931670000000 1.0
C      1  0.5182350000000  0.4528040000000  0.5068330000000 1.0
C      1  0.4817650000000  0.5471960000000  0.5068330000000 1.0
END
