TITL C-1379268-1316-66 -4.55747646351888e-07 1000000 -1408.43098920084 0 0 200 (Th) n - 1
REM
REM in /nfs/bkarasulu/CARBON/AIRSS/Generating-Clusters/GAP-ML-2020/Higher-Symm/Selected-Sizes/TryA-Only_Ih-Symm/Larger-Clusters/Try2-MINAMP_6A
REM
REM
REM
REM
REM
REM ./C.cell (31579ac4e95a012ec27f3239692ae8a5)
REM
REM compiler GCC version 9.2.1 20190827 (Red Hat 9.2.1-1)
REM options -cpp -mtune=generic -march=x86-64 -g -O0 -fpre-include=/usr/include/finclude/math-vector-fortran.h
REM seed 1250125784 -1878838014 -1824582271 -335068578 -1073749351 835153209 1890983556 2035462360 -163607463 -1537831287 -90673073 -134790650 61123063 -338268501 -561723888 -1866824828 -758090638 59079065 740464602 -1438253709 -763094197 -836855842 1914661642 302930192 1048091027 -879528935 -835402067 427544619 1832511319 -1218013714 1050514180 -1865620055 -560545435
REM
CELL 1.54180  100.00000  100.00000  100.00000   90.00000   90.00000   90.00000
LATT -1
SFAC C  
C      1  0.4796310000000  0.5186350000000  0.5665430000000 1.0
C      1  0.5660690000000  0.4793120000000  0.5194280000000 1.0
C      1  0.5189540000000  0.5657500000000  0.4801050000000 1.0
C      1  0.4796310000000  0.4804170000000  0.4340960000000 1.0
C      1  0.5200590000000  0.4804170000000  0.5665430000000 1.0
C      1  0.5200590000000  0.5186350000000  0.4340960000000 1.0
C      1  0.5660690000000  0.5197400000000  0.4812100000000 1.0
C      1  0.4336220000000  0.5197400000000  0.5194280000000 1.0
C      1  0.4336220000000  0.4793120000000  0.4812100000000 1.0
C      1  0.5189540000000  0.4333020000000  0.5205330000000 1.0
C      1  0.4807360000000  0.4333020000000  0.4801050000000 1.0
C      1  0.4807360000000  0.5657500000000  0.5205330000000 1.0
C      1  0.5200590000000  0.5186350000000  0.5665430000000 1.0
C      1  0.4336220000000  0.4793120000000  0.5194280000000 1.0
C      1  0.4807360000000  0.5657500000000  0.4801050000000 1.0
C      1  0.5200590000000  0.4804170000000  0.4340960000000 1.0
C      1  0.4796310000000  0.4804170000000  0.5665430000000 1.0
C      1  0.4796310000000  0.5186350000000  0.4340960000000 1.0
C      1  0.4336220000000  0.5197400000000  0.4812100000000 1.0
C      1  0.5660690000000  0.5197400000000  0.5194280000000 1.0
C      1  0.5660690000000  0.4793120000000  0.4812100000000 1.0
C      1  0.4807360000000  0.4333020000000  0.5205330000000 1.0
C      1  0.5189540000000  0.4333020000000  0.4801050000000 1.0
C      1  0.5189540000000  0.5657500000000  0.5205330000000 1.0
C      1  0.4497580000000  0.4544970000000  0.5151060000000 1.0
C      1  0.5146320000000  0.4494390000000  0.4552900000000 1.0
C      1  0.4548160000000  0.5143130000000  0.4502320000000 1.0
C      1  0.4497580000000  0.5445550000000  0.4855320000000 1.0
C      1  0.5499320000000  0.5445550000000  0.5151060000000 1.0
C      1  0.5499320000000  0.4544970000000  0.4855320000000 1.0
C      1  0.5146320000000  0.5496130000000  0.5453480000000 1.0
C      1  0.4850580000000  0.5496130000000  0.4552900000000 1.0
C      1  0.4850580000000  0.4494390000000  0.5453480000000 1.0
C      1  0.4548160000000  0.4847390000000  0.5504060000000 1.0
C      1  0.5448740000000  0.4847390000000  0.4502320000000 1.0
C      1  0.5448740000000  0.5143130000000  0.5504060000000 1.0
C      1  0.5499320000000  0.4544970000000  0.5151060000000 1.0
C      1  0.4850580000000  0.4494390000000  0.4552900000000 1.0
C      1  0.5448740000000  0.5143130000000  0.4502320000000 1.0
C      1  0.5499320000000  0.5445550000000  0.4855320000000 1.0
C      1  0.4497580000000  0.5445550000000  0.5151060000000 1.0
C      1  0.4497580000000  0.4544970000000  0.4855320000000 1.0
C      1  0.4850580000000  0.5496130000000  0.5453480000000 1.0
C      1  0.5146320000000  0.5496130000000  0.4552900000000 1.0
C      1  0.5146320000000  0.4494390000000  0.5453480000000 1.0
C      1  0.5448740000000  0.4847390000000  0.5504060000000 1.0
C      1  0.4548160000000  0.4847390000000  0.4502320000000 1.0
C      1  0.4548160000000  0.5143130000000  0.5504060000000 1.0
C      1  0.4403750000000  0.5142210000000  0.4695520000000 1.0
C      1  0.4690780000000  0.4400560000000  0.5150140000000 1.0
C      1  0.5145400000000  0.4687590000000  0.4408490000000 1.0
C      1  0.4403750000000  0.4848310000000  0.5310860000000 1.0
C      1  0.5593150000000  0.4848310000000  0.4695520000000 1.0
C      1  0.5593150000000  0.5142210000000  0.5310860000000 1.0
C      1  0.4690780000000  0.5589960000000  0.4856240000000 1.0
C      1  0.5306120000000  0.5589960000000  0.5150140000000 1.0
C      1  0.5306120000000  0.4400560000000  0.4856240000000 1.0
C      1  0.5145400000000  0.5302930000000  0.5597890000000 1.0
C      1  0.4851500000000  0.5302930000000  0.4408490000000 1.0
C      1  0.4851500000000  0.4687590000000  0.5597890000000 1.0
C      1  0.5593150000000  0.5142210000000  0.4695520000000 1.0
C      1  0.5306120000000  0.4400560000000  0.5150140000000 1.0
C      1  0.4851500000000  0.4687590000000  0.4408490000000 1.0
C      1  0.5593150000000  0.4848310000000  0.5310860000000 1.0
C      1  0.4403750000000  0.4848310000000  0.4695520000000 1.0
C      1  0.4403750000000  0.5142210000000  0.5310860000000 1.0
C      1  0.5306120000000  0.5589960000000  0.4856240000000 1.0
C      1  0.4690780000000  0.5589960000000  0.5150140000000 1.0
C      1  0.4690780000000  0.4400560000000  0.4856240000000 1.0
C      1  0.4851500000000  0.5302930000000  0.5597890000000 1.0
C      1  0.5145400000000  0.5302930000000  0.4408490000000 1.0
C      1  0.5145400000000  0.4687590000000  0.5597890000000 1.0
C      1  0.5408750000000  0.4461700000000  0.5073070000000 1.0
C      1  0.5068330000000  0.5405560000000  0.4469630000000 1.0
C      1  0.4464890000000  0.5065140000000  0.5413490000000 1.0
C      1  0.5408750000000  0.5528820000000  0.4933310000000 1.0
C      1  0.4588150000000  0.5528820000000  0.5073070000000 1.0
C      1  0.4588150000000  0.4461700000000  0.4933310000000 1.0
C      1  0.5068330000000  0.4584960000000  0.5536750000000 1.0
C      1  0.4928570000000  0.4584960000000  0.4469630000000 1.0
C      1  0.4928570000000  0.5405560000000  0.5536750000000 1.0
C      1  0.4464890000000  0.4925380000000  0.4592890000000 1.0
C      1  0.5532010000000  0.4925380000000  0.5413490000000 1.0
C      1  0.5532010000000  0.5065140000000  0.4592890000000 1.0
C      1  0.4588150000000  0.4461700000000  0.5073070000000 1.0
C      1  0.4928570000000  0.5405560000000  0.4469630000000 1.0
C      1  0.5532010000000  0.5065140000000  0.5413490000000 1.0
C      1  0.4588150000000  0.5528820000000  0.4933310000000 1.0
C      1  0.5408750000000  0.5528820000000  0.5073070000000 1.0
C      1  0.5408750000000  0.4461700000000  0.4933310000000 1.0
C      1  0.4928570000000  0.4584960000000  0.5536750000000 1.0
C      1  0.5068330000000  0.4584960000000  0.4469630000000 1.0
C      1  0.5068330000000  0.5405560000000  0.5536750000000 1.0
C      1  0.5532010000000  0.4925380000000  0.4592890000000 1.0
C      1  0.4464890000000  0.4925380000000  0.5413490000000 1.0
C      1  0.4464890000000  0.5065140000000  0.4592890000000 1.0
C      1  0.5382110000000  0.5272790000000  0.5487800000000 1.0
C      1  0.5483060000000  0.5378920000000  0.5280720000000 1.0
C      1  0.5275980000000  0.5479870000000  0.5386850000000 1.0
C      1  0.5382110000000  0.4717730000000  0.4518580000000 1.0
C      1  0.4614790000000  0.4717730000000  0.5487800000000 1.0
C      1  0.4614790000000  0.5272790000000  0.4518580000000 1.0
C      1  0.5483060000000  0.4611600000000  0.4725660000000 1.0
C      1  0.4513840000000  0.4611600000000  0.5280720000000 1.0
C      1  0.4513840000000  0.5378920000000  0.4725660000000 1.0
C      1  0.5275980000000  0.4510650000000  0.4619530000000 1.0
C      1  0.4720920000000  0.4510650000000  0.5386850000000 1.0
C      1  0.4720920000000  0.5479870000000  0.4619530000000 1.0
C      1  0.4614790000000  0.5272790000000  0.5487800000000 1.0
C      1  0.4513840000000  0.5378920000000  0.5280720000000 1.0
C      1  0.4720920000000  0.5479870000000  0.5386850000000 1.0
C      1  0.4614790000000  0.4717730000000  0.4518580000000 1.0
C      1  0.5382110000000  0.4717730000000  0.5487800000000 1.0
C      1  0.5382110000000  0.5272790000000  0.4518580000000 1.0
C      1  0.4513840000000  0.4611600000000  0.4725660000000 1.0
C      1  0.5483060000000  0.4611600000000  0.5280720000000 1.0
C      1  0.5483060000000  0.5378920000000  0.4725660000000 1.0
C      1  0.4720920000000  0.4510650000000  0.4619530000000 1.0
C      1  0.5275980000000  0.4510650000000  0.5386850000000 1.0
C      1  0.5275980000000  0.5479870000000  0.4619530000000 1.0
C      1  0.5073070000000  0.5671750000000  0.5273350000000 1.0
C      1  0.5268610000000  0.5069880000000  0.5679680000000 1.0
C      1  0.5674940000000  0.5265420000000  0.5077810000000 1.0
C      1  0.5073070000000  0.4318770000000  0.4733030000000 1.0
C      1  0.4923830000000  0.4318770000000  0.5273350000000 1.0
C      1  0.4923830000000  0.5671750000000  0.4733030000000 1.0
C      1  0.5268610000000  0.4920640000000  0.4326700000000 1.0
C      1  0.4728290000000  0.4920640000000  0.5679680000000 1.0
C      1  0.4728290000000  0.5069880000000  0.4326700000000 1.0
C      1  0.5674940000000  0.4725100000000  0.4928570000000 1.0
C      1  0.4321960000000  0.4725100000000  0.5077810000000 1.0
C      1  0.4321960000000  0.5265420000000  0.4928570000000 1.0
C      1  0.4923830000000  0.5671750000000  0.5273350000000 1.0
C      1  0.4728290000000  0.5069880000000  0.5679680000000 1.0
C      1  0.4321960000000  0.5265420000000  0.5077810000000 1.0
C      1  0.4923830000000  0.4318770000000  0.4733030000000 1.0
C      1  0.5073070000000  0.4318770000000  0.5273350000000 1.0
C      1  0.5073070000000  0.5671750000000  0.4733030000000 1.0
C      1  0.4728290000000  0.4920640000000  0.4326700000000 1.0
C      1  0.5268610000000  0.4920640000000  0.5679680000000 1.0
C      1  0.5268610000000  0.5069880000000  0.4326700000000 1.0
C      1  0.4321960000000  0.4725100000000  0.4928570000000 1.0
C      1  0.5674940000000  0.4725100000000  0.5077810000000 1.0
C      1  0.5674940000000  0.5265420000000  0.4928570000000 1.0
C      1  0.5399300000000  0.4924490000000  0.4396850000000 1.0
C      1  0.4392110000000  0.5396110000000  0.4932420000000 1.0
C      1  0.4927680000000  0.4388920000000  0.5404040000000 1.0
C      1  0.5399300000000  0.5066030000000  0.5609530000000 1.0
C      1  0.4597600000000  0.5066030000000  0.4396850000000 1.0
C      1  0.4597600000000  0.4924490000000  0.5609530000000 1.0
C      1  0.4392110000000  0.4594410000000  0.5073960000000 1.0
C      1  0.5604790000000  0.4594410000000  0.4932420000000 1.0
C      1  0.5604790000000  0.5396110000000  0.5073960000000 1.0
C      1  0.4927680000000  0.5601600000000  0.4602340000000 1.0
C      1  0.5069220000000  0.5601600000000  0.5404040000000 1.0
C      1  0.5069220000000  0.4388920000000  0.4602340000000 1.0
C      1  0.4597600000000  0.4924490000000  0.4396850000000 1.0
C      1  0.5604790000000  0.5396110000000  0.4932420000000 1.0
C      1  0.5069220000000  0.4388920000000  0.5404040000000 1.0
C      1  0.4597600000000  0.5066030000000  0.5609530000000 1.0
C      1  0.5399300000000  0.5066030000000  0.4396850000000 1.0
C      1  0.5399300000000  0.4924490000000  0.5609530000000 1.0
C      1  0.5604790000000  0.4594410000000  0.5073960000000 1.0
C      1  0.4392110000000  0.4594410000000  0.4932420000000 1.0
C      1  0.4392110000000  0.5396110000000  0.5073960000000 1.0
C      1  0.5069220000000  0.5601600000000  0.4602340000000 1.0
C      1  0.4927680000000  0.5601600000000  0.5404040000000 1.0
C      1  0.4927680000000  0.4388920000000  0.4602340000000 1.0
C      1  0.4720680000000  0.4711070000000  0.4428390000000 1.0
C      1  0.4423650000000  0.4717490000000  0.4719000000000 1.0
C      1  0.4714260000000  0.4420460000000  0.4725420000000 1.0
C      1  0.4720680000000  0.5279450000000  0.5577990000000 1.0
C      1  0.5276220000000  0.5279450000000  0.4428390000000 1.0
C      1  0.5276220000000  0.4711070000000  0.5577990000000 1.0
C      1  0.4423650000000  0.5273030000000  0.5287380000000 1.0
C      1  0.5573250000000  0.5273030000000  0.4719000000000 1.0
C      1  0.5573250000000  0.4717490000000  0.5287380000000 1.0
C      1  0.4714260000000  0.5570060000000  0.5280960000000 1.0
C      1  0.5282640000000  0.5570060000000  0.4725420000000 1.0
C      1  0.5282640000000  0.4420460000000  0.5280960000000 1.0
C      1  0.5276220000000  0.4711070000000  0.4428390000000 1.0
C      1  0.5573250000000  0.4717490000000  0.4719000000000 1.0
C      1  0.5282640000000  0.4420460000000  0.4725420000000 1.0
C      1  0.5276220000000  0.5279450000000  0.5577990000000 1.0
C      1  0.4720680000000  0.5279450000000  0.4428390000000 1.0
C      1  0.4720680000000  0.4711070000000  0.5577990000000 1.0
C      1  0.5573250000000  0.5273030000000  0.5287380000000 1.0
C      1  0.4423650000000  0.5273030000000  0.4719000000000 1.0
C      1  0.4423650000000  0.4717490000000  0.5287380000000 1.0
C      1  0.5282640000000  0.5570060000000  0.5280960000000 1.0
C      1  0.4714260000000  0.5570060000000  0.4725420000000 1.0
C      1  0.4714260000000  0.4420460000000  0.5280960000000 1.0
C      1  0.5382760000000  0.5379570000000  0.4618880000000 1.0
C      1  0.4614140000000  0.5379570000000  0.5387500000000 1.0
C      1  0.5382760000000  0.4610950000000  0.5387500000000 1.0
C      1  0.4614140000000  0.4610950000000  0.4618880000000 1.0
C      1  0.4614140000000  0.5379570000000  0.4618880000000 1.0
C      1  0.5382760000000  0.5379570000000  0.5387500000000 1.0
C      1  0.4614140000000  0.4610950000000  0.5387500000000 1.0
C      1  0.5382760000000  0.4610950000000  0.4618880000000 1.0
END
