TITL C-1379268-1316-191 4.11632856962075e-08 1000000 -2083.84936572438 0 0 300 (C3) n - 1
REM
REM in /nfs/bkarasulu/CARBON/AIRSS/Generating-Clusters/GAP-ML-2020/Higher-Symm/Selected-Sizes/TryA-Only_Ih-Symm/Larger-Clusters/Try2-MINAMP_6A
REM
REM
REM
REM
REM
REM ./C.cell (31579ac4e95a012ec27f3239692ae8a5)
REM
REM compiler GCC version 9.2.1 20190827 (Red Hat 9.2.1-1)
REM options -cpp -mtune=generic -march=x86-64 -g -O0 -fpre-include=/usr/include/finclude/math-vector-fortran.h
REM seed 893415510 -683146611 217359696 597828845 1368538057 2076117081 1507163594 847887803 2002843193 1557493601 1898936117 -627549308 1589760989 -1646318996 1391553092 -617517041 960569750 1641237535 -1642201502 -1361926028 1179972441 1094354922 -1852768264 -301926539 930874984 -2001302964 1426271238 -450335710 -1757609268 1683801662 -2010145406 1823944752 2042150962
REM
CELL 1.54180  100.00000  100.00000  100.00000   90.00000   90.00000   90.00000
LATT -1
SFAC C  
C      1  0.5348830000000  0.4716640000000  0.4116510000000 1.0
C      1  0.4116550000000  0.5348910000000  0.4716620000000 1.0
C      1  0.4716560000000  0.4116580000000  0.5348890000000 1.0
C      1  0.5424540000000  0.5289870000000  0.5898080000000 1.0
C      1  0.4641100000000  0.5295460000000  0.4097570000000 1.0
C      1  0.4617530000000  0.4699560000000  0.5887210000000 1.0
C      1  0.4097570000000  0.4641170000000  0.5295420000000 1.0
C      1  0.5887190000000  0.4617510000000  0.4699570000000 1.0
C      1  0.5898060000000  0.5424500000000  0.5289910000000 1.0
C      1  0.4699590000000  0.5887180000000  0.4617540000000 1.0
C      1  0.5289920000000  0.5898030000000  0.5424550000000 1.0
C      1  0.5295410000000  0.4097610000000  0.4641120000000 1.0
C      1  0.5423170000000  0.4090310000000  0.4713180000000 1.0
C      1  0.4090270000000  0.4713210000000  0.5423190000000 1.0
C      1  0.4713210000000  0.5423190000000  0.4090290000000 1.0
C      1  0.5351990000000  0.5889020000000  0.5293800000000 1.0
C      1  0.4585170000000  0.4102680000000  0.5289770000000 1.0
C      1  0.4605760000000  0.5880940000000  0.4718060000000 1.0
C      1  0.4102630000000  0.5289800000000  0.4585230000000 1.0
C      1  0.5880970000000  0.4718030000000  0.4605740000000 1.0
C      1  0.5889070000000  0.5293760000000  0.5351980000000 1.0
C      1  0.4718040000000  0.4605730000000  0.5880970000000 1.0
C      1  0.5293790000000  0.5351950000000  0.5889080000000 1.0
C      1  0.5289710000000  0.4585260000000  0.4102610000000 1.0
C      1  0.5053090000000  0.4228410000000  0.4642630000000 1.0
C      1  0.4642640000000  0.5053150000000  0.4228370000000 1.0
C      1  0.4228380000000  0.4642680000000  0.5053090000000 1.0
C      1  0.5068040000000  0.5762760000000  0.5375450000000 1.0
C      1  0.4910050000000  0.5755910000000  0.4653750000000 1.0
C      1  0.4962430000000  0.4259750000000  0.5360990000000 1.0
C      1  0.4653740000000  0.4910030000000  0.5755950000000 1.0
C      1  0.5361050000000  0.4962490000000  0.4259720000000 1.0
C      1  0.5375440000000  0.5068000000000  0.5762800000000 1.0
C      1  0.4259750000000  0.5361000000000  0.4962480000000 1.0
C      1  0.5762790000000  0.5375410000000  0.5068040000000 1.0
C      1  0.5755910000000  0.4653740000000  0.4910020000000 1.0
C      1  0.5059710000000  0.4616340000000  0.4237590000000 1.0
C      1  0.4616330000000  0.4237640000000  0.5059750000000 1.0
C      1  0.4237580000000  0.5059750000000  0.4616300000000 1.0
C      1  0.5043680000000  0.5365410000000  0.5757300000000 1.0
C      1  0.4917970000000  0.4667840000000  0.5742090000000 1.0
C      1  0.4936740000000  0.5385510000000  0.4227900000000 1.0
C      1  0.4667870000000  0.5742060000000  0.4917990000000 1.0
C      1  0.5385480000000  0.4227920000000  0.4936700000000 1.0
C      1  0.5365440000000  0.5757250000000  0.5043690000000 1.0
C      1  0.4227890000000  0.4936730000000  0.5385530000000 1.0
C      1  0.5757280000000  0.5043650000000  0.5365440000000 1.0
C      1  0.5742110000000  0.4917970000000  0.4667840000000 1.0
C      1  0.5050470000000  0.5315650000000  0.4273750000000 1.0
C      1  0.4273760000000  0.5050440000000  0.5315660000000 1.0
C      1  0.5315620000000  0.4273770000000  0.5050420000000 1.0
C      1  0.5044170000000  0.4724260000000  0.5714410000000 1.0
C      1  0.4949130000000  0.4691220000000  0.4282120000000 1.0
C      1  0.4926480000000  0.5301920000000  0.5712590000000 1.0
C      1  0.4282110000000  0.4949170000000  0.4691170000000 1.0
C      1  0.5712570000000  0.4926460000000  0.5301940000000 1.0
C      1  0.5714430000000  0.5044170000000  0.4724270000000 1.0
C      1  0.5301950000000  0.5712550000000  0.4926480000000 1.0
C      1  0.4724300000000  0.5714370000000  0.5044180000000 1.0
C      1  0.4691190000000  0.4282150000000  0.4949160000000 1.0
C      1  0.5081620000000  0.4303370000000  0.5300330000000 1.0
C      1  0.4303380000000  0.5300340000000  0.5081670000000 1.0
C      1  0.5300380000000  0.5081670000000  0.4303350000000 1.0
C      1  0.5037370000000  0.5722460000000  0.4706900000000 1.0
C      1  0.4938450000000  0.4274920000000  0.4709540000000 1.0
C      1  0.4954860000000  0.5724180000000  0.5302150000000 1.0
C      1  0.4274880000000  0.4709580000000  0.4938450000000 1.0
C      1  0.5724230000000  0.5302120000000  0.4954840000000 1.0
C      1  0.5722460000000  0.4706890000000  0.5037340000000 1.0
C      1  0.5302140000000  0.4954820000000  0.5724220000000 1.0
C      1  0.4706890000000  0.5037340000000  0.5722500000000 1.0
C      1  0.4709560000000  0.4938510000000  0.4274880000000 1.0
C      1  0.4662960000000  0.4475880000000  0.5419200000000 1.0
C      1  0.5419210000000  0.4662980000000  0.4475810000000 1.0
C      1  0.4475860000000  0.5419190000000  0.4662980000000 1.0
C      1  0.4658300000000  0.5532760000000  0.4551750000000 1.0
C      1  0.5332240000000  0.5531500000000  0.5438530000000 1.0
C      1  0.5331050000000  0.4452680000000  0.4564990000000 1.0
C      1  0.5438520000000  0.5332200000000  0.5531560000000 1.0
C      1  0.4565000000000  0.5331070000000  0.4452650000000 1.0
C      1  0.4551720000000  0.4658290000000  0.5532800000000 1.0
C      1  0.4452650000000  0.4565060000000  0.5331060000000 1.0
C      1  0.5532770000000  0.4551750000000  0.4658260000000 1.0
C      1  0.5531530000000  0.5438480000000  0.5332240000000 1.0
C      1  0.4660930000000  0.5438220000000  0.4452470000000 1.0
C      1  0.5438220000000  0.4452490000000  0.4660900000000 1.0
C      1  0.4452450000000  0.4660950000000  0.5438250000000 1.0
C      1  0.4659380000000  0.4564570000000  0.5524480000000 1.0
C      1  0.5331880000000  0.5429020000000  0.5530890000000 1.0
C      1  0.5326790000000  0.4551990000000  0.4468810000000 1.0
C      1  0.5429050000000  0.5530830000000  0.5331890000000 1.0
C      1  0.4551970000000  0.4468890000000  0.5326790000000 1.0
C      1  0.4564560000000  0.5524460000000  0.4659410000000 1.0
C      1  0.4468840000000  0.5326800000000  0.4551970000000 1.0
C      1  0.5524480000000  0.4659410000000  0.4564510000000 1.0
C      1  0.5530870000000  0.5331840000000  0.5429070000000 1.0
C      1  0.5447080000000  0.5007990000000  0.4470410000000 1.0
C      1  0.4470450000000  0.5447030000000  0.5008000000000 1.0
C      1  0.5007970000000  0.4470440000000  0.5447040000000 1.0
C      1  0.5456220000000  0.5004460000000  0.5554170000000 1.0
C      1  0.4547880000000  0.4995400000000  0.4434580000000 1.0
C      1  0.4545570000000  0.4987080000000  0.5561740000000 1.0
C      1  0.4434600000000  0.4547930000000  0.4995370000000 1.0
C      1  0.5561690000000  0.4545590000000  0.4987070000000 1.0
C      1  0.5554170000000  0.5456190000000  0.5004490000000 1.0
C      1  0.4987100000000  0.5561700000000  0.4545590000000 1.0
C      1  0.5004500000000  0.5554130000000  0.5456230000000 1.0
C      1  0.4995360000000  0.4434630000000  0.4547880000000 1.0
C      1  0.5467070000000  0.4441990000000  0.4991900000000 1.0
C      1  0.4441960000000  0.4991920000000  0.5467120000000 1.0
C      1  0.4991940000000  0.5467090000000  0.4441980000000 1.0
C      1  0.5450620000000  0.5547030000000  0.4995870000000 1.0
C      1  0.4530350000000  0.4446240000000  0.4996640000000 1.0
C      1  0.4565820000000  0.5547370000000  0.4996480000000 1.0
C      1  0.4446190000000  0.4996670000000  0.4530320000000 1.0
C      1  0.5547420000000  0.4996470000000  0.4565780000000 1.0
C      1  0.5547060000000  0.4995850000000  0.5450620000000 1.0
C      1  0.4996450000000  0.4565800000000  0.5547390000000 1.0
C      1  0.4995870000000  0.5450580000000  0.5547080000000 1.0
C      1  0.4996630000000  0.4530370000000  0.4446190000000 1.0
C      1  0.4335480000000  0.4558750000000  0.5245860000000 1.0
C      1  0.5245850000000  0.4335500000000  0.4558680000000 1.0
C      1  0.4558670000000  0.5245890000000  0.4335460000000 1.0
C      1  0.4365750000000  0.5417810000000  0.4759190000000 1.0
C      1  0.5649730000000  0.5465730000000  0.5254090000000 1.0
C      1  0.5654900000000  0.4535840000000  0.4734150000000 1.0
C      1  0.5254090000000  0.5649700000000  0.5465790000000 1.0
C      1  0.4734180000000  0.5654890000000  0.4535840000000 1.0
C      1  0.4759160000000  0.4365770000000  0.5417820000000 1.0
C      1  0.4535810000000  0.4734160000000  0.5654940000000 1.0
C      1  0.5417840000000  0.4759190000000  0.4365700000000 1.0
C      1  0.5465780000000  0.5254050000000  0.5649750000000 1.0
C      1  0.4350120000000  0.5246810000000  0.4531210000000 1.0
C      1  0.5246780000000  0.4531240000000  0.4350110000000 1.0
C      1  0.4531200000000  0.4350180000000  0.5246790000000 1.0
C      1  0.4337870000000  0.4744370000000  0.5462730000000 1.0
C      1  0.5647280000000  0.5243700000000  0.5431460000000 1.0
C      1  0.5640430000000  0.4744130000000  0.4544930000000 1.0
C      1  0.5243730000000  0.5431410000000  0.5647290000000 1.0
C      1  0.4744110000000  0.4544960000000  0.5640420000000 1.0
C      1  0.4744370000000  0.5462680000000  0.4337900000000 1.0
C      1  0.4544970000000  0.5640400000000  0.4744140000000 1.0
C      1  0.5462680000000  0.4337910000000  0.4744340000000 1.0
C      1  0.5431440000000  0.5647230000000  0.5243730000000 1.0
C      1  0.4129210000000  0.4916180000000  0.4996840000000 1.0
C      1  0.4996830000000  0.4129230000000  0.4916140000000 1.0
C      1  0.4916190000000  0.4996880000000  0.4129220000000 1.0
C      1  0.4140810000000  0.5114500000000  0.5007290000000 1.0
C      1  0.5876350000000  0.5103660000000  0.5020690000000 1.0
C      1  0.5890260000000  0.4898810000000  0.5009010000000 1.0
C      1  0.5020710000000  0.5876310000000  0.5103700000000 1.0
C      1  0.5009030000000  0.5890240000000  0.4898840000000 1.0
C      1  0.5007260000000  0.4140810000000  0.5114480000000 1.0
C      1  0.4898830000000  0.5008990000000  0.5890280000000 1.0
C      1  0.5114530000000  0.5007290000000  0.4140800000000 1.0
C      1  0.5103690000000  0.5020670000000  0.5876350000000 1.0
C      1  0.4144660000000  0.5024100000000  0.4897240000000 1.0
C      1  0.5024100000000  0.4897270000000  0.4144670000000 1.0
C      1  0.4897230000000  0.4144670000000  0.5024060000000 1.0
C      1  0.4126900000000  0.5006030000000  0.5105190000000 1.0
C      1  0.5881480000000  0.4997690000000  0.5117820000000 1.0
C      1  0.5885170000000  0.5003560000000  0.4913170000000 1.0
C      1  0.4997710000000  0.5117790000000  0.5881500000000 1.0
C      1  0.5003580000000  0.4913150000000  0.5885180000000 1.0
C      1  0.5006080000000  0.5105200000000  0.4126880000000 1.0
C      1  0.4913190000000  0.5885140000000  0.5003590000000 1.0
C      1  0.5105170000000  0.4126900000000  0.5006020000000 1.0
C      1  0.5117830000000  0.5881450000000  0.4997720000000 1.0
C      1  0.4913730000000  0.4210440000000  0.4829740000000 1.0
C      1  0.4829760000000  0.4913790000000  0.4210410000000 1.0
C      1  0.4210410000000  0.4829770000000  0.4913730000000 1.0
C      1  0.4932740000000  0.5792190000000  0.5183870000000 1.0
C      1  0.5081520000000  0.5797800000000  0.4813410000000 1.0
C      1  0.5101790000000  0.4225090000000  0.5187270000000 1.0
C      1  0.4813400000000  0.5081490000000  0.5797830000000 1.0
C      1  0.5187320000000  0.5101830000000  0.4225070000000 1.0
C      1  0.5183860000000  0.4932700000000  0.5792230000000 1.0
C      1  0.4225090000000  0.5187280000000  0.5101820000000 1.0
C      1  0.5792240000000  0.5183840000000  0.4932720000000 1.0
C      1  0.5797810000000  0.4813380000000  0.5081500000000 1.0
C      1  0.4931480000000  0.4813120000000  0.4218070000000 1.0
C      1  0.4813070000000  0.4218080000000  0.4931470000000 1.0
C      1  0.4218050000000  0.4931500000000  0.4813070000000 1.0
C      1  0.4905950000000  0.5189530000000  0.5791010000000 1.0
C      1  0.5080470000000  0.4832800000000  0.5792140000000 1.0
C      1  0.5081860000000  0.5197530000000  0.4209190000000 1.0
C      1  0.4832840000000  0.5792100000000  0.5080480000000 1.0
C      1  0.5197500000000  0.4209220000000  0.5081810000000 1.0
C      1  0.5189570000000  0.5790970000000  0.4905950000000 1.0
C      1  0.4209220000000  0.5081820000000  0.5197520000000 1.0
C      1  0.5790980000000  0.4905930000000  0.5189550000000 1.0
C      1  0.5792150000000  0.5080460000000  0.4832810000000 1.0
C      1  0.5598530000000  0.4646920000000  0.5086180000000 1.0
C      1  0.5086220000000  0.5598540000000  0.4646920000000 1.0
C      1  0.4646910000000  0.5086190000000  0.5598570000000 1.0
C      1  0.5595080000000  0.5358380000000  0.4905000000000 1.0
C      1  0.4436180000000  0.5356860000000  0.5120750000000 1.0
C      1  0.4402640000000  0.4647500000000  0.4892810000000 1.0
C      1  0.5120710000000  0.4436160000000  0.5356860000000 1.0
C      1  0.4892810000000  0.4402670000000  0.4647460000000 1.0
C      1  0.4905020000000  0.5595040000000  0.5358410000000 1.0
C      1  0.4647470000000  0.4892860000000  0.4402620000000 1.0
C      1  0.5358390000000  0.4904980000000  0.5595080000000 1.0
C      1  0.5356910000000  0.5120740000000  0.4436140000000 1.0
C      1  0.5589590000000  0.5097460000000  0.4662190000000 1.0
C      1  0.5097450000000  0.4662190000000  0.5589560000000 1.0
C      1  0.4662230000000  0.5589530000000  0.5097470000000 1.0
C      1  0.5578720000000  0.4886030000000  0.5356780000000 1.0
C      1  0.4404430000000  0.5093700000000  0.5368780000000 1.0
C      1  0.4409200000000  0.4898280000000  0.4632350000000 1.0
C      1  0.5093720000000  0.5368760000000  0.4404430000000 1.0
C      1  0.4898240000000  0.4632400000000  0.4409210000000 1.0
C      1  0.4886050000000  0.5356760000000  0.5578740000000 1.0
C      1  0.4632370000000  0.4409240000000  0.4898250000000 1.0
C      1  0.5356790000000  0.5578700000000  0.4886050000000 1.0
C      1  0.5368740000000  0.4404450000000  0.5093680000000 1.0
C      1  0.4513330000000  0.5321090000000  0.5236360000000 1.0
C      1  0.5236320000000  0.4513320000000  0.5321090000000 1.0
C      1  0.5321130000000  0.5236350000000  0.4513310000000 1.0
C      1  0.4485760000000  0.4678410000000  0.4779630000000 1.0
C      1  0.5516410000000  0.4678880000000  0.5201230000000 1.0
C      1  0.5519240000000  0.5322450000000  0.4794770000000 1.0
C      1  0.5201260000000  0.5516410000000  0.4678880000000 1.0
C      1  0.4794790000000  0.5519190000000  0.5322470000000 1.0
C      1  0.4779630000000  0.4485790000000  0.4678380000000 1.0
C      1  0.5322450000000  0.4794770000000  0.5519220000000 1.0
C      1  0.4678380000000  0.4779680000000  0.4485750000000 1.0
C      1  0.4678880000000  0.5201230000000  0.5516440000000 1.0
C      1  0.4491450000000  0.5203800000000  0.5331540000000 1.0
C      1  0.5203840000000  0.5331530000000  0.4491430000000 1.0
C      1  0.5331500000000  0.4491450000000  0.5203800000000 1.0
C      1  0.4488860000000  0.4784760000000  0.4669910000000 1.0
C      1  0.5517910000000  0.5213290000000  0.4690710000000 1.0
C      1  0.5498190000000  0.4772370000000  0.5320220000000 1.0
C      1  0.5213280000000  0.4690710000000  0.5517880000000 1.0
C      1  0.4772390000000  0.5320210000000  0.5498210000000 1.0
C      1  0.4784720000000  0.4669950000000  0.4488860000000 1.0
C      1  0.5320240000000  0.5498180000000  0.4772380000000 1.0
C      1  0.4669920000000  0.4488890000000  0.4784730000000 1.0
C      1  0.4690740000000  0.5517850000000  0.5213300000000 1.0
C      1  0.5442130000000  0.4221270000000  0.4672600000000 1.0
C      1  0.4672640000000  0.5442150000000  0.4221250000000 1.0
C      1  0.4221230000000  0.4672630000000  0.5442160000000 1.0
C      1  0.5404980000000  0.5762330000000  0.5315080000000 1.0
C      1  0.4554460000000  0.5759600000000  0.4668890000000 1.0
C      1  0.4565440000000  0.4237520000000  0.5320300000000 1.0
C      1  0.4668860000000  0.4554440000000  0.5759620000000 1.0
C      1  0.5320260000000  0.4565520000000  0.4237440000000 1.0
C      1  0.5315070000000  0.5404940000000  0.5762390000000 1.0
C      1  0.4237470000000  0.5320300000000  0.4565500000000 1.0
C      1  0.5762380000000  0.5315040000000  0.5404990000000 1.0
C      1  0.5759620000000  0.4668870000000  0.4554440000000 1.0
C      1  0.5392780000000  0.4693770000000  0.4247210000000 1.0
C      1  0.4693710000000  0.4247280000000  0.5392810000000 1.0
C      1  0.4247250000000  0.5392800000000  0.4693760000000 1.0
C      1  0.5443010000000  0.5329080000000  0.5765060000000 1.0
C      1  0.4561090000000  0.4653650000000  0.5767160000000 1.0
C      1  0.4587790000000  0.5318280000000  0.4221260000000 1.0
C      1  0.4653670000000  0.5767120000000  0.4561110000000 1.0
C      1  0.5318230000000  0.4221290000000  0.4587790000000 1.0
C      1  0.5329130000000  0.5765010000000  0.5443020000000 1.0
C      1  0.4221260000000  0.4587850000000  0.5318240000000 1.0
C      1  0.5765040000000  0.5442980000000  0.5329120000000 1.0
C      1  0.5767130000000  0.4561090000000  0.4653650000000 1.0
C      1  0.5459610000000  0.4333190000000  0.4883960000000 1.0
C      1  0.4884000000000  0.5459630000000  0.4333180000000 1.0
C      1  0.4333150000000  0.4883990000000  0.5459670000000 1.0
C      1  0.5433660000000  0.5651520000000  0.5103040000000 1.0
C      1  0.4575870000000  0.5644150000000  0.4881160000000 1.0
C      1  0.4535720000000  0.4341630000000  0.5106810000000 1.0
C      1  0.4881140000000  0.4575840000000  0.5644180000000 1.0
C      1  0.5106790000000  0.4535750000000  0.4341580000000 1.0
C      1  0.5103030000000  0.5433630000000  0.5651570000000 1.0
C      1  0.4341570000000  0.5106820000000  0.4535700000000 1.0
C      1  0.5651560000000  0.5103000000000  0.5433670000000 1.0
C      1  0.5644200000000  0.4881150000000  0.4575830000000 1.0
C      1  0.5426050000000  0.4900490000000  0.4366040000000 1.0
C      1  0.4900460000000  0.4366080000000  0.5426010000000 1.0
C      1  0.4366080000000  0.5426010000000  0.4900490000000 1.0
C      1  0.5453420000000  0.5114800000000  0.5657270000000 1.0
C      1  0.4559850000000  0.4871960000000  0.5661600000000 1.0
C      1  0.4561570000000  0.5104940000000  0.4329860000000 1.0
C      1  0.4871970000000  0.5661560000000  0.4559870000000 1.0
C      1  0.5104900000000  0.4329910000000  0.4561580000000 1.0
C      1  0.5114840000000  0.5657220000000  0.5453430000000 1.0
C      1  0.4329890000000  0.4561640000000  0.5104910000000 1.0
C      1  0.5657250000000  0.5453380000000  0.5114840000000 1.0
C      1  0.5661550000000  0.4559870000000  0.4871940000000 1.0
C      1  0.5397070000000  0.5273430000000  0.4630010000000 1.0
C      1  0.4630040000000  0.5397020000000  0.5273450000000 1.0
C      1  0.5273420000000  0.4630020000000  0.5397040000000 1.0
C      1  0.4593930000000  0.5196580000000  0.5415030000000 1.0
C      1  0.4595310000000  0.4599820000000  0.4753370000000 1.0
C      1  0.5414990000000  0.4593940000000  0.5196580000000 1.0
C      1  0.5397340000000  0.5381420000000  0.4735460000000 1.0
C      1  0.5196620000000  0.5415010000000  0.4593920000000 1.0
C      1  0.4735480000000  0.5397290000000  0.5381440000000 1.0
C      1  0.5381420000000  0.4735460000000  0.5397310000000 1.0
C      1  0.4753360000000  0.4595350000000  0.4599790000000 1.0
C      1  0.4599780000000  0.4753420000000  0.4595300000000 1.0
END
