TITL C-1379267-1329-114 7.83770916652869e-07 1000000 -2044.24305168885 0 0 280 (Cs) n - 1
REM
REM in /nfs/bkarasulu/CARBON/AIRSS/Generating-Clusters/GAP-ML-2020/Higher-Symm/Selected-Sizes/TryA-Only_Ih-Symm/Larger-Clusters/Try2-MINAMP_6A
REM
REM
REM
REM
REM
REM ./C.cell (31579ac4e95a012ec27f3239692ae8a5)
REM
REM compiler GCC version 9.2.1 20190827 (Red Hat 9.2.1-1)
REM options -cpp -mtune=generic -march=x86-64 -g -O0 -fpre-include=/usr/include/finclude/math-vector-fortran.h
REM seed -1316523513 1604734143 1294145563 1572219566 228551608 -479951321 -2079334834 307962274 -648593573 1352443367 1194092738 1867884865 -791045847 784718700 970527644 -175478233 -932068299 1236633769 2090281045 134059888 949054576 1684895979 -937080193 552425663 1523276158 -1655889263 -1750239827 -1633109760 957772627 1133559511 22140874 -795066223 1281187638
REM
CELL 1.54180  100.00000  100.00000  100.00000   90.00000   90.00000   90.00000
LATT -1
SFAC C  
C      1  0.4338770000000  0.5219840000000  0.5314260000000 1.0
C      1  0.5218410000000  0.5317910000000  0.4341310000000 1.0
C      1  0.5315870000000  0.4343910000000  0.5217600000000 1.0
C      1  0.5660430000000  0.4789390000000  0.5309180000000 1.0
C      1  0.4337590000000  0.4783800000000  0.4683260000000 1.0
C      1  0.5664110000000  0.5216740000000  0.4685940000000 1.0
C      1  0.4782000000000  0.4686280000000  0.4336810000000 1.0
C      1  0.5215260000000  0.4689780000000  0.5663570000000 1.0
C      1  0.4782170000000  0.5315310000000  0.5661970000000 1.0
C      1  0.4683260000000  0.5666810000000  0.5215730000000 1.0
C      1  0.5311370000000  0.5663720000000  0.4786160000000 1.0
C      1  0.4684600000000  0.4340020000000  0.4780840000000 1.0
C      1  0.5218380000000  0.4344310000000  0.5314900000000 1.0
C      1  0.5315900000000  0.5220610000000  0.4340910000000 1.0
C      1  0.4338780000000  0.5317280000000  0.5216810000000 1.0
C      1  0.4782180000000  0.5664980000000  0.5312310000000 1.0
C      1  0.4781990000000  0.4339830000000  0.4683250000000 1.0
C      1  0.5215290000000  0.5666580000000  0.4686800000000 1.0
C      1  0.4684620000000  0.4783870000000  0.4337000000000 1.0
C      1  0.4683250000000  0.5218730000000  0.5663790000000 1.0
C      1  0.5311340000000  0.4789150000000  0.5660710000000 1.0
C      1  0.5664090000000  0.4688920000000  0.5213750000000 1.0
C      1  0.5660450000000  0.5312170000000  0.4786410000000 1.0
C      1  0.4337580000000  0.4686290000000  0.4780760000000 1.0
C      1  0.5335490000000  0.4561060000000  0.4860460000000 1.0
C      1  0.4561120000000  0.4866020000000  0.5333340000000 1.0
C      1  0.4863690000000  0.5336210000000  0.4562260000000 1.0
C      1  0.4664100000000  0.5438400000000  0.4861880000000 1.0
C      1  0.5311860000000  0.5412370000000  0.5117000000000 1.0
C      1  0.4663490000000  0.4563620000000  0.5135820000000 1.0
C      1  0.5408660000000  0.5119570000000  0.5309150000000 1.0
C      1  0.4561010000000  0.5138890000000  0.4662750000000 1.0
C      1  0.5437180000000  0.4861090000000  0.4661190000000 1.0
C      1  0.5137920000000  0.4664560000000  0.4559160000000 1.0
C      1  0.4861620000000  0.4668400000000  0.5435170000000 1.0
C      1  0.5124910000000  0.5320110000000  0.5417910000000 1.0
C      1  0.4561140000000  0.5336360000000  0.4863000000000 1.0
C      1  0.4863660000000  0.4565270000000  0.5333190000000 1.0
C      1  0.5335500000000  0.4863460000000  0.4558060000000 1.0
C      1  0.5437170000000  0.4664180000000  0.4858090000000 1.0
C      1  0.5408660000000  0.5312140000000  0.5116580000000 1.0
C      1  0.4560990000000  0.4665770000000  0.5135860000000 1.0
C      1  0.5124910000000  0.5420900000000  0.5317110000000 1.0
C      1  0.5137920000000  0.4562170000000  0.4661550000000 1.0
C      1  0.4861640000000  0.5438190000000  0.4665400000000 1.0
C      1  0.4663510000000  0.5138850000000  0.4560600000000 1.0
C      1  0.4664080000000  0.4864890000000  0.5435380000000 1.0
C      1  0.5311850000000  0.5119990000000  0.5409370000000 1.0
C      1  0.4414100000000  0.4618840000000  0.4514500000000 1.0
C      1  0.4616880000000  0.4517530000000  0.4413000000000 1.0
C      1  0.4515640000000  0.4416080000000  0.4615840000000 1.0
C      1  0.5585730000000  0.5384800000000  0.4521800000000 1.0
C      1  0.4415660000000  0.5385270000000  0.5483420000000 1.0
C      1  0.5583860000000  0.4628630000000  0.5481200000000 1.0
C      1  0.5383410000000  0.5486740000000  0.4419970000000 1.0
C      1  0.4619610000000  0.5485570000000  0.5584070000000 1.0
C      1  0.5382750000000  0.4524710000000  0.5584860000000 1.0
C      1  0.5482670000000  0.5585990000000  0.4625140000000 1.0
C      1  0.4517020000000  0.5588050000000  0.5382090000000 1.0
C      1  0.5484580000000  0.4422870000000  0.5382670000000 1.0
C      1  0.4616870000000  0.4416030000000  0.4514500000000 1.0
C      1  0.4515650000000  0.4618870000000  0.4413050000000 1.0
C      1  0.4414100000000  0.4517540000000  0.4615810000000 1.0
C      1  0.5382780000000  0.5587860000000  0.4521730000000 1.0
C      1  0.5383370000000  0.4422950000000  0.5483740000000 1.0
C      1  0.4619610000000  0.5587080000000  0.5482560000000 1.0
C      1  0.5484610000000  0.5385670000000  0.4419890000000 1.0
C      1  0.5482640000000  0.4628120000000  0.5582990000000 1.0
C      1  0.4517010000000  0.5385100000000  0.5585040000000 1.0
C      1  0.5583880000000  0.5484200000000  0.4625640000000 1.0
C      1  0.5585700000000  0.4524790000000  0.5381800000000 1.0
C      1  0.4415660000000  0.5486440000000  0.5382250000000 1.0
C      1  0.5647750000000  0.4552520000000  0.5257620000000 1.0
C      1  0.4546330000000  0.5261160000000  0.5646810000000 1.0
C      1  0.5258680000000  0.5649780000000  0.4550220000000 1.0
C      1  0.4354130000000  0.5454900000000  0.5258680000000 1.0
C      1  0.5642380000000  0.5450470000000  0.4750480000000 1.0
C      1  0.4353330000000  0.4548720000000  0.4739850000000 1.0
C      1  0.5449550000000  0.4752090000000  0.5642500000000 1.0
C      1  0.4547000000000  0.4742960000000  0.4352430000000 1.0
C      1  0.5453380000000  0.5262650000000  0.4356980000000 1.0
C      1  0.4740920000000  0.4355260000000  0.4545680000000 1.0
C      1  0.5260160000000  0.4360500000000  0.5452440000000 1.0
C      1  0.4743740000000  0.5647040000000  0.5450220000000 1.0
C      1  0.4546350000000  0.5649830000000  0.5258150000000 1.0
C      1  0.5258640000000  0.4553210000000  0.5646770000000 1.0
C      1  0.5647770000000  0.5260610000000  0.4549540000000 1.0
C      1  0.5453350000000  0.4359970000000  0.5259650000000 1.0
C      1  0.5449580000000  0.5645500000000  0.4749110000000 1.0
C      1  0.4546980000000  0.4355460000000  0.4739920000000 1.0
C      1  0.4743740000000  0.5453230000000  0.5644040000000 1.0
C      1  0.4740920000000  0.4548710000000  0.4352240000000 1.0
C      1  0.5260200000000  0.5455450000000  0.4357510000000 1.0
C      1  0.4353340000000  0.4742890000000  0.4545690000000 1.0
C      1  0.4354130000000  0.5261700000000  0.5451870000000 1.0
C      1  0.5642360000000  0.4753460000000  0.5447480000000 1.0
C      1  0.4445550000000  0.5202510000000  0.4582030000000 1.0
C      1  0.5201060000000  0.4583820000000  0.4443400000000 1.0
C      1  0.4583130000000  0.4447960000000  0.5199480000000 1.0
C      1  0.5535860000000  0.4805310000000  0.4564800000000 1.0
C      1  0.4463310000000  0.4808190000000  0.5430670000000 1.0
C      1  0.5504890000000  0.5220810000000  0.5397170000000 1.0
C      1  0.4806280000000  0.5433660000000  0.4464270000000 1.0
C      1  0.5192740000000  0.5413610000000  0.5514380000000 1.0
C      1  0.4804590000000  0.4571950000000  0.5533330000000 1.0
C      1  0.5396550000000  0.5508280000000  0.5196030000000 1.0
C      1  0.4567910000000  0.5536480000000  0.4804180000000 1.0
C      1  0.5433170000000  0.4463010000000  0.4804210000000 1.0
C      1  0.5201060000000  0.4446410000000  0.4580800000000 1.0
C      1  0.4583160000000  0.5202510000000  0.4444950000000 1.0
C      1  0.4445530000000  0.4585050000000  0.5199480000000 1.0
C      1  0.4804620000000  0.5536350000000  0.4568940000000 1.0
C      1  0.4806250000000  0.4467280000000  0.5430640000000 1.0
C      1  0.5192750000000  0.5517370000000  0.5410620000000 1.0
C      1  0.5433180000000  0.4807210000000  0.4460020000000 1.0
C      1  0.5396540000000  0.5199010000000  0.5505290000000 1.0
C      1  0.4567890000000  0.4807190000000  0.5533460000000 1.0
C      1  0.5504890000000  0.5400150000000  0.5217830000000 1.0
C      1  0.5535860000000  0.4567790000000  0.4802310000000 1.0
C      1  0.4463330000000  0.5433700000000  0.4805170000000 1.0
C      1  0.5522700000000  0.4871800000000  0.5620110000000 1.0
C      1  0.4862420000000  0.5626810000000  0.5525060000000 1.0
C      1  0.5619950000000  0.5523080000000  0.4870400000000 1.0
C      1  0.4467230000000  0.5144810000000  0.5630110000000 1.0
C      1  0.5531750000000  0.5146220000000  0.4370860000000 1.0
C      1  0.4468970000000  0.4859720000000  0.4368910000000 1.0
C      1  0.5143640000000  0.4375320000000  0.5530510000000 1.0
C      1  0.4857610000000  0.4371620000000  0.4467490000000 1.0
C      1  0.5142760000000  0.5633360000000  0.4470370000000 1.0
C      1  0.4369920000000  0.4470680000000  0.4856630000000 1.0
C      1  0.5631710000000  0.4471720000000  0.5142110000000 1.0
C      1  0.4369360000000  0.5533100000000  0.5142230000000 1.0
C      1  0.4862410000000  0.5528060000000  0.5623800000000 1.0
C      1  0.5619920000000  0.4873380000000  0.5520090000000 1.0
C      1  0.5522730000000  0.5623110000000  0.4868820000000 1.0
C      1  0.5142720000000  0.4473360000000  0.5630350000000 1.0
C      1  0.5143680000000  0.5533530000000  0.4372320000000 1.0
C      1  0.4857610000000  0.4470510000000  0.4368590000000 1.0
C      1  0.4369340000000  0.5145250000000  0.5530080000000 1.0
C      1  0.4369930000000  0.4859670000000  0.4467650000000 1.0
C      1  0.5631730000000  0.5145110000000  0.4468740000000 1.0
C      1  0.4468950000000  0.4371940000000  0.4856680000000 1.0
C      1  0.4467250000000  0.5633130000000  0.5141800000000 1.0
C      1  0.5531720000000  0.4373850000000  0.5143220000000 1.0
C      1  0.4497520000000  0.4906660000000  0.5605930000000 1.0
C      1  0.4904360000000  0.5609060000000  0.4499210000000 1.0
C      1  0.5608030000000  0.4499010000000  0.4903250000000 1.0
C      1  0.5474690000000  0.5105870000000  0.5577150000000 1.0
C      1  0.4503450000000  0.5094060000000  0.4396890000000 1.0
C      1  0.5502310000000  0.4908610000000  0.4390690000000 1.0
C      1  0.5092040000000  0.4399000000000  0.4501490000000 1.0
C      1  0.4906390000000  0.4396890000000  0.5500380000000 1.0
C      1  0.5100200000000  0.5594720000000  0.5485720000000 1.0
C      1  0.4392320000000  0.5503170000000  0.4905080000000 1.0
C      1  0.5577900000000  0.5475720000000  0.5108880000000 1.0
C      1  0.4397750000000  0.4505190000000  0.5091010000000 1.0
C      1  0.4904330000000  0.4502210000000  0.5606040000000 1.0
C      1  0.5608050000000  0.4906250000000  0.4496020000000 1.0
C      1  0.4497540000000  0.5608960000000  0.4903640000000 1.0
C      1  0.5100200000000  0.5488710000000  0.5591720000000 1.0
C      1  0.5092040000000  0.4504500000000  0.4395990000000 1.0
C      1  0.4906430000000  0.5503400000000  0.4393890000000 1.0
C      1  0.4397760000000  0.5094040000000  0.4502170000000 1.0
C      1  0.4392300000000  0.4908090000000  0.5500140000000 1.0
C      1  0.5577890000000  0.5111860000000  0.5472740000000 1.0
C      1  0.5502300000000  0.4393690000000  0.4905610000000 1.0
C      1  0.5474710000000  0.5580140000000  0.5102890000000 1.0
C      1  0.4503430000000  0.4399920000000  0.5091020000000 1.0
C      1  0.4924410000000  0.4363250000000  0.4693780000000 1.0
C      1  0.4361110000000  0.4696980000000  0.4923200000000 1.0
C      1  0.4695370000000  0.4926260000000  0.4360810000000 1.0
C      1  0.5071940000000  0.5644590000000  0.4693900000000 1.0
C      1  0.4923780000000  0.5638460000000  0.5299560000000 1.0
C      1  0.5075660000000  0.4366650000000  0.5304590000000 1.0
C      1  0.5630850000000  0.5296510000000  0.4926720000000 1.0
C      1  0.4361740000000  0.5307240000000  0.5074140000000 1.0
C      1  0.5642340000000  0.4694430000000  0.5070140000000 1.0
C      1  0.5305950000000  0.5077680000000  0.4362320000000 1.0
C      1  0.4691180000000  0.5075540000000  0.5641410000000 1.0
C      1  0.5296880000000  0.4930000000000  0.5632620000000 1.0
C      1  0.4361120000000  0.4926230000000  0.4693950000000 1.0
C      1  0.4695360000000  0.4363830000000  0.4923230000000 1.0
C      1  0.4924430000000  0.4696800000000  0.4360230000000 1.0
C      1  0.5642350000000  0.5073140000000  0.4691440000000 1.0
C      1  0.5630840000000  0.4929700000000  0.5293530000000 1.0
C      1  0.4361730000000  0.5077170000000  0.5304210000000 1.0
C      1  0.5296900000000  0.5635620000000  0.4927010000000 1.0
C      1  0.5305930000000  0.4365310000000  0.5074670000000 1.0
C      1  0.4691200000000  0.5644430000000  0.5072530000000 1.0
C      1  0.5075690000000  0.5307600000000  0.4363650000000 1.0
C      1  0.5071910000000  0.4696900000000  0.5641580000000 1.0
C      1  0.4923770000000  0.5302560000000  0.5635450000000 1.0
C      1  0.5647560000000  0.5028270000000  0.4552830000000 1.0
C      1  0.5026440000000  0.4558360000000  0.5646040000000 1.0
C      1  0.4552940000000  0.5648920000000  0.5026070000000 1.0
C      1  0.4356960000000  0.4974220000000  0.4555900000000 1.0
C      1  0.5626930000000  0.4987760000000  0.5428120000000 1.0
C      1  0.4355210000000  0.5030010000000  0.5442900000000 1.0
C      1  0.4976280000000  0.5439000000000  0.5635400000000 1.0
C      1  0.5028540000000  0.5446320000000  0.4357310000000 1.0
C      1  0.4972260000000  0.4558660000000  0.4355650000000 1.0
C      1  0.5444750000000  0.4358230000000  0.5027880000000 1.0
C      1  0.4557300000000  0.4359290000000  0.4971230000000 1.0
C      1  0.5431680000000  0.5633660000000  0.4981490000000 1.0
C      1  0.5026470000000  0.5649050000000  0.4555360000000 1.0
C      1  0.4552910000000  0.5029080000000  0.5645900000000 1.0
C      1  0.5647540000000  0.4555810000000  0.5025270000000 1.0
C      1  0.4972260000000  0.4358660000000  0.4555640000000 1.0
C      1  0.4976280000000  0.5638400000000  0.5436000000000 1.0
C      1  0.5028500000000  0.4360310000000  0.5443300000000 1.0
C      1  0.5431660000000  0.4984480000000  0.5630670000000 1.0
C      1  0.5444770000000  0.5030890000000  0.4355240000000 1.0
C      1  0.4557320000000  0.4974260000000  0.4356260000000 1.0
C      1  0.4355220000000  0.5445930000000  0.5026990000000 1.0
C      1  0.4356950000000  0.4558930000000  0.4971190000000 1.0
C      1  0.5626940000000  0.5431110000000  0.4984780000000 1.0
C      1  0.5189630000000  0.5481300000000  0.5091950000000 1.0
C      1  0.5471630000000  0.5089770000000  0.5188020000000 1.0
C      1  0.5093710000000  0.5198410000000  0.5482150000000 1.0
C      1  0.4789460000000  0.4507170000000  0.5106850000000 1.0
C      1  0.5209710000000  0.4503650000000  0.4888250000000 1.0
C      1  0.4788490000000  0.5499430000000  0.4889610000000 1.0
C      1  0.4502490000000  0.4892550000000  0.5207830000000 1.0
C      1  0.5497420000000  0.4888200000000  0.4785730000000 1.0
C      1  0.4504000000000  0.5109970000000  0.4788440000000 1.0
C      1  0.4888300000000  0.4792960000000  0.5496460000000 1.0
C      1  0.5108770000000  0.4790470000000  0.4502540000000 1.0
C      1  0.4890620000000  0.5210760000000  0.4503460000000 1.0
C      1  0.5471630000000  0.5191010000000  0.5086780000000 1.0
C      1  0.5093720000000  0.5485150000000  0.5195410000000 1.0
C      1  0.5189620000000  0.5094940000000  0.5478300000000 1.0
C      1  0.4503990000000  0.4791460000000  0.5106940000000 1.0
C      1  0.4502500000000  0.5210850000000  0.4889530000000 1.0
C      1  0.5497420000000  0.4788720000000  0.4885200000000 1.0
C      1  0.4890600000000  0.4506470000000  0.5207740000000 1.0
C      1  0.4888320000000  0.5499480000000  0.4789960000000 1.0
C      1  0.5108760000000  0.4505540000000  0.4787460000000 1.0
C      1  0.4788470000000  0.4892620000000  0.5496420000000 1.0
C      1  0.4789480000000  0.5109880000000  0.4504160000000 1.0
C      1  0.5209720000000  0.4891260000000  0.4500650000000 1.0
C      1  0.4414830000000  0.5192310000000  0.5004470000000 1.0
C      1  0.5190950000000  0.5007320000000  0.4414680000000 1.0
C      1  0.5005920000000  0.4419170000000  0.5189350000000 1.0
C      1  0.5588860000000  0.4805460000000  0.4997800000000 1.0
C      1  0.4414500000000  0.4811530000000  0.4992020000000 1.0
C      1  0.5575810000000  0.5179270000000  0.4985710000000 1.0
C      1  0.4809890000000  0.4994990000000  0.4414640000000 1.0
C      1  0.5179870000000  0.4992270000000  0.5580110000000 1.0
C      1  0.4804130000000  0.5004870000000  0.5588900000000 1.0
C      1  0.4988030000000  0.5584910000000  0.5183650000000 1.0
C      1  0.4999880000000  0.5592460000000  0.4806290000000 1.0
C      1  0.4993340000000  0.4416910000000  0.4808190000000 1.0
C      1  0.5190930000000  0.4417680000000  0.5004310000000 1.0
C      1  0.5005950000000  0.5192370000000  0.4416160000000 1.0
C      1  0.4414820000000  0.5007490000000  0.5189290000000 1.0
C      1  0.4804150000000  0.5591910000000  0.5001870000000 1.0
C      1  0.4809870000000  0.4417650000000  0.4991960000000 1.0
C      1  0.5179890000000  0.5583110000000  0.4989280000000 1.0
C      1  0.4993350000000  0.4811210000000  0.4413890000000 1.0
C      1  0.4988020000000  0.5186650000000  0.5581900000000 1.0
C      1  0.4999860000000  0.4809290000000  0.5589450000000 1.0
C      1  0.5575800000000  0.4988690000000  0.5176280000000 1.0
C      1  0.5588860000000  0.5000790000000  0.4802470000000 1.0
C      1  0.4414510000000  0.4995050000000  0.4808500000000 1.0
C      1  0.4942590000000  0.5048750000000  0.5597180000000 1.0
C      1  0.5042560000000  0.5601040000000  0.4944890000000 1.0
C      1  0.5594050000000  0.4943470000000  0.5040540000000 1.0
C      1  0.5042540000000  0.4947880000000  0.5598040000000 1.0
C      1  0.4949620000000  0.4951060000000  0.4407700000000 1.0
C      1  0.5051000000000  0.5052480000000  0.4408630000000 1.0
C      1  0.4949600000000  0.4410710000000  0.4948040000000 1.0
C      1  0.5050970000000  0.4411640000000  0.5049470000000 1.0
C      1  0.4942610000000  0.5600190000000  0.5045750000000 1.0
C      1  0.4407890000000  0.5052490000000  0.5049470000000 1.0
C      1  0.5594050000000  0.5043530000000  0.4940480000000 1.0
C      1  0.4407460000000  0.4951180000000  0.4948160000000 1.0
C      1  0.5299860000000  0.4508280000000  0.4505280000000 1.0
C      1  0.4507830000000  0.4509980000000  0.5298240000000 1.0
C      1  0.4507860000000  0.5301270000000  0.4506960000000 1.0
C      1  0.5542520000000  0.5339770000000  0.5336780000000 1.0
END
