TITL C-1379265-1223-411 7.07779742411531e-07 1000000 -2521.85780058495 0 0 360 (Td) n - 1
REM
REM in /nfs/bkarasulu/CARBON/AIRSS/Generating-Clusters/GAP-ML-2020/Higher-Symm/Selected-Sizes/TryA-Only_Ih-Symm/Larger-Clusters/Try2-MINAMP_6A
REM
REM
REM
REM
REM
REM ./C.cell (31579ac4e95a012ec27f3239692ae8a5)
REM
REM compiler GCC version 9.2.1 20190827 (Red Hat 9.2.1-1)
REM options -cpp -mtune=generic -march=x86-64 -g -O0 -fpre-include=/usr/include/finclude/math-vector-fortran.h
REM seed 649559203 -175850647 1618453223 -70043296 642328271 -1949529235 -1793692023 -603297054 -288855212 2005181229 6474195 1585052856 426034369 1603038147 954199253 -557992032 226755096 -923575837 774477883 -587861406 -225741236 -1910557640 -1724396494 -262758652 1413373494 1190522247 -1819850168 401376214 1501659654 1931306685 1230428522 -270990432 1423517530
REM
CELL 1.54180  100.00000  100.00000  100.00000   90.00000   90.00000   90.00000
LATT -1
SFAC C  
C      1  0.5748320000000  0.5049850000000  0.5149350000000 1.0
C      1  0.5149350000000  0.5748320000000  0.5049850000000 1.0
C      1  0.5049850000000  0.5149350000000  0.5748320000000 1.0
C      1  0.5748320000000  0.4950150000000  0.4850650000000 1.0
C      1  0.4251680000000  0.4950150000000  0.5149350000000 1.0
C      1  0.4251680000000  0.5049850000000  0.4850650000000 1.0
C      1  0.5149350000000  0.4251680000000  0.4950150000000 1.0
C      1  0.4850650000000  0.4251680000000  0.5049850000000 1.0
C      1  0.4850650000000  0.5748320000000  0.4950150000000 1.0
C      1  0.5049850000000  0.4850650000000  0.4251680000000 1.0
C      1  0.4950150000000  0.4850650000000  0.5748320000000 1.0
C      1  0.4950150000000  0.5149350000000  0.4251680000000 1.0
C      1  0.5748320000000  0.5149350000000  0.5049850000000 1.0
C      1  0.5149350000000  0.5049850000000  0.5748320000000 1.0
C      1  0.5049850000000  0.5748320000000  0.5149350000000 1.0
C      1  0.5748320000000  0.4850650000000  0.4950150000000 1.0
C      1  0.4251680000000  0.5149350000000  0.4950150000000 1.0
C      1  0.4251680000000  0.4850650000000  0.5049850000000 1.0
C      1  0.5149350000000  0.4950150000000  0.4251680000000 1.0
C      1  0.4850650000000  0.5049850000000  0.4251680000000 1.0
C      1  0.4850650000000  0.4950150000000  0.5748320000000 1.0
C      1  0.5049850000000  0.4251680000000  0.4850650000000 1.0
C      1  0.4950150000000  0.5748320000000  0.4850650000000 1.0
C      1  0.4950150000000  0.4251680000000  0.5149350000000 1.0
C      1  0.5672700000000  0.4710110000000  0.5125550000000 1.0
C      1  0.5125550000000  0.5672690000000  0.4710110000000 1.0
C      1  0.4710110000000  0.5125550000000  0.5672700000000 1.0
C      1  0.5672700000000  0.5289890000000  0.4874450000000 1.0
C      1  0.4327300000000  0.5289890000000  0.5125550000000 1.0
C      1  0.4327300000000  0.4710110000000  0.4874450000000 1.0
C      1  0.5125550000000  0.4327300000000  0.5289890000000 1.0
C      1  0.4874450000000  0.4327300000000  0.4710110000000 1.0
C      1  0.4874450000000  0.5672700000000  0.5289890000000 1.0
C      1  0.4710110000000  0.4874450000000  0.4327300000000 1.0
C      1  0.5289890000000  0.4874450000000  0.5672700000000 1.0
C      1  0.5289890000000  0.5125550000000  0.4327300000000 1.0
C      1  0.5672700000000  0.5125550000000  0.4710110000000 1.0
C      1  0.5125550000000  0.4710110000000  0.5672700000000 1.0
C      1  0.4710110000000  0.5672700000000  0.5125550000000 1.0
C      1  0.5672700000000  0.4874450000000  0.5289890000000 1.0
C      1  0.4327300000000  0.5125550000000  0.5289890000000 1.0
C      1  0.4327300000000  0.4874450000000  0.4710110000000 1.0
C      1  0.5125550000000  0.5289890000000  0.4327300000000 1.0
C      1  0.4874450000000  0.4710110000000  0.4327300000000 1.0
C      1  0.4874450000000  0.5289890000000  0.5672700000000 1.0
C      1  0.4710110000000  0.4327300000000  0.4874450000000 1.0
C      1  0.5289890000000  0.5672690000000  0.4874450000000 1.0
C      1  0.5289890000000  0.4327300000000  0.5125550000000 1.0
C      1  0.5432070000000  0.4377300000000  0.4782580000000 1.0
C      1  0.4782580000000  0.5432070000000  0.4377300000000 1.0
C      1  0.4377300000000  0.4782580000000  0.5432070000000 1.0
C      1  0.5432070000000  0.5622700000000  0.5217420000000 1.0
C      1  0.4567930000000  0.5622700000000  0.4782580000000 1.0
C      1  0.4567930000000  0.4377300000000  0.5217420000000 1.0
C      1  0.4782580000000  0.4567930000000  0.5622700000000 1.0
C      1  0.5217420000000  0.4567930000000  0.4377300000000 1.0
C      1  0.5217420000000  0.5432070000000  0.5622700000000 1.0
C      1  0.4377300000000  0.5217420000000  0.4567930000000 1.0
C      1  0.5622700000000  0.5217420000000  0.5432070000000 1.0
C      1  0.5622700000000  0.4782580000000  0.4567930000000 1.0
C      1  0.5432070000000  0.4782580000000  0.4377300000000 1.0
C      1  0.4782580000000  0.4377300000000  0.5432070000000 1.0
C      1  0.4377300000000  0.5432070000000  0.4782580000000 1.0
C      1  0.5432070000000  0.5217420000000  0.5622700000000 1.0
C      1  0.4567930000000  0.4782580000000  0.5622700000000 1.0
C      1  0.4567930000000  0.5217420000000  0.4377300000000 1.0
C      1  0.4782580000000  0.5622700000000  0.4567930000000 1.0
C      1  0.5217420000000  0.4377300000000  0.4567930000000 1.0
C      1  0.5217420000000  0.5622700000000  0.5432070000000 1.0
C      1  0.4377300000000  0.4567930000000  0.5217420000000 1.0
C      1  0.5622700000000  0.5432070000000  0.5217420000000 1.0
C      1  0.5622700000000  0.4567930000000  0.4782580000000 1.0
C      1  0.5226540000000  0.5500870000000  0.5022380000000 1.0
C      1  0.5022380000000  0.5226540000000  0.5500870000000 1.0
C      1  0.5500870000000  0.5022380000000  0.5226540000000 1.0
C      1  0.5226540000000  0.4499130000000  0.4977620000000 1.0
C      1  0.4773460000000  0.4499130000000  0.5022380000000 1.0
C      1  0.4773460000000  0.5500870000000  0.4977620000000 1.0
C      1  0.5022380000000  0.4773460000000  0.4499130000000 1.0
C      1  0.4977620000000  0.4773460000000  0.5500870000000 1.0
C      1  0.4977620000000  0.5226540000000  0.4499130000000 1.0
C      1  0.5500870000000  0.4977620000000  0.4773460000000 1.0
C      1  0.4499130000000  0.4977620000000  0.5226540000000 1.0
C      1  0.4499130000000  0.5022380000000  0.4773460000000 1.0
C      1  0.5226540000000  0.5022380000000  0.5500870000000 1.0
C      1  0.5022380000000  0.5500870000000  0.5226540000000 1.0
C      1  0.5500870000000  0.5226540000000  0.5022380000000 1.0
C      1  0.5226540000000  0.4977620000000  0.4499130000000 1.0
C      1  0.4773460000000  0.5022380000000  0.4499130000000 1.0
C      1  0.4773460000000  0.4977620000000  0.5500870000000 1.0
C      1  0.5022380000000  0.4499130000000  0.4773460000000 1.0
C      1  0.4977620000000  0.5500870000000  0.4773460000000 1.0
C      1  0.4977620000000  0.4499130000000  0.5226540000000 1.0
C      1  0.5500870000000  0.4773460000000  0.4977620000000 1.0
C      1  0.4499130000000  0.5226540000000  0.4977620000000 1.0
C      1  0.4499130000000  0.4773460000000  0.5022380000000 1.0
C      1  0.5620660000000  0.4783060000000  0.4891610000000 1.0
C      1  0.4891610000000  0.5620660000000  0.4783060000000 1.0
C      1  0.4783060000000  0.4891610000000  0.5620660000000 1.0
C      1  0.5620660000000  0.5216940000000  0.5108390000000 1.0
C      1  0.4379340000000  0.5216940000000  0.4891610000000 1.0
C      1  0.4379340000000  0.4783060000000  0.5108390000000 1.0
C      1  0.4891610000000  0.4379340000000  0.5216940000000 1.0
C      1  0.5108390000000  0.4379340000000  0.4783060000000 1.0
C      1  0.5108390000000  0.5620660000000  0.5216940000000 1.0
C      1  0.4783050000000  0.5108390000000  0.4379340000000 1.0
C      1  0.5216940000000  0.5108390000000  0.5620660000000 1.0
C      1  0.5216950000000  0.4891610000000  0.4379340000000 1.0
C      1  0.5620660000000  0.4891610000000  0.4783060000000 1.0
C      1  0.4891610000000  0.4783060000000  0.5620660000000 1.0
C      1  0.4783060000000  0.5620660000000  0.4891610000000 1.0
C      1  0.5620660000000  0.5108390000000  0.5216940000000 1.0
C      1  0.4379340000000  0.4891610000000  0.5216940000000 1.0
C      1  0.4379340000000  0.5108390000000  0.4783060000000 1.0
C      1  0.4891610000000  0.5216940000000  0.4379340000000 1.0
C      1  0.5108390000000  0.4783060000000  0.4379340000000 1.0
C      1  0.5108390000000  0.5216940000000  0.5620660000000 1.0
C      1  0.4783060000000  0.4379340000000  0.5108390000000 1.0
C      1  0.5216940000000  0.5620660000000  0.5108390000000 1.0
C      1  0.5216940000000  0.4379340000000  0.4891610000000 1.0
C      1  0.4441860000000  0.5198600000000  0.5102970000000 1.0
C      1  0.5102970000000  0.4441860000000  0.5198600000000 1.0
C      1  0.5198600000000  0.5102970000000  0.4441860000000 1.0
C      1  0.4441860000000  0.4801400000000  0.4897030000000 1.0
C      1  0.5558140000000  0.4801400000000  0.5102970000000 1.0
C      1  0.5558140000000  0.5198600000000  0.4897030000000 1.0
C      1  0.5102970000000  0.5558140000000  0.4801400000000 1.0
C      1  0.4897030000000  0.5558140000000  0.5198600000000 1.0
C      1  0.4897030000000  0.4441860000000  0.4801400000000 1.0
C      1  0.5198600000000  0.4897030000000  0.5558140000000 1.0
C      1  0.4801400000000  0.4897030000000  0.4441860000000 1.0
C      1  0.4801400000000  0.5102970000000  0.5558140000000 1.0
C      1  0.4441860000000  0.5102970000000  0.5198600000000 1.0
C      1  0.5102970000000  0.5198600000000  0.4441860000000 1.0
C      1  0.5198600000000  0.4441860000000  0.5102970000000 1.0
C      1  0.4441860000000  0.4897030000000  0.4801400000000 1.0
C      1  0.5558140000000  0.5102970000000  0.4801400000000 1.0
C      1  0.5558140000000  0.4897030000000  0.5198600000000 1.0
C      1  0.5102970000000  0.4801400000000  0.5558140000000 1.0
C      1  0.4897030000000  0.5198600000000  0.5558140000000 1.0
C      1  0.4897030000000  0.4801400000000  0.4441860000000 1.0
C      1  0.5198600000000  0.5558140000000  0.4897030000000 1.0
C      1  0.4801400000000  0.4441860000000  0.4897030000000 1.0
C      1  0.4801400000000  0.5558140000000  0.5102970000000 1.0
C      1  0.4940140000000  0.4409870000000  0.4510160000000 1.0
C      1  0.4510160000000  0.4940140000000  0.4409870000000 1.0
C      1  0.4409870000000  0.4510160000000  0.4940140000000 1.0
C      1  0.4940140000000  0.5590130000000  0.5489840000000 1.0
C      1  0.5059860000000  0.5590130000000  0.4510160000000 1.0
C      1  0.5059860000000  0.4409870000000  0.5489840000000 1.0
C      1  0.4510160000000  0.5059860000000  0.5590130000000 1.0
C      1  0.5489840000000  0.5059860000000  0.4409870000000 1.0
C      1  0.5489840000000  0.4940140000000  0.5590130000000 1.0
C      1  0.4409870000000  0.5489840000000  0.5059860000000 1.0
C      1  0.5590130000000  0.5489840000000  0.4940140000000 1.0
C      1  0.5590130000000  0.4510160000000  0.5059860000000 1.0
C      1  0.4940140000000  0.4510160000000  0.4409870000000 1.0
C      1  0.4510160000000  0.4409870000000  0.4940140000000 1.0
C      1  0.4409870000000  0.4940140000000  0.4510160000000 1.0
C      1  0.4940140000000  0.5489840000000  0.5590130000000 1.0
C      1  0.5059860000000  0.4510160000000  0.5590130000000 1.0
C      1  0.5059860000000  0.5489840000000  0.4409870000000 1.0
C      1  0.4510160000000  0.5590130000000  0.5059860000000 1.0
C      1  0.5489840000000  0.4409870000000  0.5059860000000 1.0
C      1  0.5489840000000  0.5590130000000  0.4940140000000 1.0
C      1  0.4409870000000  0.5059860000000  0.5489840000000 1.0
C      1  0.5590130000000  0.4940140000000  0.5489840000000 1.0
C      1  0.5590130000000  0.5059860000000  0.4510160000000 1.0
C      1  0.4403490000000  0.5496890000000  0.4908810000000 1.0
C      1  0.4908810000000  0.4403490000000  0.5496890000000 1.0
C      1  0.5496890000000  0.4908810000000  0.4403490000000 1.0
C      1  0.4403490000000  0.4503110000000  0.5091190000000 1.0
C      1  0.5596510000000  0.4503110000000  0.4908810000000 1.0
C      1  0.5596510000000  0.5496890000000  0.5091190000000 1.0
C      1  0.4908810000000  0.5596510000000  0.4503110000000 1.0
C      1  0.5091190000000  0.5596510000000  0.5496890000000 1.0
C      1  0.5091190000000  0.4403490000000  0.4503110000000 1.0
C      1  0.5496890000000  0.5091190000000  0.5596510000000 1.0
C      1  0.4503110000000  0.5091190000000  0.4403490000000 1.0
C      1  0.4503110000000  0.4908810000000  0.5596510000000 1.0
C      1  0.4403490000000  0.4908810000000  0.5496890000000 1.0
C      1  0.4908810000000  0.5496890000000  0.4403490000000 1.0
C      1  0.5496890000000  0.4403490000000  0.4908810000000 1.0
C      1  0.4403490000000  0.5091190000000  0.4503110000000 1.0
C      1  0.5596510000000  0.4908810000000  0.4503110000000 1.0
C      1  0.5596510000000  0.5091190000000  0.5496890000000 1.0
C      1  0.4908810000000  0.4503110000000  0.5596510000000 1.0
C      1  0.5091190000000  0.5496890000000  0.5596510000000 1.0
C      1  0.5091190000000  0.4503110000000  0.4403490000000 1.0
C      1  0.5496890000000  0.5596510000000  0.5091190000000 1.0
C      1  0.4503110000000  0.4403490000000  0.5091190000000 1.0
C      1  0.4503110000000  0.5596510000000  0.4908810000000 1.0
C      1  0.5192610000000  0.4707620000000  0.5094690000000 1.0
C      1  0.5094690000000  0.5192610000000  0.4707620000000 1.0
C      1  0.4707620000000  0.5094690000000  0.5192610000000 1.0
C      1  0.5192610000000  0.5292380000000  0.4905310000000 1.0
C      1  0.4807390000000  0.5292380000000  0.5094690000000 1.0
C      1  0.4807390000000  0.4707620000000  0.4905310000000 1.0
C      1  0.5094690000000  0.4807390000000  0.5292380000000 1.0
C      1  0.4905310000000  0.4807390000000  0.4707620000000 1.0
C      1  0.4905310000000  0.5192610000000  0.5292380000000 1.0
C      1  0.4707620000000  0.4905310000000  0.4807390000000 1.0
C      1  0.5292380000000  0.4905310000000  0.5192610000000 1.0
C      1  0.5292380000000  0.5094690000000  0.4807390000000 1.0
C      1  0.5192610000000  0.5094690000000  0.4707620000000 1.0
C      1  0.5094690000000  0.4707620000000  0.5192610000000 1.0
C      1  0.4707620000000  0.5192610000000  0.5094690000000 1.0
C      1  0.5192610000000  0.4905310000000  0.5292380000000 1.0
C      1  0.4807390000000  0.5094690000000  0.5292380000000 1.0
C      1  0.4807390000000  0.4905310000000  0.4707620000000 1.0
C      1  0.5094690000000  0.5292380000000  0.4807390000000 1.0
C      1  0.4905310000000  0.4707620000000  0.4807390000000 1.0
C      1  0.4905310000000  0.5292380000000  0.5192610000000 1.0
C      1  0.4707620000000  0.4807390000000  0.4905310000000 1.0
C      1  0.5292380000000  0.5192610000000  0.4905310000000 1.0
C      1  0.5292380000000  0.4807390000000  0.5094690000000 1.0
C      1  0.5085520000000  0.4229090000000  0.5187430000000 1.0
C      1  0.5187430000000  0.5085520000000  0.4229090000000 1.0
C      1  0.4229090000000  0.5187430000000  0.5085520000000 1.0
C      1  0.5085520000000  0.5770910000000  0.4812570000000 1.0
C      1  0.4914480000000  0.5770910000000  0.5187430000000 1.0
C      1  0.4914480000000  0.4229090000000  0.4812570000000 1.0
C      1  0.5187430000000  0.4914480000000  0.5770910000000 1.0
C      1  0.4812570000000  0.4914480000000  0.4229090000000 1.0
C      1  0.4812570000000  0.5085520000000  0.5770910000000 1.0
C      1  0.4229090000000  0.4812570000000  0.4914480000000 1.0
C      1  0.5770910000000  0.4812570000000  0.5085520000000 1.0
C      1  0.5770910000000  0.5187430000000  0.4914480000000 1.0
C      1  0.5085520000000  0.5187430000000  0.4229090000000 1.0
C      1  0.5187430000000  0.4229090000000  0.5085520000000 1.0
C      1  0.4229090000000  0.5085520000000  0.5187430000000 1.0
C      1  0.5085520000000  0.4812570000000  0.5770910000000 1.0
C      1  0.4914480000000  0.5187430000000  0.5770910000000 1.0
C      1  0.4914480000000  0.4812570000000  0.4229090000000 1.0
C      1  0.5187430000000  0.5770910000000  0.4914480000000 1.0
C      1  0.4812570000000  0.4229090000000  0.4914480000000 1.0
C      1  0.4812570000000  0.5770910000000  0.5085520000000 1.0
C      1  0.4229090000000  0.4914480000000  0.4812570000000 1.0
C      1  0.5770910000000  0.5085520000000  0.4812570000000 1.0
C      1  0.5770910000000  0.4914480000000  0.5187430000000 1.0
C      1  0.5400340000000  0.5293540000000  0.4496390000000 1.0
C      1  0.4496390000000  0.5400340000000  0.5293540000000 1.0
C      1  0.5293540000000  0.4496390000000  0.5400340000000 1.0
C      1  0.5400340000000  0.4706460000000  0.5503610000000 1.0
C      1  0.4599660000000  0.4706460000000  0.4496390000000 1.0
C      1  0.4599660000000  0.5293540000000  0.5503610000000 1.0
C      1  0.4496390000000  0.4599660000000  0.4706460000000 1.0
C      1  0.5503610000000  0.4599660000000  0.5293540000000 1.0
C      1  0.5503610000000  0.5400340000000  0.4706460000000 1.0
C      1  0.5293540000000  0.5503610000000  0.4599660000000 1.0
C      1  0.4706460000000  0.5503610000000  0.5400340000000 1.0
C      1  0.4706460000000  0.4496390000000  0.4599660000000 1.0
C      1  0.5400340000000  0.4496390000000  0.5293540000000 1.0
C      1  0.4496390000000  0.5293540000000  0.5400340000000 1.0
C      1  0.5293540000000  0.5400340000000  0.4496390000000 1.0
C      1  0.5400340000000  0.5503610000000  0.4706460000000 1.0
C      1  0.4599660000000  0.4496390000000  0.4706460000000 1.0
C      1  0.4599660000000  0.5503610000000  0.5293540000000 1.0
C      1  0.4496390000000  0.4706460000000  0.4599660000000 1.0
C      1  0.5503610000000  0.5293540000000  0.4599660000000 1.0
C      1  0.5503610000000  0.4706460000000  0.5400340000000 1.0
C      1  0.5293540000000  0.4599660000000  0.5503610000000 1.0
C      1  0.4706460000000  0.5400340000000  0.5503610000000 1.0
C      1  0.4706460000000  0.4599660000000  0.4496390000000 1.0
C      1  0.5445600000000  0.5544860000000  0.5341970000000 1.0
C      1  0.5341970000000  0.5445600000000  0.5544860000000 1.0
C      1  0.5544860000000  0.5341970000000  0.5445600000000 1.0
C      1  0.5445600000000  0.4455140000000  0.4658030000000 1.0
C      1  0.4554400000000  0.4455140000000  0.5341970000000 1.0
C      1  0.4554400000000  0.5544860000000  0.4658030000000 1.0
C      1  0.5341970000000  0.4554400000000  0.4455140000000 1.0
C      1  0.4658030000000  0.4554400000000  0.5544860000000 1.0
C      1  0.4658030000000  0.5445600000000  0.4455140000000 1.0
C      1  0.5544860000000  0.4658030000000  0.4554400000000 1.0
C      1  0.4455140000000  0.4658030000000  0.5445600000000 1.0
C      1  0.4455140000000  0.5341970000000  0.4554400000000 1.0
C      1  0.5445600000000  0.5341970000000  0.5544860000000 1.0
C      1  0.5341970000000  0.5544860000000  0.5445600000000 1.0
C      1  0.5544860000000  0.5445600000000  0.5341970000000 1.0
C      1  0.5445600000000  0.4658030000000  0.4455140000000 1.0
C      1  0.4554400000000  0.5341970000000  0.4455140000000 1.0
C      1  0.4554400000000  0.4658030000000  0.5544860000000 1.0
C      1  0.5341970000000  0.4455140000000  0.4554400000000 1.0
C      1  0.4658030000000  0.5544860000000  0.4554400000000 1.0
C      1  0.4658030000000  0.4455140000000  0.5445600000000 1.0
C      1  0.5544860000000  0.4554400000000  0.4658030000000 1.0
C      1  0.4455140000000  0.5445600000000  0.4658030000000 1.0
C      1  0.4455140000000  0.4554400000000  0.5341970000000 1.0
C      1  0.5307800000000  0.4320330000000  0.4792690000000 1.0
C      1  0.4792690000000  0.5307790000000  0.4320330000000 1.0
C      1  0.4320330000000  0.4792690000000  0.5307800000000 1.0
C      1  0.5307800000000  0.5679670000000  0.5207310000000 1.0
C      1  0.4692200000000  0.5679670000000  0.4792690000000 1.0
C      1  0.4692200000000  0.4320330000000  0.5207310000000 1.0
C      1  0.4792690000000  0.4692210000000  0.5679670000000 1.0
C      1  0.5207310000000  0.4692210000000  0.4320330000000 1.0
C      1  0.5207310000000  0.5307790000000  0.5679670000000 1.0
C      1  0.4320330000000  0.5207310000000  0.4692200000000 1.0
C      1  0.5679670000000  0.5207310000000  0.5307800000000 1.0
C      1  0.5679670000000  0.4792690000000  0.4692200000000 1.0
C      1  0.5307800000000  0.4792700000000  0.4320330000000 1.0
C      1  0.4792690000000  0.4320330000000  0.5307800000000 1.0
C      1  0.4320330000000  0.5307800000000  0.4792690000000 1.0
C      1  0.5307800000000  0.5207310000000  0.5679670000000 1.0
C      1  0.4692200000000  0.4792700000000  0.5679670000000 1.0
C      1  0.4692200000000  0.5207300000000  0.4320330000000 1.0
C      1  0.4792690000000  0.5679670000000  0.4692200000000 1.0
C      1  0.5207310000000  0.4320330000000  0.4692200000000 1.0
C      1  0.5207310000000  0.5679670000000  0.5307800000000 1.0
C      1  0.4320330000000  0.4692200000000  0.5207310000000 1.0
C      1  0.5679670000000  0.5307790000000  0.5207310000000 1.0
C      1  0.5679670000000  0.4692200000000  0.4792690000000 1.0
C      1  0.4630480000000  0.5264930000000  0.4986580000000 1.0
C      1  0.4986580000000  0.4630480000000  0.5264930000000 1.0
C      1  0.5264930000000  0.4986580000000  0.4630480000000 1.0
C      1  0.4630480000000  0.4735070000000  0.5013420000000 1.0
C      1  0.5369520000000  0.4735070000000  0.4986580000000 1.0
C      1  0.5369520000000  0.5264930000000  0.5013420000000 1.0
C      1  0.4986580000000  0.5369520000000  0.4735070000000 1.0
C      1  0.5013420000000  0.5369520000000  0.5264930000000 1.0
C      1  0.5013420000000  0.4630480000000  0.4735070000000 1.0
C      1  0.5264930000000  0.5013420000000  0.5369520000000 1.0
C      1  0.4735070000000  0.5013420000000  0.4630480000000 1.0
C      1  0.4735070000000  0.4986580000000  0.5369520000000 1.0
C      1  0.4630480000000  0.4986580000000  0.5264930000000 1.0
C      1  0.4986580000000  0.5264930000000  0.4630480000000 1.0
C      1  0.5264930000000  0.4630480000000  0.4986580000000 1.0
C      1  0.4630480000000  0.5013420000000  0.4735070000000 1.0
C      1  0.5369520000000  0.4986580000000  0.4735070000000 1.0
C      1  0.5369520000000  0.5013420000000  0.5264930000000 1.0
C      1  0.4986580000000  0.4735070000000  0.5369520000000 1.0
C      1  0.5013420000000  0.5264930000000  0.5369520000000 1.0
C      1  0.5013420000000  0.4735070000000  0.4630480000000 1.0
C      1  0.5264930000000  0.5369520000000  0.5013420000000 1.0
C      1  0.4735070000000  0.4630480000000  0.5013420000000 1.0
C      1  0.4735070000000  0.5369520000000  0.4986580000000 1.0
C      1  0.4390460000000  0.5174380000000  0.5405960000000 1.0
C      1  0.5405960000000  0.4390460000000  0.5174380000000 1.0
C      1  0.5174380000000  0.5405960000000  0.4390460000000 1.0
C      1  0.4390460000000  0.4825620000000  0.4594040000000 1.0
C      1  0.5609540000000  0.4825620000000  0.5405960000000 1.0
C      1  0.5609540000000  0.5174380000000  0.4594040000000 1.0
C      1  0.5405960000000  0.5609540000000  0.4825620000000 1.0
C      1  0.4594040000000  0.5609540000000  0.5174380000000 1.0
C      1  0.4594040000000  0.4390460000000  0.4825620000000 1.0
C      1  0.5174380000000  0.4594040000000  0.5609540000000 1.0
C      1  0.4825620000000  0.4594040000000  0.4390460000000 1.0
C      1  0.4825620000000  0.5405960000000  0.5609540000000 1.0
C      1  0.4390460000000  0.5405960000000  0.5174380000000 1.0
C      1  0.5405970000000  0.5174380000000  0.4390460000000 1.0
C      1  0.5174380000000  0.4390460000000  0.5405970000000 1.0
C      1  0.4390460000000  0.4594040000000  0.4825620000000 1.0
C      1  0.5609540000000  0.5405960000000  0.4825620000000 1.0
C      1  0.5609540000000  0.4594040000000  0.5174380000000 1.0
C      1  0.5405970000000  0.4825620000000  0.5609540000000 1.0
C      1  0.4594030000000  0.5174380000000  0.5609540000000 1.0
C      1  0.4594030000000  0.4825620000000  0.4390460000000 1.0
C      1  0.5174380000000  0.5609540000000  0.4594040000000 1.0
C      1  0.4825620000000  0.4390460000000  0.4594030000000 1.0
C      1  0.4825620000000  0.5609540000000  0.5405960000000 1.0
END
