TITL C-1379268-1316-327 2.06508790202887e-07 1000000 -1519.20616443735 0 0 220 (D2d) n - 1
REM
REM in /nfs/bkarasulu/CARBON/AIRSS/Generating-Clusters/GAP-ML-2020/Higher-Symm/Selected-Sizes/TryA-Only_Ih-Symm/Larger-Clusters/Try2-MINAMP_6A
REM
REM
REM
REM
REM
REM ./C.cell (31579ac4e95a012ec27f3239692ae8a5)
REM
REM compiler GCC version 9.2.1 20190827 (Red Hat 9.2.1-1)
REM options -cpp -mtune=generic -march=x86-64 -g -O0 -fpre-include=/usr/include/finclude/math-vector-fortran.h
REM seed 1800297099 2035573420 -1048901794 -2071923510 2004846863 629742661 -281501232 -484026901 -1334568871 1240430193 -250098806 372335275 -1666187596 2129123760 -1138635892 -2112243258 -435021984 707536199 1943658688 -1871677193 -1638161680 1831310102 -1831141591 507737201 -1289654448 -1128746988 -1779045895 1960796016 479461510 2100577788 -1948452666 1377446545 -211665426
REM
CELL 1.54180  100.00000  100.00000  100.00000   90.00000   90.00000   90.00000
LATT -1
SFAC C  
C      1  0.5321060000000  0.5226630000000  0.4427340000000 1.0
C      1  0.3978660000000  0.5172950000000  0.5082130000000 1.0
C      1  0.5208180000000  0.4476480000000  0.5242980000000 1.0
C      1  0.4673310000000  0.4764770000000  0.4427350000000 1.0
C      1  0.4673310000000  0.5226630000000  0.5558430000000 1.0
C      1  0.5321070000000  0.4764770000000  0.5558430000000 1.0
C      1  0.6015710000000  0.4818440000000  0.5082120000000 1.0
C      1  0.6015710000000  0.5172950000000  0.4903640000000 1.0
C      1  0.3978660000000  0.4818450000000  0.4903650000000 1.0
C      1  0.4786200000000  0.5514920000000  0.5242980000000 1.0
C      1  0.4786190000000  0.4476480000000  0.4742800000000 1.0
C      1  0.5208180000000  0.5514920000000  0.4742790000000 1.0
C      1  0.5208180000000  0.5245790000000  0.4473660000000 1.0
C      1  0.5321070000000  0.4430160000000  0.5223810000000 1.0
C      1  0.3978660000000  0.5084940000000  0.5170140000000 1.0
C      1  0.4786190000000  0.4745610000000  0.4473670000000 1.0
C      1  0.5208180000000  0.4745610000000  0.5512110000000 1.0
C      1  0.4786200000000  0.5245790000000  0.5512110000000 1.0
C      1  0.4673310000000  0.5561240000000  0.5223810000000 1.0
C      1  0.5321070000000  0.5561240000000  0.4761960000000 1.0
C      1  0.4673310000000  0.4430160000000  0.4761960000000 1.0
C      1  0.6015710000000  0.4906460000000  0.5170130000000 1.0
C      1  0.3978660000000  0.4906460000000  0.4815640000000 1.0
C      1  0.6015710000000  0.5084930000000  0.4815630000000 1.0
C      1  0.4469960000000  0.5563040000000  0.4838190000000 1.0
C      1  0.4708350000000  0.4709750000000  0.5503130000000 1.0
C      1  0.5762100000000  0.4791730000000  0.4597070000000 1.0
C      1  0.5524410000000  0.4428360000000  0.4838190000000 1.0
C      1  0.5524420000000  0.5563040000000  0.5147580000000 1.0
C      1  0.4469960000000  0.4428360000000  0.5147590000000 1.0
C      1  0.5286030000000  0.5281640000000  0.5503130000000 1.0
C      1  0.5286020000000  0.4709750000000  0.4482640000000 1.0
C      1  0.4708350000000  0.5281640000000  0.4482640000000 1.0
C      1  0.4232270000000  0.5199670000000  0.4597080000000 1.0
C      1  0.4232280000000  0.4791730000000  0.5388700000000 1.0
C      1  0.5762100000000  0.5199660000000  0.5388690000000 1.0
C      1  0.5762100000000  0.4599890000000  0.4788910000000 1.0
C      1  0.4469960000000  0.4841000000000  0.5560230000000 1.0
C      1  0.4708350000000  0.5505940000000  0.4706940000000 1.0
C      1  0.4232280000000  0.5391510000000  0.4788920000000 1.0
C      1  0.5762100000000  0.5391510000000  0.5196850000000 1.0
C      1  0.4232280000000  0.4599890000000  0.5196860000000 1.0
C      1  0.5524420000000  0.5150390000000  0.5560220000000 1.0
C      1  0.4469960000000  0.5150400000000  0.4425550000000 1.0
C      1  0.5524410000000  0.4841000000000  0.4425540000000 1.0
C      1  0.5286020000000  0.4485450000000  0.4706940000000 1.0
C      1  0.4708350000000  0.4485450000000  0.5278830000000 1.0
C      1  0.5286030000000  0.5505940000000  0.5278830000000 1.0
C      1  0.5447800000000  0.4813740000000  0.5591330000000 1.0
C      1  0.5930810000000  0.5274270000000  0.4945210000000 1.0
C      1  0.4916560000000  0.5472240000000  0.5248970000000 1.0
C      1  0.4546590000000  0.5177660000000  0.5591330000000 1.0
C      1  0.4546580000000  0.4813740000000  0.4394450000000 1.0
C      1  0.5447790000000  0.5177660000000  0.4394440000000 1.0
C      1  0.4063570000000  0.4717130000000  0.4945220000000 1.0
C      1  0.4063570000000  0.5274270000000  0.5040560000000 1.0
C      1  0.5930810000000  0.4717120000000  0.5040550000000 1.0
C      1  0.5077820000000  0.4519160000000  0.5248970000000 1.0
C      1  0.5077820000000  0.5472240000000  0.4736800000000 1.0
C      1  0.4916550000000  0.4519160000000  0.4736810000000 1.0
C      1  0.4916560000000  0.5251780000000  0.5469430000000 1.0
C      1  0.5447790000000  0.5594140000000  0.4810920000000 1.0
C      1  0.5930810000000  0.4948020000000  0.5271450000000 1.0
C      1  0.5077820000000  0.4739620000000  0.5469430000000 1.0
C      1  0.4916550000000  0.4739620000000  0.4516340000000 1.0
C      1  0.5077820000000  0.5251780000000  0.4516340000000 1.0
C      1  0.4546580000000  0.4397260000000  0.4810930000000 1.0
C      1  0.5447790000000  0.4397260000000  0.5174840000000 1.0
C      1  0.4546580000000  0.5594140000000  0.5174850000000 1.0
C      1  0.4063570000000  0.5043370000000  0.5271460000000 1.0
C      1  0.5930810000000  0.5043370000000  0.4714310000000 1.0
C      1  0.4063570000000  0.4948030000000  0.4714320000000 1.0
C      1  0.4843620000000  0.5261760000000  0.4520060000000 1.0
C      1  0.4196820000000  0.4927260000000  0.5416910000000 1.0
C      1  0.5556370000000  0.4413300000000  0.4973730000000 1.0
C      1  0.5150750000000  0.4729640000000  0.4520060000000 1.0
C      1  0.5150760000000  0.5261760000000  0.5465720000000 1.0
C      1  0.4843630000000  0.4729640000000  0.5465720000000 1.0
C      1  0.5797560000000  0.5064130000000  0.5416900000000 1.0
C      1  0.5797550000000  0.4927260000000  0.4568860000000 1.0
C      1  0.4196820000000  0.5064140000000  0.4568870000000 1.0
C      1  0.4438000000000  0.5578090000000  0.4973740000000 1.0
C      1  0.4438000000000  0.4413310000000  0.5012040000000 1.0
C      1  0.5556370000000  0.5578090000000  0.5012030000000 1.0
C      1  0.5556370000000  0.4976550000000  0.4410490000000 1.0
C      1  0.4843620000000  0.4522870000000  0.5258950000000 1.0
C      1  0.4196820000000  0.5419720000000  0.4924450000000 1.0
C      1  0.4438000000000  0.5014850000000  0.4410500000000 1.0
C      1  0.5556370000000  0.5014850000000  0.5575280000000 1.0
C      1  0.4438010000000  0.4976550000000  0.5575280000000 1.0
C      1  0.5150760000000  0.5468530000000  0.5258950000000 1.0
C      1  0.4843620000000  0.5468530000000  0.4726830000000 1.0
C      1  0.5150750000000  0.4522870000000  0.4726830000000 1.0
C      1  0.5797550000000  0.4571680000000  0.4924440000000 1.0
C      1  0.4196820000000  0.4571680000000  0.5061330000000 1.0
C      1  0.5797560000000  0.5419720000000  0.5061320000000 1.0
C      1  0.5036160000000  0.5233630000000  0.4653760000000 1.0
C      1  0.4178030000000  0.5135160000000  0.5314670000000 1.0
C      1  0.5560040000000  0.4481600000000  0.5196760000000 1.0
C      1  0.4958210000000  0.4757760000000  0.4653760000000 1.0
C      1  0.4958220000000  0.5233640000000  0.5332010000000 1.0
C      1  0.5036160000000  0.4757760000000  0.5332010000000 1.0
C      1  0.5816350000000  0.4856240000000  0.5314660000000 1.0
C      1  0.5816340000000  0.5135150000000  0.4671100000000 1.0
C      1  0.4178030000000  0.4856240000000  0.4671110000000 1.0
C      1  0.4434330000000  0.5509800000000  0.5196760000000 1.0
C      1  0.4434330000000  0.4481600000000  0.4789020000000 1.0
C      1  0.5560050000000  0.5509800000000  0.4789010000000 1.0
C      1  0.5560040000000  0.5199570000000  0.4478780000000 1.0
C      1  0.5036160000000  0.4656570000000  0.5230820000000 1.0
C      1  0.4178030000000  0.5317480000000  0.5132350000000 1.0
C      1  0.4434330000000  0.4791830000000  0.4478790000000 1.0
C      1  0.5560050000000  0.4791820000000  0.5506980000000 1.0
C      1  0.4434340000000  0.5199570000000  0.5506990000000 1.0
C      1  0.4958220000000  0.5334830000000  0.5230820000000 1.0
C      1  0.5036160000000  0.5334820000000  0.4754950000000 1.0
C      1  0.4958220000000  0.4656570000000  0.4754950000000 1.0
C      1  0.5816340000000  0.4673920000000  0.5132340000000 1.0
C      1  0.4178030000000  0.4673920000000  0.4853430000000 1.0
C      1  0.5816340000000  0.5317480000000  0.4853420000000 1.0
C      1  0.5626960000000  0.5079100000000  0.4496880000000 1.0
C      1  0.4254580000000  0.5413940000000  0.5052940000000 1.0
C      1  0.4889480000000  0.4658470000000  0.5229830000000 1.0
C      1  0.4367410000000  0.4912300000000  0.4496880000000 1.0
C      1  0.4367410000000  0.5079100000000  0.5488900000000 1.0
C      1  0.5626970000000  0.4912290000000  0.5488890000000 1.0
C      1  0.5739800000000  0.4577450000000  0.5052940000000 1.0
C      1  0.5739800000000  0.5413940000000  0.4932830000000 1.0
C      1  0.4254580000000  0.4577460000000  0.4932840000000 1.0
C      1  0.5104900000000  0.5332930000000  0.5229830000000 1.0
C      1  0.5104900000000  0.4658470000000  0.4755940000000 1.0
C      1  0.4889480000000  0.5332920000000  0.4755940000000 1.0
C      1  0.4889480000000  0.5232650000000  0.4655660000000 1.0
C      1  0.5626960000000  0.4499690000000  0.5076290000000 1.0
C      1  0.4254580000000  0.5055750000000  0.5411130000000 1.0
C      1  0.5104900000000  0.4758750000000  0.4655660000000 1.0
C      1  0.4889480000000  0.4758750000000  0.5330110000000 1.0
C      1  0.5104900000000  0.5232650000000  0.5330110000000 1.0
C      1  0.4367410000000  0.5491710000000  0.5076290000000 1.0
C      1  0.5626970000000  0.5491700000000  0.4909480000000 1.0
C      1  0.4367410000000  0.4499690000000  0.4909490000000 1.0
C      1  0.5739800000000  0.4935640000000  0.5411130000000 1.0
C      1  0.4254570000000  0.4935650000000  0.4574650000000 1.0
C      1  0.5739800000000  0.5055750000000  0.4574640000000 1.0
C      1  0.4351220000000  0.4614570000000  0.5272140000000 1.0
C      1  0.5403490000000  0.4569350000000  0.4669000000000 1.0
C      1  0.4468070000000  0.5250190000000  0.4534630000000 1.0
C      1  0.5643160000000  0.5376830000000  0.5272130000000 1.0
C      1  0.5643160000000  0.4614570000000  0.4713630000000 1.0
C      1  0.4351220000000  0.5376830000000  0.4713640000000 1.0
C      1  0.4590880000000  0.5422050000000  0.4669010000000 1.0
C      1  0.4590880000000  0.4569350000000  0.5316770000000 1.0
C      1  0.5403500000000  0.5422050000000  0.5316760000000 1.0
C      1  0.5526300000000  0.4741210000000  0.4534620000000 1.0
C      1  0.5526310000000  0.5250180000000  0.5451140000000 1.0
C      1  0.4468070000000  0.4741210000000  0.5451150000000 1.0
C      1  0.4468070000000  0.4537440000000  0.5247380000000 1.0
C      1  0.4351210000000  0.5274950000000  0.4611760000000 1.0
C      1  0.5403490000000  0.4671820000000  0.4566530000000 1.0
C      1  0.5526310000000  0.5453960000000  0.5247370000000 1.0
C      1  0.4468070000000  0.5453960000000  0.4738400000000 1.0
C      1  0.5526300000000  0.4537440000000  0.4738400000000 1.0
C      1  0.5643160000000  0.4716450000000  0.4611750000000 1.0
C      1  0.4351220000000  0.4716450000000  0.5374020000000 1.0
C      1  0.5643160000000  0.5274950000000  0.5374010000000 1.0
C      1  0.4590880000000  0.5319580000000  0.4566540000000 1.0
C      1  0.5403500000000  0.5319580000000  0.5419230000000 1.0
C      1  0.4590880000000  0.4671820000000  0.5419240000000 1.0
C      1  0.4523550000000  0.5666020000000  0.5048260000000 1.0
C      1  0.4961000000000  0.4714620000000  0.5540580000000 1.0
C      1  0.5915400000000  0.4919740000000  0.4652830000000 1.0
C      1  0.5470830000000  0.4325370000000  0.5048250000000 1.0
C      1  0.5470830000000  0.5666020000000  0.4937510000000 1.0
C      1  0.4523540000000  0.4325370000000  0.4937520000000 1.0
C      1  0.5033380000000  0.5276780000000  0.5540580000000 1.0
C      1  0.5033380000000  0.4714620000000  0.4445190000000 1.0
C      1  0.4960990000000  0.5276780000000  0.4445190000000 1.0
C      1  0.4078970000000  0.5071660000000  0.4652840000000 1.0
C      1  0.4078980000000  0.4919750000000  0.5332940000000 1.0
C      1  0.5915400000000  0.5071650000000  0.5332930000000 1.0
C      1  0.5915400000000  0.4655640000000  0.4916930000000 1.0
C      1  0.4523550000000  0.5051070000000  0.5663210000000 1.0
C      1  0.4961000000000  0.5543400000000  0.4711810000000 1.0
C      1  0.4078980000000  0.5335750000000  0.4916940000000 1.0
C      1  0.5915400000000  0.5335750000000  0.5068830000000 1.0
C      1  0.4078980000000  0.4655650000000  0.5068850000000 1.0
C      1  0.5470830000000  0.4940330000000  0.5663210000000 1.0
C      1  0.4523540000000  0.4940330000000  0.4322560000000 1.0
C      1  0.5470830000000  0.5051070000000  0.4322560000000 1.0
C      1  0.5033380000000  0.4448000000000  0.4711810000000 1.0
C      1  0.4961000000000  0.4448000000000  0.5273960000000 1.0
C      1  0.5033380000000  0.5543400000000  0.5273970000000 1.0
C      1  0.5884990000000  0.4779120000000  0.4678740000000 1.0
C      1  0.4563680000000  0.5664580000000  0.4804670000000 1.0
C      1  0.4672280000000  0.4748800000000  0.5633600000000 1.0
C      1  0.4109380000000  0.5212280000000  0.4678750000000 1.0
C      1  0.4109380000000  0.4779120000000  0.5307040000000 1.0
C      1  0.5884990000000  0.5212270000000  0.5307030000000 1.0
C      1  0.5430700000000  0.4326820000000  0.4804670000000 1.0
C      1  0.5430700000000  0.5664580000000  0.5181100000000 1.0
C      1  0.4563680000000  0.4326820000000  0.5181100000000 1.0
C      1  0.5322110000000  0.5242600000000  0.5633600000000 1.0
C      1  0.5322100000000  0.4748800000000  0.4352170000000 1.0
C      1  0.4672270000000  0.5242600000000  0.4352170000000 1.0
C      1  0.4672280000000  0.5636420000000  0.4745990000000 1.0
C      1  0.5884990000000  0.4681550000000  0.4776310000000 1.0
C      1  0.4563680000000  0.4807480000000  0.5661770000000 1.0
C      1  0.5322100000000  0.4354980000000  0.4745990000000 1.0
C      1  0.4672280000000  0.4354980000000  0.5239790000000 1.0
C      1  0.5322100000000  0.5636410000000  0.5239780000000 1.0
C      1  0.4109380000000  0.5309850000000  0.4776310000000 1.0
C      1  0.5884990000000  0.5309840000000  0.5209460000000 1.0
C      1  0.4109380000000  0.4681560000000  0.5209470000000 1.0
C      1  0.5430700000000  0.5183910000000  0.5661770000000 1.0
C      1  0.4563670000000  0.5183910000000  0.4324010000000 1.0
C      1  0.5430690000000  0.4807480000000  0.4324000000000 1.0
C      1  0.4205670000000  0.5250980000000  0.5248170000000 1.0
C      1  0.5788710000000  0.4740410000000  0.5248160000000 1.0
C      1  0.4205670000000  0.4740420000000  0.4737610000000 1.0
C      1  0.5788700000000  0.5250980000000  0.4737600000000 1.0
END
