TITL C-1379268-1316-213 -4.37740193289038e-07 1000000 -1375.2973254289 0 0 200 (Th) n - 1
REM
REM in /nfs/bkarasulu/CARBON/AIRSS/Generating-Clusters/GAP-ML-2020/Higher-Symm/Selected-Sizes/TryA-Only_Ih-Symm/Larger-Clusters/Try2-MINAMP_6A
REM
REM
REM
REM
REM
REM ./C.cell (31579ac4e95a012ec27f3239692ae8a5)
REM
REM compiler GCC version 9.2.1 20190827 (Red Hat 9.2.1-1)
REM options -cpp -mtune=generic -march=x86-64 -g -O0 -fpre-include=/usr/include/finclude/math-vector-fortran.h
REM seed -742408403 1822831418 -688971573 1148973426 1300871591 737343447 -366490557 -871330525 -193424799 -1153713130 1270571143 -1788790292 -1528623996 1996032673 144197654 -796281097 1424346430 -2045632950 -551708222 2095298790 -319087665 -750847469 688712316 875467265 448456566 2145992091 -358638449 793938470 -419018343 -1580474833 -1913332618 2010588516 754166443
REM
CELL 1.54180  100.00000  100.00000  100.00000   90.00000   90.00000   90.00000
LATT -1
SFAC C  
C      1  0.4324030000000  0.4825500000000  0.4701090000000 1.0
C      1  0.4820730000000  0.4701940000000  0.4327960000000 1.0
C      1  0.4697160000000  0.4328810000000  0.4824650000000 1.0
C      1  0.5674270000000  0.5182350000000  0.4701090000000 1.0
C      1  0.4324030000000  0.5182350000000  0.5305070000000 1.0
C      1  0.5674270000000  0.4825500000000  0.5305070000000 1.0
C      1  0.5177580000000  0.5305920000000  0.4327960000000 1.0
C      1  0.4820730000000  0.5305920000000  0.5678200000000 1.0
C      1  0.5177580000000  0.4701940000000  0.5678200000000 1.0
C      1  0.5301140000000  0.5679050000000  0.4824650000000 1.0
C      1  0.4697160000000  0.5679050000000  0.5181510000000 1.0
C      1  0.5301140000000  0.4328810000000  0.5181500000000 1.0
C      1  0.4324030000000  0.4825500000000  0.5305070000000 1.0
C      1  0.4820730000000  0.4701940000000  0.5678200000000 1.0
C      1  0.4697160000000  0.4328810000000  0.5181500000000 1.0
C      1  0.5674270000000  0.5182350000000  0.5305070000000 1.0
C      1  0.4324030000000  0.5182350000000  0.4701090000000 1.0
C      1  0.5674270000000  0.4825500000000  0.4701090000000 1.0
C      1  0.5177580000000  0.5305920000000  0.5678200000000 1.0
C      1  0.4820730000000  0.5305920000000  0.4327960000000 1.0
C      1  0.5177580000000  0.4701940000000  0.4327960000000 1.0
C      1  0.5301140000000  0.5679050000000  0.5181500000000 1.0
C      1  0.4697160000000  0.5679050000000  0.4824650000000 1.0
C      1  0.5301140000000  0.4328810000000  0.4824650000000 1.0
C      1  0.5650370000000  0.4941950000000  0.4625750000000 1.0
C      1  0.4937180000000  0.4626590000000  0.5654300000000 1.0
C      1  0.4621820000000  0.5655140000000  0.4941100000000 1.0
C      1  0.4347940000000  0.5065910000000  0.4625750000000 1.0
C      1  0.5650370000000  0.5065910000000  0.5380410000000 1.0
C      1  0.4347940000000  0.4941950000000  0.5380410000000 1.0
C      1  0.5061130000000  0.5381260000000  0.5654300000000 1.0
C      1  0.4937170000000  0.5381260000000  0.4351860000000 1.0
C      1  0.5061130000000  0.4626600000000  0.4351860000000 1.0
C      1  0.5376480000000  0.4352710000000  0.4941100000000 1.0
C      1  0.4621820000000  0.4352710000000  0.5065060000000 1.0
C      1  0.5376490000000  0.5655140000000  0.5065060000000 1.0
C      1  0.5650370000000  0.4941950000000  0.5380410000000 1.0
C      1  0.4937180000000  0.4626600000000  0.4351860000000 1.0
C      1  0.4621820000000  0.5655140000000  0.5065060000000 1.0
C      1  0.4347940000000  0.5065910000000  0.5380410000000 1.0
C      1  0.5650370000000  0.5065900000000  0.4625750000000 1.0
C      1  0.4347940000000  0.4941950000000  0.4625750000000 1.0
C      1  0.5061130000000  0.5381260000000  0.4351860000000 1.0
C      1  0.4937170000000  0.5381260000000  0.5654300000000 1.0
C      1  0.5061130000000  0.4626590000000  0.5654300000000 1.0
C      1  0.5376480000000  0.4352710000000  0.5065060000000 1.0
C      1  0.4621820000000  0.4352710000000  0.4941100000000 1.0
C      1  0.5376490000000  0.5655140000000  0.4941100000000 1.0
C      1  0.5728190000000  0.5163480000000  0.5178320000000 1.0
C      1  0.5158700000000  0.5179170000000  0.5732110000000 1.0
C      1  0.5174390000000  0.5732960000000  0.5162630000000 1.0
C      1  0.4270120000000  0.4844380000000  0.5178320000000 1.0
C      1  0.5728190000000  0.4844380000000  0.4827840000000 1.0
C      1  0.4270120000000  0.5163480000000  0.4827840000000 1.0
C      1  0.4839600000000  0.4828690000000  0.5732110000000 1.0
C      1  0.5158700000000  0.4828690000000  0.4274050000000 1.0
C      1  0.4839600000000  0.5179170000000  0.4274050000000 1.0
C      1  0.4823910000000  0.4274890000000  0.5162630000000 1.0
C      1  0.5174390000000  0.4274890000000  0.4843530000000 1.0
C      1  0.4823910000000  0.5732960000000  0.4843530000000 1.0
C      1  0.5728190000000  0.5163480000000  0.4827840000000 1.0
C      1  0.5158700000000  0.5179170000000  0.4274050000000 1.0
C      1  0.5174390000000  0.5732960000000  0.4843530000000 1.0
C      1  0.4270120000000  0.4844380000000  0.4827840000000 1.0
C      1  0.5728190000000  0.4844380000000  0.5178320000000 1.0
C      1  0.4270120000000  0.5163480000000  0.5178320000000 1.0
C      1  0.4839600000000  0.4828690000000  0.4274050000000 1.0
C      1  0.5158700000000  0.4828690000000  0.5732110000000 1.0
C      1  0.4839600000000  0.5179160000000  0.5732110000000 1.0
C      1  0.4823910000000  0.4274890000000  0.4843530000000 1.0
C      1  0.5174390000000  0.4274890000000  0.5162630000000 1.0
C      1  0.4823920000000  0.5732960000000  0.5162630000000 1.0
C      1  0.4762040000000  0.5549980000000  0.4494280000000 1.0
C      1  0.5545200000000  0.4495120000000  0.4765960000000 1.0
C      1  0.4490350000000  0.4766810000000  0.5549130000000 1.0
C      1  0.5236270000000  0.4457870000000  0.4494280000000 1.0
C      1  0.4762040000000  0.4457870000000  0.5511880000000 1.0
C      1  0.5236270000000  0.5549980000000  0.5511880000000 1.0
C      1  0.4453100000000  0.5512730000000  0.4765960000000 1.0
C      1  0.5545210000000  0.5512730000000  0.5240200000000 1.0
C      1  0.4453100000000  0.4495130000000  0.5240200000000 1.0
C      1  0.5507950000000  0.5241040000000  0.5549130000000 1.0
C      1  0.4490350000000  0.5241040000000  0.4457030000000 1.0
C      1  0.5507960000000  0.4766810000000  0.4457030000000 1.0
C      1  0.4762040000000  0.5549980000000  0.5511880000000 1.0
C      1  0.5545210000000  0.4495130000000  0.5240190000000 1.0
C      1  0.4490350000000  0.4766810000000  0.4457030000000 1.0
C      1  0.5236270000000  0.4457870000000  0.5511880000000 1.0
C      1  0.4762040000000  0.4457870000000  0.4494280000000 1.0
C      1  0.5236270000000  0.5549980000000  0.4494280000000 1.0
C      1  0.4453100000000  0.5512730000000  0.5240200000000 1.0
C      1  0.5545210000000  0.5512730000000  0.4765960000000 1.0
C      1  0.4453100000000  0.4495130000000  0.4765960000000 1.0
C      1  0.5507950000000  0.5241040000000  0.4457030000000 1.0
C      1  0.4490350000000  0.5241040000000  0.5549130000000 1.0
C      1  0.5507950000000  0.4766810000000  0.5549130000000 1.0
C      1  0.5626640000000  0.5416910000000  0.5246060000000 1.0
C      1  0.5412140000000  0.5246900000000  0.5630570000000 1.0
C      1  0.5242130000000  0.5631410000000  0.5416070000000 1.0
C      1  0.4371670000000  0.4590940000000  0.5246060000000 1.0
C      1  0.5626640000000  0.4590940000000  0.4760100000000 1.0
C      1  0.4371670000000  0.5416910000000  0.4760100000000 1.0
C      1  0.4586170000000  0.4760950000000  0.5630570000000 1.0
C      1  0.5412140000000  0.4760950000000  0.4375590000000 1.0
C      1  0.4586170000000  0.5246900000000  0.4375590000000 1.0
C      1  0.4756180000000  0.4376440000000  0.5416070000000 1.0
C      1  0.5242130000000  0.4376440000000  0.4590090000000 1.0
C      1  0.4756180000000  0.5631410000000  0.4590090000000 1.0
C      1  0.5626640000000  0.5416910000000  0.4760100000000 1.0
C      1  0.5412140000000  0.5246900000000  0.4375590000000 1.0
C      1  0.5242130000000  0.5631410000000  0.4590090000000 1.0
C      1  0.4371670000000  0.4590940000000  0.4760100000000 1.0
C      1  0.5626640000000  0.4590940000000  0.5246060000000 1.0
C      1  0.4371670000000  0.5416910000000  0.5246060000000 1.0
C      1  0.4586170000000  0.4760950000000  0.4375590000000 1.0
C      1  0.5412140000000  0.4760950000000  0.5630570000000 1.0
C      1  0.4586170000000  0.5246900000000  0.5630570000000 1.0
C      1  0.4756180000000  0.4376440000000  0.4590090000000 1.0
C      1  0.5242130000000  0.4376440000000  0.5416070000000 1.0
C      1  0.4756180000000  0.5631410000000  0.5416070000000 1.0
C      1  0.5303660000000  0.4672070000000  0.5621900000000 1.0
C      1  0.4667300000000  0.5622750000000  0.5307590000000 1.0
C      1  0.5617970000000  0.5308430000000  0.4671220000000 1.0
C      1  0.4694650000000  0.5335780000000  0.5621900000000 1.0
C      1  0.5303660000000  0.5335780000000  0.4384260000000 1.0
C      1  0.4694650000000  0.4672070000000  0.4384260000000 1.0
C      1  0.5331010000000  0.4385110000000  0.5307590000000 1.0
C      1  0.4667300000000  0.4385110000000  0.4698570000000 1.0
C      1  0.5331010000000  0.5622750000000  0.4698570000000 1.0
C      1  0.4380330000000  0.4699420000000  0.4671220000000 1.0
C      1  0.5617970000000  0.4699420000000  0.5334940000000 1.0
C      1  0.4380330000000  0.5308430000000  0.5334940000000 1.0
C      1  0.5303660000000  0.4672070000000  0.4384260000000 1.0
C      1  0.4667300000000  0.5622750000000  0.4698570000000 1.0
C      1  0.5617970000000  0.5308430000000  0.5334940000000 1.0
C      1  0.4694650000000  0.5335780000000  0.4384260000000 1.0
C      1  0.5303660000000  0.5335780000000  0.5621900000000 1.0
C      1  0.4694650000000  0.4672070000000  0.5621900000000 1.0
C      1  0.5331010000000  0.4385110000000  0.4698570000000 1.0
C      1  0.4667300000000  0.4385110000000  0.5307590000000 1.0
C      1  0.5331010000000  0.5622750000000  0.5307590000000 1.0
C      1  0.4380330000000  0.4699420000000  0.5334940000000 1.0
C      1  0.5617970000000  0.4699420000000  0.4671220000000 1.0
C      1  0.4380330000000  0.5308430000000  0.4671220000000 1.0
C      1  0.5438450000000  0.5532790000000  0.5329670000000 1.0
C      1  0.5528020000000  0.5330520000000  0.5442370000000 1.0
C      1  0.5325740000000  0.5443220000000  0.5531940000000 1.0
C      1  0.4559860000000  0.4475060000000  0.5329670000000 1.0
C      1  0.5438450000000  0.4475060000000  0.4676490000000 1.0
C      1  0.4559860000000  0.5532790000000  0.4676490000000 1.0
C      1  0.4470290000000  0.4677340000000  0.5442370000000 1.0
C      1  0.5528020000000  0.4677340000000  0.4563790000000 1.0
C      1  0.4470290000000  0.5330520000000  0.4563790000000 1.0
C      1  0.4672560000000  0.4564630000000  0.5531940000000 1.0
C      1  0.5325740000000  0.4564630000000  0.4474220000000 1.0
C      1  0.4672560000000  0.5443220000000  0.4474220000000 1.0
C      1  0.5438450000000  0.5532790000000  0.4676490000000 1.0
C      1  0.5528020000000  0.5330520000000  0.4563790000000 1.0
C      1  0.5325740000000  0.5443220000000  0.4474220000000 1.0
C      1  0.4559860000000  0.4475060000000  0.4676490000000 1.0
C      1  0.5438450000000  0.4475060000000  0.5329670000000 1.0
C      1  0.4559860000000  0.5532790000000  0.5329670000000 1.0
C      1  0.4470290000000  0.4677340000000  0.4563790000000 1.0
C      1  0.5528020000000  0.4677340000000  0.5442370000000 1.0
C      1  0.4470290000000  0.5330520000000  0.5442370000000 1.0
C      1  0.4672560000000  0.4564630000000  0.4474220000000 1.0
C      1  0.5325740000000  0.4564630000000  0.5531940000000 1.0
C      1  0.4672560000000  0.5443220000000  0.5531940000000 1.0
C      1  0.5074720000000  0.4929320000000  0.4263240000000 1.0
C      1  0.4924550000000  0.4264090000000  0.5078650000000 1.0
C      1  0.4259310000000  0.5079490000000  0.4928470000000 1.0
C      1  0.4923590000000  0.5078530000000  0.4263240000000 1.0
C      1  0.5074720000000  0.5078530000000  0.5742920000000 1.0
C      1  0.4923590000000  0.4929320000000  0.5742920000000 1.0
C      1  0.5073760000000  0.5743770000000  0.5078640000000 1.0
C      1  0.4924550000000  0.5743770000000  0.4927510000000 1.0
C      1  0.5073760000000  0.4264090000000  0.4927510000000 1.0
C      1  0.5738990000000  0.4928360000000  0.4928470000000 1.0
C      1  0.4259310000000  0.4928360000000  0.5077690000000 1.0
C      1  0.5738990000000  0.5079490000000  0.5077690000000 1.0
C      1  0.5074720000000  0.4929320000000  0.5742920000000 1.0
C      1  0.4924550000000  0.4264090000000  0.4927510000000 1.0
C      1  0.4259310000000  0.5079490000000  0.5077690000000 1.0
C      1  0.4923590000000  0.5078530000000  0.5742920000000 1.0
C      1  0.5074720000000  0.5078530000000  0.4263240000000 1.0
C      1  0.4923590000000  0.4929320000000  0.4263240000000 1.0
C      1  0.5073760000000  0.5743770000000  0.4927510000000 1.0
C      1  0.4924550000000  0.5743770000000  0.5078640000000 1.0
C      1  0.5073760000000  0.4264090000000  0.5078650000000 1.0
C      1  0.5738990000000  0.4928360000000  0.5077690000000 1.0
C      1  0.4259310000000  0.4928360000000  0.4928470000000 1.0
C      1  0.5738990000000  0.5079490000000  0.4928470000000 1.0
C      1  0.5435070000000  0.5439840000000  0.4567160000000 1.0
C      1  0.5435070000000  0.4568010000000  0.5439000000000 1.0
C      1  0.4563230000000  0.5439850000000  0.5439000000000 1.0
C      1  0.4563240000000  0.4568010000000  0.4567160000000 1.0
C      1  0.5435070000000  0.5439850000000  0.5439000000000 1.0
C      1  0.5435070000000  0.4568010000000  0.4567160000000 1.0
C      1  0.4563230000000  0.5439850000000  0.4567160000000 1.0
C      1  0.4563230000000  0.4568010000000  0.5439000000000 1.0
END
