TITL C-1379266-1300-221 1.90875382973184e-07 1000000 -2093.60277333616 0 0 300 (C1) n - 1
REM
REM in /nfs/bkarasulu/CARBON/AIRSS/Generating-Clusters/GAP-ML-2020/Higher-Symm/Selected-Sizes/TryA-Only_Ih-Symm/Larger-Clusters/Try2-MINAMP_6A
REM
REM
REM
REM
REM
REM ./C.cell (31579ac4e95a012ec27f3239692ae8a5)
REM
REM compiler GCC version 9.2.1 20190827 (Red Hat 9.2.1-1)
REM options -cpp -mtune=generic -march=x86-64 -g -O0 -fpre-include=/usr/include/finclude/math-vector-fortran.h
REM seed 1870864762 -1537359652 514350917 403078537 -1722941497 -249237086 -1873149646 -996284700 289077267 912032199 -1992580375 1218143181 760974083 1548899913 922746427 1824128221 -1704701203 -764697656 1173202053 -1257531903 -1247970039 1013418830 -258161297 -372613854 273164475 -1349493175 1162587004 1559913375 1354910644 1315339151 -1189091028 1279425206 766311536
REM
CELL 1.54180  100.00000  100.00000  100.00000   90.00000   90.00000   90.00000
LATT -1
SFAC C  
C      1  0.5538990000000  0.4884890000000  0.5005380000000 1.0
C      1  0.4859500000000  0.5056810000000  0.5525420000000 1.0
C      1  0.4997200000000  0.5517100000000  0.4917590000000 1.0
C      1  0.5540740000000  0.5095680000000  0.4988630000000 1.0
C      1  0.4467430000000  0.4848700000000  0.4951490000000 1.0
C      1  0.4411110000000  0.5048030000000  0.4955470000000 1.0
C      1  0.4910070000000  0.5010110000000  0.4458010000000 1.0
C      1  0.5118460000000  0.5019080000000  0.4463090000000 1.0
C      1  0.5057950000000  0.5049210000000  0.5588390000000 1.0
C      1  0.5021090000000  0.4471510000000  0.5106580000000 1.0
C      1  0.4985730000000  0.5550810000000  0.5122290000000 1.0
C      1  0.4988760000000  0.4461420000000  0.4897490000000 1.0
C      1  0.5548310000000  0.5000280000000  0.4890800000000 1.0
C      1  0.4890190000000  0.5513550000000  0.5031710000000 1.0
C      1  0.4961530000000  0.4952070000000  0.5572360000000 1.0
C      1  0.5531440000000  0.4982050000000  0.5101190000000 1.0
C      1  0.4471450000000  0.4946340000000  0.4855630000000 1.0
C      1  0.4404420000000  0.4949790000000  0.5052340000000 1.0
C      1  0.4901230000000  0.4456240000000  0.5001560000000 1.0
C      1  0.5109060000000  0.4469940000000  0.5003030000000 1.0
C      1  0.5095200000000  0.5554170000000  0.5005010000000 1.0
C      1  0.5026370000000  0.5118510000000  0.4471320000000 1.0
C      1  0.4954670000000  0.5155010000000  0.5537190000000 1.0
C      1  0.5001320000000  0.4910620000000  0.4451520000000 1.0
C      1  0.4417670000000  0.4609310000000  0.5479850000000 1.0
C      1  0.4625580000000  0.5494660000000  0.4432060000000 1.0
C      1  0.5464170000000  0.4411550000000  0.4592750000000 1.0
C      1  0.4428060000000  0.5384280000000  0.4514010000000 1.0
C      1  0.5572150000000  0.4604310000000  0.4499810000000 1.0
C      1  0.5576100000000  0.5386940000000  0.5480500000000 1.0
C      1  0.4619060000000  0.4533540000000  0.5586460000000 1.0
C      1  0.5387750000000  0.5498420000000  0.5582960000000 1.0
C      1  0.5369880000000  0.4514340000000  0.4401480000000 1.0
C      1  0.5488060000000  0.5587370000000  0.5383860000000 1.0
C      1  0.4532430000000  0.4415350000000  0.5399970000000 1.0
C      1  0.4516590000000  0.5574370000000  0.4632940000000 1.0
C      1  0.4420530000000  0.5474560000000  0.4618140000000 1.0
C      1  0.4630230000000  0.4428630000000  0.5495760000000 1.0
C      1  0.5471600000000  0.4606980000000  0.4403210000000 1.0
C      1  0.4426920000000  0.4506390000000  0.5389290000000 1.0
C      1  0.5567710000000  0.4505630000000  0.4595870000000 1.0
C      1  0.5580930000000  0.5483580000000  0.5381930000000 1.0
C      1  0.4616670000000  0.5584300000000  0.4538770000000 1.0
C      1  0.5393770000000  0.5595460000000  0.5483130000000 1.0
C      1  0.5364160000000  0.4414600000000  0.4497920000000 1.0
C      1  0.5479650000000  0.5395950000000  0.5580860000000 1.0
C      1  0.4530170000000  0.5396200000000  0.4419630000000 1.0
C      1  0.4515440000000  0.4624330000000  0.5578040000000 1.0
C      1  0.5154520000000  0.4776830000000  0.5745130000000 1.0
C      1  0.4768740000000  0.5754050000000  0.5190250000000 1.0
C      1  0.5787750000000  0.5124490000000  0.4771480000000 1.0
C      1  0.5181520000000  0.5240210000000  0.4250050000000 1.0
C      1  0.4832400000000  0.4761010000000  0.4251930000000 1.0
C      1  0.4855460000000  0.5240990000000  0.5777980000000 1.0
C      1  0.4742570000000  0.4232410000000  0.4871680000000 1.0
C      1  0.5260120000000  0.5739730000000  0.4840050000000 1.0
C      1  0.5262240000000  0.4250670000000  0.5135440000000 1.0
C      1  0.5767500000000  0.4850110000000  0.5219020000000 1.0
C      1  0.4243530000000  0.5139860000000  0.5235760000000 1.0
C      1  0.4230680000000  0.4844380000000  0.4763250000000 1.0
C      1  0.5162800000000  0.5738150000000  0.4764400000000 1.0
C      1  0.4765450000000  0.5157240000000  0.5773000000000 1.0
C      1  0.5770990000000  0.4763190000000  0.5131680000000 1.0
C      1  0.5178330000000  0.4253380000000  0.5225670000000 1.0
C      1  0.4827060000000  0.4235170000000  0.4782180000000 1.0
C      1  0.4853350000000  0.5763580000000  0.5279610000000 1.0
C      1  0.4752570000000  0.4854710000000  0.4250640000000 1.0
C      1  0.5244950000000  0.4860210000000  0.5746090000000 1.0
C      1  0.5272070000000  0.5156190000000  0.4249410000000 1.0
C      1  0.5784720000000  0.5210670000000  0.4859300000000 1.0
C      1  0.4245540000000  0.5226220000000  0.5148170000000 1.0
C      1  0.4229800000000  0.4756990000000  0.4850350000000 1.0
C      1  0.5760400000000  0.5040140000000  0.4536780000000 1.0
C      1  0.5033400000000  0.4550820000000  0.5715940000000 1.0
C      1  0.4539910000000  0.5711360000000  0.5090830000000 1.0
C      1  0.5732350000000  0.4940120000000  0.5451350000000 1.0
C      1  0.4274320000000  0.5022010000000  0.5464580000000 1.0
C      1  0.4267300000000  0.4934100000000  0.4526410000000 1.0
C      1  0.5080740000000  0.5470720000000  0.4280250000000 1.0
C      1  0.4946740000000  0.4529190000000  0.4285580000000 1.0
C      1  0.4944670000000  0.5478270000000  0.5759550000000 1.0
C      1  0.4523280000000  0.4259910000000  0.4999020000000 1.0
C      1  0.5489920000000  0.5703120000000  0.4959990000000 1.0
C      1  0.5480120000000  0.4274640000000  0.5001970000000 1.0
C      1  0.5744710000000  0.4530250000000  0.5038320000000 1.0
C      1  0.5027580000000  0.5718650000000  0.4547020000000 1.0
C      1  0.4528550000000  0.5074360000000  0.5728710000000 1.0
C      1  0.5753510000000  0.5443920000000  0.4943640000000 1.0
C      1  0.4281210000000  0.5455080000000  0.5031550000000 1.0
C      1  0.4263420000000  0.4519260000000  0.4940880000000 1.0
C      1  0.5089150000000  0.4290460000000  0.5460830000000 1.0
C      1  0.4909360000000  0.4267880000000  0.4545110000000 1.0
C      1  0.4983730000000  0.5739390000000  0.5499880000000 1.0
C      1  0.4531170000000  0.4985220000000  0.4272060000000 1.0
C      1  0.5472970000000  0.4979350000000  0.5710750000000 1.0
C      1  0.5493610000000  0.5024880000000  0.4280720000000 1.0
C      1  0.4325670000000  0.5063290000000  0.4702540000000 1.0
C      1  0.5066910000000  0.4722660000000  0.4310270000000 1.0
C      1  0.4728030000000  0.4306640000000  0.5099450000000 1.0
C      1  0.4299760000000  0.4902930000000  0.5270000000000 1.0
C      1  0.5669030000000  0.5072110000000  0.5277590000000 1.0
C      1  0.5690410000000  0.4907850000000  0.4710410000000 1.0
C      1  0.5072610000000  0.5302460000000  0.5688160000000 1.0
C      1  0.4915060000000  0.4743670000000  0.5686610000000 1.0
C      1  0.4945930000000  0.5294100000000  0.4328700000000 1.0
C      1  0.4715810000000  0.5661700000000  0.4957460000000 1.0
C      1  0.5274780000000  0.4316440000000  0.4903680000000 1.0
C      1  0.5290170000000  0.5685970000000  0.5074060000000 1.0
C      1  0.4322100000000  0.4696130000000  0.5069060000000 1.0
C      1  0.5054080000000  0.4318600000000  0.4713190000000 1.0
C      1  0.4730190000000  0.5093260000000  0.4311190000000 1.0
C      1  0.4305810000000  0.5263150000000  0.4910850000000 1.0
C      1  0.5682730000000  0.5272610000000  0.5077490000000 1.0
C      1  0.5679340000000  0.4707280000000  0.4909770000000 1.0
C      1  0.5083510000000  0.5701480000000  0.5292660000000 1.0
C      1  0.4920650000000  0.5674010000000  0.4744120000000 1.0
C      1  0.4948130000000  0.4334740000000  0.5288660000000 1.0
C      1  0.4705040000000  0.4943680000000  0.5670000000000 1.0
C      1  0.5287610000000  0.4924920000000  0.4312470000000 1.0
C      1  0.5276390000000  0.5096480000000  0.5692000000000 1.0
C      1  0.5125030000000  0.5274740000000  0.5457980000000 1.0
C      1  0.5237310000000  0.5461420000000  0.5148330000000 1.0
C      1  0.5440490000000  0.5142510000000  0.5243910000000 1.0
C      1  0.5141650000000  0.4763680000000  0.4537930000000 1.0
C      1  0.4870310000000  0.5254060000000  0.4555620000000 1.0
C      1  0.4842820000000  0.4791820000000  0.5458570000000 1.0
C      1  0.5236210000000  0.4546220000000  0.4842290000000 1.0
C      1  0.4746980000000  0.5431940000000  0.4877450000000 1.0
C      1  0.4767050000000  0.4539740000000  0.5151660000000 1.0
C      1  0.5459390000000  0.4849300000000  0.4746370000000 1.0
C      1  0.4554870000000  0.5120450000000  0.4736310000000 1.0
C      1  0.4526020000000  0.4840340000000  0.5215960000000 1.0
C      1  0.5140660000000  0.5470470000000  0.5251260000000 1.0
C      1  0.5217140000000  0.5166090000000  0.5468230000000 1.0
C      1  0.5450070000000  0.5242750000000  0.5142040000000 1.0
C      1  0.5131730000000  0.4547900000000  0.4746050000000 1.0
C      1  0.4868200000000  0.4560370000000  0.5249560000000 1.0
C      1  0.4848910000000  0.5442760000000  0.4778720000000 1.0
C      1  0.5246890000000  0.4858900000000  0.4540880000000 1.0
C      1  0.4734600000000  0.4884230000000  0.5439560000000 1.0
C      1  0.4771910000000  0.5153410000000  0.4542790000000 1.0
C      1  0.5452490000000  0.4747550000000  0.4845280000000 1.0
C      1  0.4550240000000  0.4732190000000  0.5125820000000 1.0
C      1  0.4532650000000  0.5210790000000  0.4844750000000 1.0
C      1  0.5344010000000  0.4258090000000  0.5016760000000 1.0
C      1  0.4252380000000  0.5025400000000  0.5328900000000 1.0
C      1  0.5070330000000  0.5330830000000  0.4261020000000 1.0
C      1  0.5355000000000  0.5730510000000  0.4952120000000 1.0
C      1  0.4659730000000  0.4243990000000  0.4988960000000 1.0
C      1  0.4679030000000  0.5733040000000  0.5079850000000 1.0
C      1  0.4248900000000  0.4947560000000  0.4667540000000 1.0
C      1  0.5771480000000  0.5022210000000  0.4676240000000 1.0
C      1  0.5746910000000  0.4954630000000  0.5311830000000 1.0
C      1  0.5038250000000  0.4686590000000  0.5736400000000 1.0
C      1  0.4958880000000  0.5336450000000  0.5768110000000 1.0
C      1  0.4943230000000  0.4665070000000  0.4261230000000 1.0
C      1  0.5358000000000  0.5039810000000  0.4258720000000 1.0
C      1  0.4257020000000  0.5319730000000  0.5034240000000 1.0
C      1  0.5073240000000  0.4267950000000  0.5321940000000 1.0
C      1  0.5337990000000  0.4973890000000  0.5735890000000 1.0
C      1  0.4667760000000  0.4974630000000  0.4255710000000 1.0
C      1  0.4668780000000  0.5057560000000  0.5748610000000 1.0
C      1  0.4245660000000  0.4660690000000  0.4953320000000 1.0
C      1  0.5756570000000  0.4670550000000  0.5026270000000 1.0
C      1  0.5764370000000  0.5304810000000  0.4962290000000 1.0
C      1  0.5039930000000  0.5732230000000  0.4683170000000 1.0
C      1  0.4970750000000  0.5758360000000  0.5363680000000 1.0
C      1  0.4929910000000  0.4249090000000  0.4683640000000 1.0
C      1  0.4978760000000  0.5249040000000  0.4462930000000 1.0
C      1  0.5230800000000  0.4447600000000  0.4942630000000 1.0
C      1  0.4413460000000  0.4921990000000  0.5186380000000 1.0
C      1  0.4930530000000  0.4819080000000  0.5566820000000 1.0
C      1  0.5016660000000  0.5279300000000  0.5548620000000 1.0
C      1  0.5043730000000  0.4781640000000  0.4438040000000 1.0
C      1  0.5224640000000  0.5561550000000  0.5048900000000 1.0
C      1  0.4779450000000  0.4433500000000  0.5060160000000 1.0
C      1  0.4758090000000  0.5524650000000  0.4986680000000 1.0
C      1  0.4468720000000  0.5008200000000  0.4729820000000 1.0
C      1  0.5563010000000  0.4946940000000  0.4763510000000 1.0
C      1  0.5536480000000  0.5035870000000  0.5230880000000 1.0
C      1  0.4978160000000  0.4468850000000  0.5239380000000 1.0
C      1  0.5242040000000  0.4961410000000  0.4444180000000 1.0
C      1  0.4421290000000  0.5181750000000  0.4928170000000 1.0
C      1  0.4947070000000  0.5541760000000  0.4792090000000 1.0
C      1  0.5043620000000  0.5572440000000  0.5245110000000 1.0
C      1  0.5028600000000  0.4450360000000  0.4765210000000 1.0
C      1  0.5191880000000  0.5079150000000  0.5578380000000 1.0
C      1  0.4785130000000  0.5061090000000  0.4438320000000 1.0
C      1  0.4732210000000  0.4996420000000  0.5527790000000 1.0
C      1  0.4464120000000  0.4723810000000  0.5013870000000 1.0
C      1  0.5550050000000  0.4757640000000  0.4949600000000 1.0
C      1  0.5552130000000  0.5223910000000  0.5042320000000 1.0
C      1  0.4635880000000  0.4771070000000  0.5442070000000 1.0
C      1  0.4752570000000  0.5450400000000  0.4665670000000 1.0
C      1  0.5449520000000  0.4638190000000  0.4741660000000 1.0
C      1  0.4658420000000  0.5249890000000  0.4542550000000 1.0
C      1  0.5350680000000  0.4751720000000  0.4535650000000 1.0
C      1  0.5338220000000  0.5254840000000  0.5458230000000 1.0
C      1  0.4767780000000  0.4560710000000  0.5360320000000 1.0
C      1  0.5246250000000  0.5471380000000  0.5357110000000 1.0
C      1  0.5229570000000  0.4544970000000  0.4632480000000 1.0
C      1  0.5448900000000  0.5354410000000  0.5242540000000 1.0
C      1  0.4549410000000  0.4634180000000  0.5239840000000 1.0
C      1  0.4541070000000  0.5332920000000  0.4757640000000 1.0
C      1  0.4640330000000  0.5437450000000  0.4772730000000 1.0
C      1  0.4755010000000  0.4670700000000  0.5454380000000 1.0
C      1  0.5454890000000  0.4749290000000  0.4634080000000 1.0
C      1  0.4657340000000  0.4541120000000  0.5252970000000 1.0
C      1  0.5342620000000  0.4541870000000  0.4737860000000 1.0
C      1  0.5351050000000  0.5460390000000  0.5245030000000 1.0
C      1  0.4764530000000  0.5360540000000  0.4555160000000 1.0
C      1  0.5238260000000  0.5373490000000  0.5459450000000 1.0
C      1  0.5236060000000  0.4648640000000  0.4534050000000 1.0
C      1  0.5440460000000  0.5244570000000  0.5354130000000 1.0
C      1  0.4552760000000  0.5235020000000  0.4638260000000 1.0
C      1  0.4536240000000  0.4753130000000  0.5338160000000 1.0
C      1  0.4586680000000  0.4396280000000  0.5264100000000 1.0
C      1  0.4418250000000  0.5238510000000  0.4552920000000 1.0
C      1  0.5233100000000  0.4573130000000  0.4391600000000 1.0
C      1  0.4559910000000  0.5574860000000  0.4778810000000 1.0
C      1  0.5413810000000  0.4398230000000  0.4731410000000 1.0
C      1  0.5432560000000  0.5598640000000  0.5245300000000 1.0
C      1  0.4395460000000  0.4743750000000  0.5420310000000 1.0
C      1  0.5579750000000  0.5243020000000  0.5434670000000 1.0
C      1  0.5589990000000  0.4746020000000  0.4549930000000 1.0
C      1  0.5243450000000  0.5455960000000  0.5596300000000 1.0
C      1  0.4753460000000  0.4593580000000  0.5599430000000 1.0
C      1  0.4769880000000  0.5448490000000  0.4423660000000 1.0
C      1  0.4585450000000  0.5259440000000  0.4398620000000 1.0
C      1  0.4416250000000  0.4546870000000  0.5244090000000 1.0
C      1  0.5220940000000  0.4408880000000  0.4549180000000 1.0
C      1  0.4554860000000  0.4769560000000  0.5580400000000 1.0
C      1  0.5424080000000  0.4747610000000  0.4393210000000 1.0
C      1  0.5421980000000  0.5260000000000  0.5597400000000 1.0
C      1  0.4400600000000  0.5413970000000  0.4752170000000 1.0
C      1  0.5589180000000  0.5433050000000  0.5240790000000 1.0
C      1  0.5582750000000  0.4551620000000  0.4739400000000 1.0
C      1  0.5255170000000  0.5613720000000  0.5431850000000 1.0
C      1  0.4752330000000  0.5596540000000  0.4597140000000 1.0
C      1  0.4775160000000  0.4426210000000  0.5447590000000 1.0
C      1  0.4699120000000  0.5239090000000  0.4308160000000 1.0
C      1  0.5192300000000  0.4311440000000  0.4660400000000 1.0
C      1  0.4316990000000  0.4655360000000  0.5206790000000 1.0
C      1  0.4665940000000  0.4806650000000  0.5675840000000 1.0
C      1  0.5316290000000  0.5239320000000  0.5695360000000 1.0
C      1  0.5314730000000  0.4781660000000  0.4300790000000 1.0
C      1  0.5227750000000  0.5706340000000  0.5320990000000 1.0
C      1  0.4810000000000  0.4325330000000  0.5340690000000 1.0
C      1  0.4774860000000  0.5683480000000  0.4712450000000 1.0
C      1  0.4305390000000  0.5305370000000  0.4768070000000 1.0
C      1  0.5680800000000  0.4662020000000  0.4768050000000 1.0
C      1  0.5681670000000  0.5318420000000  0.5218010000000 1.0
C      1  0.4701260000000  0.4307360000000  0.5244380000000 1.0
C      1  0.5208490000000  0.4683120000000  0.4298240000000 1.0
C      1  0.4320530000000  0.5201020000000  0.4662580000000 1.0
C      1  0.4671180000000  0.5671740000000  0.4816860000000 1.0
C      1  0.5327430000000  0.5697470000000  0.5216140000000 1.0
C      1  0.5300900000000  0.4308760000000  0.4759000000000 1.0
C      1  0.5210860000000  0.5343340000000  0.5691180000000 1.0
C      1  0.4805460000000  0.5340590000000  0.4321300000000 1.0
C      1  0.4771580000000  0.4703450000000  0.5691320000000 1.0
C      1  0.4300620000000  0.4759870000000  0.5311510000000 1.0
C      1  0.5686350000000  0.4767260000000  0.4663130000000 1.0
C      1  0.5673950000000  0.5212890000000  0.5322690000000 1.0
C      1  0.5575420000000  0.4954560000000  0.4375380000000 1.0
C      1  0.5049390000000  0.4357920000000  0.5555770000000 1.0
C      1  0.4377840000000  0.5542950000000  0.4975000000000 1.0
C      1  0.5557610000000  0.5042150000000  0.5614580000000 1.0
C      1  0.4434230000000  0.5036880000000  0.5659260000000 1.0
C      1  0.4443200000000  0.5044300000000  0.4367010000000 1.0
C      1  0.4968450000000  0.5626330000000  0.4456760000000 1.0
C      1  0.4943190000000  0.4336670000000  0.4448860000000 1.0
C      1  0.5046280000000  0.5640910000000  0.5581900000000 1.0
C      1  0.4330820000000  0.4424500000000  0.4981410000000 1.0
C      1  0.5682950000000  0.5540680000000  0.4971430000000 1.0
C      1  0.5675170000000  0.4434970000000  0.5003440000000 1.0
C      1  0.5564200000000  0.4371270000000  0.4939390000000 1.0
C      1  0.5039860000000  0.5564230000000  0.4349120000000 1.0
C      1  0.4369280000000  0.4964150000000  0.5552950000000 1.0
C      1  0.5572130000000  0.5608000000000  0.5030810000000 1.0
C      1  0.4444500000000  0.5645560000000  0.5049950000000 1.0
C      1  0.4438140000000  0.4359690000000  0.5053170000000 1.0
C      1  0.4975360000000  0.4461610000000  0.5622010000000 1.0
C      1  0.5011390000000  0.4441800000000  0.4379470000000 1.0
C      1  0.4980940000000  0.5574140000000  0.5691290000000 1.0
C      1  0.4335690000000  0.4973040000000  0.4431730000000 1.0
C      1  0.5664780000000  0.4974720000000  0.5547970000000 1.0
C      1  0.5688450000000  0.5012310000000  0.4440970000000 1.0
C      1  0.5529340000000  0.4433560000000  0.4815900000000 1.0
C      1  0.4431290000000  0.4837940000000  0.5527330000000 1.0
C      1  0.4843090000000  0.5564100000000  0.4484920000000 1.0
C      1  0.5541160000000  0.5552140000000  0.5159030000000 1.0
C      1  0.4472500000000  0.4426280000000  0.5174870000000 1.0
C      1  0.4437950000000  0.5519900000000  0.4847710000000 1.0
C      1  0.4473290000000  0.5169050000000  0.4430870000000 1.0
C      1  0.5539860000000  0.4828550000000  0.4433220000000 1.0
C      1  0.5529560000000  0.5169080000000  0.5556180000000 1.0
C      1  0.4847300000000  0.4485320000000  0.5564090000000 1.0
C      1  0.5169580000000  0.5577290000000  0.5545820000000 1.0
C      1  0.5142060000000  0.4465370000000  0.4433320000000 1.0
END
