TITL C-1379266-1300-273 -3.74013504640038e-07 1000000 -3449.58999066695 0 0 500 (Th) n - 1
REM
REM in /nfs/bkarasulu/CARBON/AIRSS/Generating-Clusters/GAP-ML-2020/Higher-Symm/Selected-Sizes/TryA-Only_Ih-Symm/Larger-Clusters/Try2-MINAMP_6A
REM
REM
REM
REM
REM
REM ./C.cell (31579ac4e95a012ec27f3239692ae8a5)
REM
REM compiler GCC version 9.2.1 20190827 (Red Hat 9.2.1-1)
REM options -cpp -mtune=generic -march=x86-64 -g -O0 -fpre-include=/usr/include/finclude/math-vector-fortran.h
REM seed 960287343 -856734505 255522813 2089125773 -1526063601 589857805 618990331 -1127720864 -529013711 -2006661608 -514204406 1684443584 -1516724603 -1309628588 232497973 -586388862 787866644 -839496166 -2064412307 -1196640414 220394009 523933867 2032147782 -482114879 616042202 1372065819 1044942199 1457412204 1500920448 -1121454033 1790832857 1098714067 1030722583
REM
CELL 1.54180  100.00000  100.00000  100.00000   90.00000   90.00000   90.00000
LATT -1
SFAC C  
C      1  0.5496880000000  0.4854380000000  0.5335800000000 1.0
C      1  0.5336540000000  0.5495760000000  0.4854760000000 1.0
C      1  0.4855500000000  0.5335420000000  0.5496140000000 1.0
C      1  0.4502370000000  0.4854380000000  0.4661960000000 1.0
C      1  0.5496880000000  0.5142630000000  0.4661960000000 1.0
C      1  0.4502370000000  0.5142630000000  0.5335800000000 1.0
C      1  0.4662700000000  0.5495760000000  0.5143010000000 1.0
C      1  0.5336540000000  0.4501250000000  0.5143010000000 1.0
C      1  0.4662700000000  0.4501250000000  0.4854760000000 1.0
C      1  0.5143740000000  0.5335420000000  0.4501630000000 1.0
C      1  0.4855500000000  0.4661580000000  0.4501630000000 1.0
C      1  0.5143740000000  0.4661580000000  0.5496140000000 1.0
C      1  0.5496880000000  0.5142630000000  0.5335800000000 1.0
C      1  0.5336540000000  0.4501250000000  0.4854760000000 1.0
C      1  0.4855500000000  0.4661580000000  0.5496140000000 1.0
C      1  0.4502370000000  0.5142630000000  0.4661960000000 1.0
C      1  0.5496880000000  0.4854380000000  0.4661960000000 1.0
C      1  0.4502370000000  0.4854380000000  0.5335800000000 1.0
C      1  0.4662700000000  0.4501250000000  0.5143010000000 1.0
C      1  0.5336540000000  0.5495760000000  0.5143010000000 1.0
C      1  0.4662700000000  0.5495760000000  0.4854760000000 1.0
C      1  0.5143740000000  0.4661580000000  0.4501630000000 1.0
C      1  0.4855500000000  0.5335420000000  0.4501630000000 1.0
C      1  0.5143740000000  0.5335420000000  0.5496140000000 1.0
C      1  0.4464000000000  0.5719860000000  0.5152940000000 1.0
C      1  0.5153680000000  0.4462890000000  0.5720240000000 1.0
C      1  0.5720980000000  0.5152560000000  0.4463260000000 1.0
C      1  0.5535240000000  0.5719860000000  0.4844830000000 1.0
C      1  0.4464000000000  0.4277150000000  0.4844830000000 1.0
C      1  0.5535240000000  0.4277150000000  0.5152940000000 1.0
C      1  0.4845570000000  0.4462890000000  0.4277520000000 1.0
C      1  0.5153680000000  0.5534120000000  0.4277520000000 1.0
C      1  0.4845570000000  0.5534120000000  0.5720240000000 1.0
C      1  0.4278260000000  0.5152560000000  0.5534500000000 1.0
C      1  0.5720980000000  0.4844450000000  0.5534500000000 1.0
C      1  0.4278260000000  0.4844450000000  0.4463260000000 1.0
C      1  0.4464000000000  0.4277150000000  0.5152940000000 1.0
C      1  0.5153680000000  0.5534120000000  0.5720240000000 1.0
C      1  0.5720980000000  0.4844450000000  0.4463260000000 1.0
C      1  0.5535240000000  0.4277150000000  0.4844830000000 1.0
C      1  0.4464000000000  0.5719860000000  0.4844830000000 1.0
C      1  0.5535240000000  0.5719860000000  0.5152940000000 1.0
C      1  0.4845570000000  0.5534120000000  0.4277520000000 1.0
C      1  0.5153680000000  0.4462890000000  0.4277520000000 1.0
C      1  0.4845570000000  0.4462890000000  0.5720240000000 1.0
C      1  0.4278260000000  0.4844450000000  0.5534500000000 1.0
C      1  0.5720980000000  0.5152560000000  0.5534500000000 1.0
C      1  0.4278260000000  0.5152560000000  0.4463260000000 1.0
C      1  0.4503150000000  0.4924090000000  0.4529760000000 1.0
C      1  0.4530500000000  0.4502030000000  0.4924470000000 1.0
C      1  0.4925210000000  0.4529380000000  0.4502410000000 1.0
C      1  0.5496090000000  0.4924090000000  0.5468010000000 1.0
C      1  0.4503150000000  0.5072920000000  0.5468010000000 1.0
C      1  0.5496090000000  0.5072920000000  0.4529760000000 1.0
C      1  0.5468750000000  0.4502030000000  0.5073300000000 1.0
C      1  0.4530490000000  0.5494980000000  0.5073300000000 1.0
C      1  0.5468750000000  0.5494980000000  0.4924470000000 1.0
C      1  0.5074040000000  0.4529380000000  0.5495350000000 1.0
C      1  0.4925210000000  0.5467630000000  0.5495350000000 1.0
C      1  0.5074040000000  0.5467630000000  0.4502410000000 1.0
C      1  0.4503150000000  0.5072920000000  0.4529760000000 1.0
C      1  0.4530500000000  0.5494980000000  0.4924470000000 1.0
C      1  0.4925210000000  0.5467630000000  0.4502410000000 1.0
C      1  0.5496090000000  0.5072920000000  0.5468010000000 1.0
C      1  0.4503150000000  0.4924090000000  0.5468010000000 1.0
C      1  0.5496090000000  0.4924090000000  0.4529760000000 1.0
C      1  0.5468750000000  0.5494980000000  0.5073300000000 1.0
C      1  0.4530490000000  0.4502030000000  0.5073300000000 1.0
C      1  0.5468750000000  0.4502030000000  0.4924470000000 1.0
C      1  0.5074040000000  0.5467630000000  0.5495350000000 1.0
C      1  0.4925210000000  0.4529380000000  0.5495360000000 1.0
C      1  0.5074040000000  0.4529380000000  0.4502410000000 1.0
C      1  0.5766030000000  0.5068860000000  0.5421950000000 1.0
C      1  0.5422690000000  0.5764910000000  0.5069240000000 1.0
C      1  0.5069970000000  0.5421570000000  0.5765290000000 1.0
C      1  0.4233210000000  0.5068860000000  0.4575820000000 1.0
C      1  0.5766030000000  0.4928150000000  0.4575820000000 1.0
C      1  0.4233210000000  0.4928150000000  0.5421950000000 1.0
C      1  0.4576560000000  0.5764910000000  0.4928530000000 1.0
C      1  0.5422690000000  0.4232100000000  0.4928530000000 1.0
C      1  0.4576560000000  0.4232100000000  0.5069240000000 1.0
C      1  0.4929270000000  0.5421570000000  0.4232470000000 1.0
C      1  0.5069970000000  0.4575440000000  0.4232470000000 1.0
C      1  0.4929270000000  0.4575440000000  0.5765290000000 1.0
C      1  0.5766030000000  0.4928150000000  0.5421950000000 1.0
C      1  0.5422690000000  0.4232100000000  0.5069240000000 1.0
C      1  0.5069970000000  0.4575440000000  0.5765290000000 1.0
C      1  0.4233210000000  0.4928150000000  0.4575820000000 1.0
C      1  0.5766030000000  0.5068860000000  0.4575820000000 1.0
C      1  0.4233210000000  0.5068860000000  0.5421950000000 1.0
C      1  0.4576560000000  0.4232100000000  0.4928530000000 1.0
C      1  0.5422690000000  0.5764910000000  0.4928530000000 1.0
C      1  0.4576560000000  0.5764910000000  0.5069240000000 1.0
C      1  0.4929270000000  0.4575440000000  0.4232470000000 1.0
C      1  0.5069970000000  0.5421570000000  0.4232470000000 1.0
C      1  0.4929270000000  0.5421570000000  0.5765290000000 1.0
C      1  0.4924520000000  0.4231490000000  0.4841710000000 1.0
C      1  0.4842450000000  0.4923400000000  0.4231870000000 1.0
C      1  0.4232610000000  0.4841330000000  0.4923780000000 1.0
C      1  0.5074730000000  0.4231490000000  0.5156050000000 1.0
C      1  0.4924520000000  0.5765510000000  0.5156050000000 1.0
C      1  0.5074730000000  0.5765510000000  0.4841710000000 1.0
C      1  0.5156790000000  0.4923400000000  0.5765890000000 1.0
C      1  0.4842450000000  0.5073610000000  0.5765890000000 1.0
C      1  0.5156790000000  0.5073610000000  0.4231870000000 1.0
C      1  0.5766630000000  0.4841330000000  0.5073990000000 1.0
C      1  0.4232610000000  0.5155670000000  0.5073990000000 1.0
C      1  0.5766630000000  0.5155670000000  0.4923780000000 1.0
C      1  0.4924520000000  0.5765510000000  0.4841710000000 1.0
C      1  0.4842450000000  0.5073610000000  0.4231870000000 1.0
C      1  0.4232610000000  0.5155670000000  0.4923780000000 1.0
C      1  0.5074730000000  0.5765510000000  0.5156050000000 1.0
C      1  0.4924520000000  0.4231490000000  0.5156050000000 1.0
C      1  0.5074730000000  0.4231490000000  0.4841710000000 1.0
C      1  0.5156790000000  0.5073610000000  0.5765890000000 1.0
C      1  0.4842450000000  0.4923400000000  0.5765890000000 1.0
C      1  0.5156790000000  0.4923400000000  0.4231870000000 1.0
C      1  0.5766630000000  0.5155670000000  0.5073990000000 1.0
C      1  0.4232610000000  0.4841330000000  0.5073990000000 1.0
C      1  0.5766630000000  0.4841330000000  0.4923780000000 1.0
C      1  0.5481510000000  0.4497510000000  0.4412180000000 1.0
C      1  0.4412920000000  0.5480390000000  0.4497890000000 1.0
C      1  0.4498630000000  0.4411800000000  0.5480770000000 1.0
C      1  0.4517730000000  0.4497510000000  0.5585590000000 1.0
C      1  0.5481510000000  0.5499490000000  0.5585590000000 1.0
C      1  0.4517730000000  0.5499490000000  0.4412180000000 1.0
C      1  0.5586320000000  0.5480390000000  0.5499870000000 1.0
C      1  0.4412920000000  0.4516620000000  0.5499870000000 1.0
C      1  0.5586320000000  0.4516620000000  0.4497890000000 1.0
C      1  0.5500610000000  0.4411800000000  0.4516990000000 1.0
C      1  0.4498630000000  0.5585210000000  0.4516990000000 1.0
C      1  0.5500610000000  0.5585210000000  0.5480770000000 1.0
C      1  0.5481510000000  0.5499490000000  0.4412180000000 1.0
C      1  0.4412920000000  0.4516620000000  0.4497890000000 1.0
C      1  0.4498630000000  0.5585210000000  0.5480770000000 1.0
C      1  0.4517730000000  0.5499490000000  0.5585590000000 1.0
C      1  0.5481510000000  0.4497510000000  0.5585590000000 1.0
C      1  0.4517730000000  0.4497510000000  0.4412180000000 1.0
C      1  0.5586320000000  0.4516620000000  0.5499870000000 1.0
C      1  0.4412920000000  0.5480390000000  0.5499870000000 1.0
C      1  0.5586320000000  0.5480390000000  0.4497890000000 1.0
C      1  0.5500610000000  0.5585210000000  0.4516990000000 1.0
C      1  0.4498630000000  0.4411800000000  0.4516990000000 1.0
C      1  0.5500610000000  0.4411800000000  0.5480770000000 1.0
C      1  0.5415540000000  0.4700280000000  0.4319340000000 1.0
C      1  0.4320080000000  0.5414430000000  0.4700660000000 1.0
C      1  0.4701400000000  0.4318960000000  0.5414800000000 1.0
C      1  0.4583700000000  0.4700280000000  0.5678430000000 1.0
C      1  0.5415540000000  0.5296730000000  0.5678430000000 1.0
C      1  0.4583700000000  0.5296730000000  0.4319340000000 1.0
C      1  0.5679170000000  0.5414430000000  0.5297110000000 1.0
C      1  0.4320080000000  0.4582580000000  0.5297110000000 1.0
C      1  0.5679170000000  0.4582580000000  0.4700660000000 1.0
C      1  0.5297850000000  0.4318960000000  0.4582960000000 1.0
C      1  0.4701400000000  0.5678050000000  0.4582960000000 1.0
C      1  0.5297850000000  0.5678050000000  0.5414800000000 1.0
C      1  0.5415540000000  0.5296730000000  0.4319340000000 1.0
C      1  0.4320080000000  0.4582580000000  0.4700660000000 1.0
C      1  0.4701400000000  0.5678050000000  0.5414800000000 1.0
C      1  0.4583700000000  0.5296730000000  0.5678430000000 1.0
C      1  0.5415540000000  0.4700280000000  0.5678430000000 1.0
C      1  0.4583700000000  0.4700280000000  0.4319340000000 1.0
C      1  0.5679170000000  0.4582580000000  0.5297110000000 1.0
C      1  0.4320080000000  0.5414430000000  0.5297110000000 1.0
C      1  0.5679170000000  0.5414430000000  0.4700660000000 1.0
C      1  0.5297850000000  0.5678050000000  0.4582960000000 1.0
C      1  0.4701400000000  0.4318960000000  0.4582960000000 1.0
C      1  0.5297850000000  0.4318960000000  0.5414800000000 1.0
C      1  0.5609890000000  0.4926390000000  0.5569990000000 1.0
C      1  0.5570730000000  0.5608770000000  0.4926770000000 1.0
C      1  0.4927510000000  0.5569610000000  0.5609150000000 1.0
C      1  0.4389350000000  0.4926390000000  0.4427770000000 1.0
C      1  0.5609890000000  0.5070620000000  0.4427770000000 1.0
C      1  0.4389350000000  0.5070620000000  0.5569990000000 1.0
C      1  0.4428510000000  0.5608770000000  0.5071000000000 1.0
C      1  0.5570730000000  0.4388230000000  0.5071000000000 1.0
C      1  0.4428510000000  0.4388230000000  0.4926770000000 1.0
C      1  0.5071740000000  0.5569610000000  0.4388610000000 1.0
C      1  0.4927510000000  0.4427400000000  0.4388610000000 1.0
C      1  0.5071740000000  0.4427400000000  0.5609150000000 1.0
C      1  0.5609890000000  0.5070620000000  0.5569990000000 1.0
C      1  0.5570730000000  0.4388230000000  0.4926770000000 1.0
C      1  0.4927510000000  0.4427400000000  0.5609150000000 1.0
C      1  0.4389350000000  0.5070620000000  0.4427770000000 1.0
C      1  0.5609890000000  0.4926390000000  0.4427770000000 1.0
C      1  0.4389350000000  0.4926390000000  0.5569990000000 1.0
C      1  0.4428510000000  0.4388230000000  0.5071000000000 1.0
C      1  0.5570730000000  0.5608770000000  0.5071000000000 1.0
C      1  0.4428510000000  0.5608770000000  0.4926770000000 1.0
C      1  0.5071740000000  0.4427400000000  0.4388610000000 1.0
C      1  0.4927510000000  0.5569610000000  0.4388610000000 1.0
C      1  0.5071740000000  0.5569610000000  0.5609150000000 1.0
C      1  0.5125650000000  0.4507580000000  0.5349720000000 1.0
C      1  0.5350460000000  0.5124530000000  0.4507960000000 1.0
C      1  0.4508700000000  0.5349350000000  0.5124910000000 1.0
C      1  0.4873590000000  0.4507580000000  0.4648040000000 1.0
C      1  0.5125650000000  0.5489420000000  0.4648040000000 1.0
C      1  0.4873590000000  0.5489420000000  0.5349720000000 1.0
C      1  0.4648780000000  0.5124530000000  0.5489800000000 1.0
C      1  0.5350460000000  0.4872470000000  0.5489800000000 1.0
C      1  0.4648780000000  0.4872470000000  0.4507960000000 1.0
C      1  0.5490540000000  0.5349350000000  0.4872850000000 1.0
C      1  0.4508700000000  0.4647660000000  0.4872850000000 1.0
C      1  0.5490540000000  0.4647660000000  0.5124910000000 1.0
C      1  0.5125650000000  0.5489420000000  0.5349720000000 1.0
C      1  0.5350460000000  0.4872470000000  0.4507960000000 1.0
C      1  0.4508700000000  0.4647660000000  0.5124910000000 1.0
C      1  0.4873590000000  0.5489420000000  0.4648040000000 1.0
C      1  0.5125650000000  0.4507580000000  0.4648040000000 1.0
C      1  0.4873590000000  0.4507580000000  0.5349720000000 1.0
C      1  0.4648780000000  0.4872470000000  0.5489800000000 1.0
C      1  0.5350460000000  0.5124530000000  0.5489800000000 1.0
C      1  0.4648780000000  0.5124530000000  0.4507960000000 1.0
C      1  0.5490540000000  0.4647660000000  0.4872850000000 1.0
C      1  0.4508700000000  0.5349350000000  0.4872850000000 1.0
C      1  0.5490540000000  0.5349350000000  0.5124910000000 1.0
C      1  0.5332890000000  0.4758330000000  0.4417120000000 1.0
C      1  0.4417860000000  0.5331770000000  0.4758710000000 1.0
C      1  0.4759450000000  0.4416740000000  0.5332150000000 1.0
C      1  0.4666350000000  0.4758330000000  0.5580640000000 1.0
C      1  0.5332890000000  0.5238680000000  0.5580640000000 1.0
C      1  0.4666350000000  0.5238680000000  0.4417120000000 1.0
C      1  0.5581380000000  0.5331770000000  0.5239060000000 1.0
C      1  0.4417860000000  0.4665230000000  0.5239060000000 1.0
C      1  0.5581380000000  0.4665230000000  0.4758710000000 1.0
C      1  0.5239800000000  0.4416740000000  0.4665610000000 1.0
C      1  0.4759450000000  0.5580260000000  0.4665610000000 1.0
C      1  0.5239800000000  0.5580260000000  0.5332150000000 1.0
C      1  0.5332890000000  0.5238680000000  0.4417120000000 1.0
C      1  0.4417860000000  0.4665230000000  0.4758710000000 1.0
C      1  0.4759450000000  0.5580260000000  0.5332150000000 1.0
C      1  0.4666350000000  0.5238680000000  0.5580640000000 1.0
C      1  0.5332890000000  0.4758330000000  0.5580640000000 1.0
C      1  0.4666350000000  0.4758330000000  0.4417120000000 1.0
C      1  0.5581380000000  0.4665230000000  0.5239060000000 1.0
C      1  0.4417860000000  0.5331770000000  0.5239060000000 1.0
C      1  0.5581380000000  0.5331770000000  0.4758710000000 1.0
C      1  0.5239800000000  0.5580260000000  0.4665610000000 1.0
C      1  0.4759450000000  0.4416740000000  0.4665610000000 1.0
C      1  0.5239800000000  0.4416740000000  0.5332150000000 1.0
C      1  0.4633590000000  0.4810300000000  0.5351940000000 1.0
C      1  0.5352680000000  0.4632470000000  0.4810680000000 1.0
C      1  0.4811420000000  0.5351560000000  0.4632850000000 1.0
C      1  0.5365650000000  0.4810300000000  0.4645820000000 1.0
C      1  0.4633590000000  0.5186700000000  0.4645820000000 1.0
C      1  0.5365650000000  0.5186700000000  0.5351940000000 1.0
C      1  0.4646560000000  0.4632470000000  0.5187080000000 1.0
C      1  0.5352680000000  0.5364540000000  0.5187080000000 1.0
C      1  0.4646560000000  0.5364540000000  0.4810680000000 1.0
C      1  0.5187820000000  0.5351560000000  0.5364910000000 1.0
C      1  0.4811420000000  0.4645450000000  0.5364910000000 1.0
C      1  0.5187820000000  0.4645450000000  0.4632850000000 1.0
C      1  0.4633590000000  0.5186700000000  0.5351940000000 1.0
C      1  0.5352680000000  0.5364540000000  0.4810680000000 1.0
C      1  0.4811420000000  0.4645450000000  0.4632850000000 1.0
C      1  0.5365650000000  0.5186700000000  0.4645820000000 1.0
C      1  0.4633590000000  0.4810300000000  0.4645820000000 1.0
C      1  0.5365650000000  0.4810300000000  0.5351940000000 1.0
C      1  0.4646560000000  0.5364540000000  0.5187080000000 1.0
C      1  0.5352680000000  0.4632470000000  0.5187080000000 1.0
C      1  0.4646560000000  0.4632470000000  0.4810680000000 1.0
C      1  0.5187820000000  0.4645450000000  0.5364910000000 1.0
C      1  0.4811420000000  0.5351560000000  0.5364910000000 1.0
C      1  0.5187820000000  0.5351560000000  0.4632850000000 1.0
C      1  0.5186050000000  0.5251620000000  0.5608060000000 1.0
C      1  0.5608800000000  0.5184930000000  0.5252000000000 1.0
C      1  0.5252740000000  0.5607680000000  0.5185310000000 1.0
C      1  0.4813190000000  0.5251620000000  0.4389700000000 1.0
C      1  0.5186050000000  0.4745380000000  0.4389700000000 1.0
C      1  0.4813190000000  0.4745380000000  0.5608060000000 1.0
C      1  0.4390440000000  0.5184930000000  0.4745760000000 1.0
C      1  0.5608800000000  0.4812070000000  0.4745760000000 1.0
C      1  0.4390440000000  0.4812070000000  0.5252000000000 1.0
C      1  0.4746500000000  0.5607680000000  0.4812450000000 1.0
C      1  0.5252740000000  0.4389320000000  0.4812450000000 1.0
C      1  0.4746500000000  0.4389320000000  0.5185310000000 1.0
C      1  0.5186050000000  0.4745380000000  0.5608060000000 1.0
C      1  0.5608800000000  0.4812070000000  0.5252000000000 1.0
C      1  0.5252740000000  0.4389320000000  0.5185310000000 1.0
C      1  0.4813190000000  0.4745380000000  0.4389700000000 1.0
C      1  0.5186050000000  0.5251620000000  0.4389700000000 1.0
C      1  0.4813190000000  0.5251620000000  0.5608060000000 1.0
C      1  0.4390440000000  0.4812070000000  0.4745760000000 1.0
C      1  0.5608800000000  0.5184930000000  0.4745760000000 1.0
C      1  0.4390440000000  0.5184930000000  0.5252000000000 1.0
C      1  0.4746500000000  0.4389320000000  0.4812450000000 1.0
C      1  0.5252740000000  0.5607680000000  0.4812450000000 1.0
C      1  0.4746500000000  0.5607680000000  0.5185310000000 1.0
C      1  0.4871190000000  0.5294180000000  0.4249690000000 1.0
C      1  0.4250430000000  0.4870080000000  0.5294560000000 1.0
C      1  0.5295300000000  0.4249310000000  0.4870450000000 1.0
C      1  0.5128050000000  0.5294180000000  0.5748070000000 1.0
C      1  0.4871190000000  0.4702820000000  0.5748070000000 1.0
C      1  0.5128050000000  0.4702820000000  0.4249690000000 1.0
C      1  0.5748810000000  0.4870080000000  0.4703200000000 1.0
C      1  0.4250430000000  0.5126930000000  0.4703200000000 1.0
C      1  0.5748810000000  0.5126930000000  0.5294560000000 1.0
C      1  0.4703940000000  0.4249310000000  0.5127310000000 1.0
C      1  0.5295300000000  0.5747690000000  0.5127310000000 1.0
C      1  0.4703940000000  0.5747690000000  0.4870450000000 1.0
C      1  0.4871190000000  0.4702820000000  0.4249690000000 1.0
C      1  0.4250430000000  0.5126930000000  0.5294560000000 1.0
C      1  0.5295300000000  0.5747690000000  0.4870450000000 1.0
C      1  0.5128050000000  0.4702820000000  0.5748070000000 1.0
C      1  0.4871190000000  0.5294180000000  0.5748070000000 1.0
C      1  0.5128050000000  0.5294180000000  0.4249690000000 1.0
C      1  0.5748810000000  0.5126930000000  0.4703200000000 1.0
C      1  0.4250430000000  0.4870080000000  0.4703200000000 1.0
C      1  0.5748810000000  0.4870080000000  0.5294560000000 1.0
C      1  0.4703940000000  0.5747690000000  0.5127310000000 1.0
C      1  0.5295300000000  0.4249310000000  0.5127310000000 1.0
C      1  0.4703940000000  0.4249310000000  0.4870450000000 1.0
C      1  0.5103500000000  0.5613900000000  0.4834390000000 1.0
C      1  0.4835130000000  0.5102380000000  0.5614280000000 1.0
C      1  0.5615020000000  0.4834010000000  0.5102760000000 1.0
C      1  0.4895750000000  0.5613900000000  0.5163370000000 1.0
C      1  0.5103500000000  0.4383100000000  0.5163370000000 1.0
C      1  0.4895750000000  0.4383100000000  0.4834390000000 1.0
C      1  0.5164110000000  0.5102380000000  0.4383480000000 1.0
C      1  0.4835130000000  0.4894630000000  0.4383480000000 1.0
C      1  0.5164110000000  0.4894630000000  0.5614280000000 1.0
C      1  0.4384220000000  0.4834010000000  0.4895010000000 1.0
C      1  0.5615020000000  0.5162990000000  0.4895010000000 1.0
C      1  0.4384220000000  0.5162990000000  0.5102760000000 1.0
C      1  0.5103500000000  0.4383100000000  0.4834390000000 1.0
C      1  0.4835130000000  0.4894630000000  0.5614280000000 1.0
C      1  0.5615020000000  0.5162990000000  0.5102760000000 1.0
C      1  0.4895750000000  0.4383100000000  0.5163370000000 1.0
C      1  0.5103500000000  0.5613900000000  0.5163370000000 1.0
C      1  0.4895750000000  0.5613900000000  0.4834390000000 1.0
C      1  0.5164110000000  0.4894630000000  0.4383480000000 1.0
C      1  0.4835130000000  0.5102380000000  0.4383480000000 1.0
C      1  0.5164110000000  0.5102380000000  0.5614280000000 1.0
C      1  0.4384220000000  0.5162990000000  0.4895010000000 1.0
C      1  0.5615020000000  0.4834010000000  0.4895010000000 1.0
C      1  0.4384220000000  0.4834010000000  0.5102760000000 1.0
C      1  0.5520430000000  0.4285420000000  0.4711210000000 1.0
C      1  0.4711950000000  0.5519310000000  0.4285800000000 1.0
C      1  0.4286530000000  0.4710830000000  0.5519690000000 1.0
C      1  0.4478810000000  0.4285420000000  0.5286550000000 1.0
C      1  0.5520430000000  0.5711590000000  0.5286550000000 1.0
C      1  0.4478810000000  0.5711590000000  0.4711210000000 1.0
C      1  0.5287290000000  0.5519310000000  0.5711970000000 1.0
C      1  0.4711950000000  0.4477690000000  0.5711970000000 1.0
C      1  0.5287290000000  0.4477690000000  0.4285800000000 1.0
C      1  0.5712710000000  0.4710830000000  0.4478070000000 1.0
C      1  0.4286530000000  0.5286170000000  0.4478070000000 1.0
C      1  0.5712710000000  0.5286170000000  0.5519690000000 1.0
C      1  0.5520430000000  0.5711590000000  0.4711210000000 1.0
C      1  0.4711950000000  0.4477690000000  0.4285800000000 1.0
C      1  0.4286530000000  0.5286170000000  0.5519690000000 1.0
C      1  0.4478810000000  0.5711590000000  0.5286550000000 1.0
C      1  0.5520430000000  0.4285420000000  0.5286550000000 1.0
C      1  0.4478810000000  0.4285420000000  0.4711210000000 1.0
C      1  0.5287290000000  0.4477690000000  0.5711970000000 1.0
C      1  0.4711950000000  0.5519310000000  0.5711970000000 1.0
C      1  0.5287290000000  0.5519310000000  0.4285800000000 1.0
C      1  0.5712710000000  0.5286170000000  0.4478070000000 1.0
C      1  0.4286530000000  0.4710830000000  0.4478070000000 1.0
C      1  0.5712710000000  0.4710830000000  0.5519690000000 1.0
C      1  0.4931300000000  0.4816220000000  0.5808380000000 1.0
C      1  0.5809120000000  0.4930180000000  0.4816600000000 1.0
C      1  0.4817340000000  0.5808010000000  0.4930560000000 1.0
C      1  0.5067950000000  0.4816220000000  0.4189380000000 1.0
C      1  0.4931300000000  0.5180790000000  0.4189380000000 1.0
C      1  0.5067950000000  0.5180790000000  0.5808380000000 1.0
C      1  0.4190120000000  0.4930180000000  0.5181160000000 1.0
C      1  0.5809120000000  0.5066830000000  0.5181160000000 1.0
C      1  0.4190120000000  0.5066830000000  0.4816600000000 1.0
C      1  0.5181900000000  0.5808000000000  0.5067210000000 1.0
C      1  0.4817340000000  0.4189000000000  0.5067210000000 1.0
C      1  0.5181900000000  0.4189000000000  0.4930560000000 1.0
C      1  0.4931300000000  0.5180790000000  0.5808380000000 1.0
C      1  0.5809120000000  0.5066830000000  0.4816600000000 1.0
C      1  0.4817340000000  0.4189000000000  0.4930560000000 1.0
C      1  0.5067950000000  0.5180790000000  0.4189380000000 1.0
C      1  0.4931300000000  0.4816220000000  0.4189380000000 1.0
C      1  0.5067950000000  0.4816220000000  0.5808380000000 1.0
C      1  0.4190120000000  0.5066830000000  0.5181160000000 1.0
C      1  0.5809120000000  0.4930180000000  0.5181160000000 1.0
C      1  0.4190120000000  0.4930180000000  0.4816600000000 1.0
C      1  0.5181900000000  0.4189000000000  0.5067210000000 1.0
C      1  0.4817340000000  0.5808000000000  0.5067210000000 1.0
C      1  0.5181900000000  0.5808010000000  0.4930560000000 1.0
C      1  0.5407480000000  0.5067960000000  0.5830990000000 1.0
C      1  0.5831730000000  0.5406370000000  0.5068340000000 1.0
C      1  0.5069070000000  0.5830610000000  0.5406740000000 1.0
C      1  0.4591760000000  0.5067960000000  0.4166780000000 1.0
C      1  0.5407480000000  0.4929050000000  0.4166780000000 1.0
C      1  0.4591760000000  0.4929050000000  0.5830990000000 1.0
C      1  0.4167520000000  0.5406370000000  0.4929430000000 1.0
C      1  0.5831730000000  0.4590640000000  0.4929430000000 1.0
C      1  0.4167520000000  0.4590640000000  0.5068340000000 1.0
C      1  0.4930170000000  0.5830610000000  0.4591020000000 1.0
C      1  0.5069070000000  0.4166400000000  0.4591020000000 1.0
C      1  0.4930170000000  0.4166400000000  0.5406740000000 1.0
C      1  0.5407480000000  0.4929050000000  0.5830990000000 1.0
C      1  0.5831730000000  0.4590640000000  0.5068340000000 1.0
C      1  0.5069070000000  0.4166400000000  0.5406740000000 1.0
C      1  0.4591760000000  0.4929050000000  0.4166780000000 1.0
C      1  0.5407480000000  0.5067960000000  0.4166780000000 1.0
C      1  0.4591760000000  0.5067960000000  0.5830990000000 1.0
C      1  0.4167520000000  0.4590640000000  0.4929430000000 1.0
C      1  0.5831730000000  0.5406370000000  0.4929430000000 1.0
C      1  0.4167520000000  0.5406370000000  0.5068340000000 1.0
C      1  0.4930170000000  0.4166400000000  0.4591020000000 1.0
C      1  0.5069070000000  0.5830610000000  0.4591020000000 1.0
C      1  0.4930170000000  0.5830610000000  0.5406740000000 1.0
C      1  0.5136330000000  0.5821030000000  0.5281390000000 1.0
C      1  0.5282130000000  0.5135210000000  0.5821410000000 1.0
C      1  0.5822150000000  0.5281020000000  0.5135590000000 1.0
C      1  0.4862920000000  0.5821030000000  0.4716370000000 1.0
C      1  0.5136330000000  0.4175980000000  0.4716370000000 1.0
C      1  0.4862920000000  0.4175980000000  0.5281390000000 1.0
C      1  0.4717110000000  0.5135210000000  0.4176350000000 1.0
C      1  0.5282130000000  0.4861800000000  0.4176350000000 1.0
C      1  0.4717110000000  0.4861800000000  0.5821410000000 1.0
C      1  0.4177090000000  0.5281020000000  0.4862180000000 1.0
C      1  0.5822150000000  0.4715990000000  0.4862180000000 1.0
C      1  0.4177090000000  0.4715990000000  0.5135590000000 1.0
C      1  0.5136330000000  0.4175980000000  0.5281390000000 1.0
C      1  0.5282130000000  0.4861800000000  0.5821410000000 1.0
C      1  0.5822150000000  0.4715990000000  0.5135590000000 1.0
C      1  0.4862920000000  0.4175980000000  0.4716370000000 1.0
C      1  0.5136330000000  0.5821030000000  0.4716370000000 1.0
C      1  0.4862920000000  0.5821030000000  0.5281390000000 1.0
C      1  0.4717110000000  0.4861800000000  0.4176350000000 1.0
C      1  0.5282130000000  0.5135210000000  0.4176350000000 1.0
C      1  0.4717110000000  0.5135210000000  0.5821410000000 1.0
C      1  0.4177090000000  0.4715990000000  0.4862180000000 1.0
C      1  0.5822150000000  0.5281020000000  0.4862180000000 1.0
C      1  0.4177090000000  0.5281020000000  0.5135590000000 1.0
C      1  0.4229050000000  0.4604400000000  0.5193420000000 1.0
C      1  0.5194160000000  0.4227940000000  0.4604770000000 1.0
C      1  0.4605510000000  0.5193050000000  0.4228310000000 1.0
C      1  0.5770190000000  0.4604400000000  0.4804340000000 1.0
C      1  0.4229050000000  0.5392610000000  0.4804340000000 1.0
C      1  0.5770190000000  0.5392610000000  0.5193420000000 1.0
C      1  0.4805080000000  0.4227940000000  0.5392990000000 1.0
C      1  0.5194160000000  0.5769070000000  0.5392990000000 1.0
C      1  0.4805080000000  0.5769070000000  0.4604770000000 1.0
C      1  0.5393730000000  0.5193050000000  0.5769450000000 1.0
C      1  0.4605510000000  0.4803960000000  0.5769450000000 1.0
C      1  0.5393730000000  0.4803960000000  0.4228310000000 1.0
C      1  0.4229050000000  0.5392610000000  0.5193420000000 1.0
C      1  0.5194160000000  0.5769070000000  0.4604770000000 1.0
C      1  0.4605510000000  0.4803960000000  0.4228310000000 1.0
C      1  0.5770190000000  0.5392610000000  0.4804340000000 1.0
C      1  0.4229050000000  0.4604400000000  0.4804340000000 1.0
C      1  0.5770190000000  0.4604400000000  0.5193420000000 1.0
C      1  0.4805080000000  0.5769070000000  0.5392990000000 1.0
C      1  0.5194160000000  0.4227940000000  0.5392990000000 1.0
C      1  0.4805080000000  0.4227940000000  0.4604770000000 1.0
C      1  0.5393730000000  0.4803960000000  0.5769450000000 1.0
C      1  0.4605510000000  0.5193050000000  0.5769450000000 1.0
C      1  0.5393730000000  0.5193050000000  0.4228310000000 1.0
C      1  0.5396530000000  0.4555160000000  0.5685530000000 1.0
C      1  0.5686260000000  0.5395410000000  0.4555540000000 1.0
C      1  0.4556270000000  0.5685150000000  0.5395790000000 1.0
C      1  0.4602710000000  0.4555160000000  0.4312240000000 1.0
C      1  0.5396530000000  0.5441850000000  0.4312240000000 1.0
C      1  0.4602710000000  0.5441850000000  0.5685530000000 1.0
C      1  0.4312980000000  0.5395410000000  0.5442230000000 1.0
C      1  0.5686260000000  0.4601590000000  0.5442230000000 1.0
C      1  0.4312980000000  0.4601590000000  0.4555540000000 1.0
C      1  0.5442970000000  0.5685150000000  0.4601970000000 1.0
C      1  0.4556270000000  0.4311860000000  0.4601970000000 1.0
C      1  0.5442970000000  0.4311860000000  0.5395790000000 1.0
C      1  0.5396530000000  0.5441850000000  0.5685530000000 1.0
C      1  0.5686260000000  0.4601590000000  0.4555540000000 1.0
C      1  0.4556270000000  0.4311860000000  0.5395790000000 1.0
C      1  0.4602710000000  0.5441850000000  0.4312240000000 1.0
C      1  0.5396530000000  0.4555160000000  0.4312240000000 1.0
C      1  0.4602710000000  0.4555160000000  0.5685530000000 1.0
C      1  0.4312980000000  0.4601590000000  0.5442230000000 1.0
C      1  0.5686260000000  0.5395410000000  0.5442230000000 1.0
C      1  0.4312980000000  0.5395410000000  0.4555540000000 1.0
C      1  0.5442970000000  0.4311860000000  0.4601970000000 1.0
C      1  0.4556270000000  0.5685150000000  0.4601970000000 1.0
C      1  0.5442970000000  0.5685150000000  0.5395790000000 1.0
C      1  0.4461440000000  0.4756030000000  0.4998880000000 1.0
C      1  0.4999620000000  0.4460320000000  0.4756410000000 1.0
C      1  0.4757150000000  0.4998500000000  0.5537070000000 1.0
C      1  0.5242090000000  0.4998500000000  0.4460700000000 1.0
C      1  0.5537810000000  0.4756030000000  0.4998880000000 1.0
C      1  0.4461440000000  0.5240980000000  0.4998880000000 1.0
C      1  0.5537810000000  0.5240980000000  0.4998880000000 1.0
C      1  0.4999620000000  0.5536690000000  0.4756410000000 1.0
C      1  0.4999620000000  0.5536690000000  0.5241350000000 1.0
C      1  0.4999620000000  0.4460320000000  0.5241350000000 1.0
C      1  0.4757150000000  0.4998500000000  0.4460700000000 1.0
C      1  0.5242090000000  0.4998500000000  0.5537070000000 1.0
C      1  0.4699830000000  0.4698710000000  0.5298670000000 1.0
C      1  0.5299410000000  0.4698710000000  0.4699090000000 1.0
C      1  0.4699830000000  0.5298290000000  0.4699090000000 1.0
C      1  0.5299410000000  0.5298290000000  0.5298670000000 1.0
C      1  0.5299410000000  0.5298290000000  0.4699090000000 1.0
C      1  0.5299410000000  0.4698710000000  0.5298670000000 1.0
C      1  0.4699830000000  0.5298290000000  0.5298670000000 1.0
C      1  0.4699830000000  0.4698710000000  0.4699090000000 1.0
END
