TITL C-1379268-1316-407 2.30088550188076e-06 1000000 -2091.89389511082 0 0 300 (Th) n - 1
REM
REM in /nfs/bkarasulu/CARBON/AIRSS/Generating-Clusters/GAP-ML-2020/Higher-Symm/Selected-Sizes/TryA-Only_Ih-Symm/Larger-Clusters/Try2-MINAMP_6A
REM
REM
REM
REM
REM
REM ./C.cell (31579ac4e95a012ec27f3239692ae8a5)
REM
REM compiler GCC version 9.2.1 20190827 (Red Hat 9.2.1-1)
REM options -cpp -mtune=generic -march=x86-64 -g -O0 -fpre-include=/usr/include/finclude/math-vector-fortran.h
REM seed 1463761137 851241339 -1088392728 -2143612477 169234089 -1014411140 -1509244998 -1754207689 -1456595849 1203362720 1544525981 1476254351 74292366 331720865 1981355458 -1743888742 -1332728862 929125951 977215504 -353043897 1986378645 1045522529 -497432713 -80140377 1405871288 2000413 -1781094103 -238758767 875614965 766005707 1051182403 -30016238 -155686018
REM
CELL 1.54180  100.00000  100.00000  100.00000   90.00000   90.00000   90.00000
LATT -1
SFAC C  
C      1  0.4757670000000  0.5167750000000  0.5368300000000 1.0
C      1  0.5368300000000  0.4757670000000  0.5167750000000 1.0
C      1  0.5167750000000  0.5368300000000  0.4757670000000 1.0
C      1  0.5242330000000  0.4832250000000  0.5368300000000 1.0
C      1  0.5242330000000  0.5167750000000  0.4631700000000 1.0
C      1  0.4757670000000  0.4832250000000  0.4631700000000 1.0
C      1  0.4631700000000  0.5242330000000  0.5167750000000 1.0
C      1  0.4631700000000  0.4757670000000  0.4832250000000 1.0
C      1  0.5368300000000  0.5242330000000  0.4832250000000 1.0
C      1  0.4832250000000  0.4631700000000  0.4757670000000 1.0
C      1  0.4832250000000  0.5368300000000  0.5242330000000 1.0
C      1  0.5167750000000  0.4631700000000  0.5242330000000 1.0
C      1  0.4757670000000  0.5167750000000  0.4631700000000 1.0
C      1  0.5368300000000  0.4757670000000  0.4832250000000 1.0
C      1  0.5167750000000  0.5368300000000  0.5242330000000 1.0
C      1  0.5242330000000  0.4832250000000  0.4631700000000 1.0
C      1  0.5242330000000  0.5167750000000  0.5368300000000 1.0
C      1  0.4757670000000  0.4832250000000  0.5368300000000 1.0
C      1  0.4631700000000  0.5242330000000  0.4832250000000 1.0
C      1  0.4631700000000  0.4757670000000  0.5167750000000 1.0
C      1  0.5368300000000  0.5242330000000  0.5167750000000 1.0
C      1  0.4832250000000  0.4631700000000  0.5242330000000 1.0
C      1  0.4832250000000  0.5368300000000  0.4757670000000 1.0
C      1  0.5167750000000  0.4631700000000  0.4757670000000 1.0
C      1  0.5364850000000  0.4510020000000  0.5163870000000 1.0
C      1  0.5163870000000  0.5364850000000  0.4510020000000 1.0
C      1  0.4510020000000  0.5163870000000  0.5364850000000 1.0
C      1  0.4635150000000  0.5489980000000  0.5163860000000 1.0
C      1  0.4635150000000  0.4510020000000  0.4836130000000 1.0
C      1  0.5364850000000  0.5489980000000  0.4836130000000 1.0
C      1  0.4836130000000  0.4635150000000  0.4510020000000 1.0
C      1  0.4836140000000  0.5364850000000  0.5489980000000 1.0
C      1  0.5163870000000  0.4635150000000  0.5489980000000 1.0
C      1  0.5489980000000  0.4836130000000  0.5364850000000 1.0
C      1  0.5489980000000  0.5163860000000  0.4635150000000 1.0
C      1  0.4510020000000  0.4836130000000  0.4635150000000 1.0
C      1  0.5364850000000  0.4510020000000  0.4836130000000 1.0
C      1  0.5163870000000  0.5364850000000  0.5489980000000 1.0
C      1  0.4510020000000  0.5163870000000  0.4635150000000 1.0
C      1  0.4635150000000  0.5489980000000  0.4836130000000 1.0
C      1  0.4635150000000  0.4510020000000  0.5163870000000 1.0
C      1  0.5364850000000  0.5489980000000  0.5163870000000 1.0
C      1  0.4836130000000  0.4635150000000  0.5489980000000 1.0
C      1  0.4836130000000  0.5364850000000  0.4510020000000 1.0
C      1  0.5163870000000  0.4635150000000  0.4510020000000 1.0
C      1  0.5489980000000  0.4836130000000  0.4635150000000 1.0
C      1  0.5489980000000  0.5163870000000  0.5364850000000 1.0
C      1  0.4510020000000  0.4836130000000  0.5364850000000 1.0
C      1  0.5128300000000  0.4246870000000  0.4604970000000 1.0
C      1  0.4604980000000  0.5128310000000  0.4246860000000 1.0
C      1  0.4246860000000  0.4604980000000  0.5128300000000 1.0
C      1  0.4871690000000  0.5753140000000  0.4604980000000 1.0
C      1  0.4871700000000  0.4246870000000  0.5395030000000 1.0
C      1  0.5128300000000  0.5753140000000  0.5395020000000 1.0
C      1  0.5395020000000  0.4871700000000  0.4246860000000 1.0
C      1  0.5395020000000  0.5128300000000  0.5753140000000 1.0
C      1  0.4604980000000  0.4871700000000  0.5753140000000 1.0
C      1  0.5753130000000  0.5395030000000  0.5128300000000 1.0
C      1  0.5753130000000  0.4604980000000  0.4871700000000 1.0
C      1  0.4246860000000  0.5395020000000  0.4871690000000 1.0
C      1  0.5128300000000  0.4246870000000  0.5395020000000 1.0
C      1  0.4604980000000  0.5128300000000  0.5753130000000 1.0
C      1  0.4246860000000  0.4604980000000  0.4871700000000 1.0
C      1  0.4871700000000  0.5753130000000  0.5395020000000 1.0
C      1  0.4871700000000  0.4246870000000  0.4604970000000 1.0
C      1  0.5128290000000  0.5753140000000  0.4604980000000 1.0
C      1  0.5395020000000  0.4871700000000  0.5753140000000 1.0
C      1  0.5395020000000  0.5128300000000  0.4246870000000 1.0
C      1  0.4604980000000  0.4871700000000  0.4246860000000 1.0
C      1  0.5753130000000  0.5395020000000  0.4871700000000 1.0
C      1  0.5753130000000  0.4604980000000  0.5128300000000 1.0
C      1  0.4246860000000  0.5395020000000  0.5128300000000 1.0
C      1  0.5246510000000  0.4268250000000  0.5354970000000 1.0
C      1  0.5354970000000  0.5246520000000  0.4268240000000 1.0
C      1  0.4268250000000  0.5354970000000  0.5246510000000 1.0
C      1  0.4753480000000  0.5731750000000  0.5354970000000 1.0
C      1  0.4753480000000  0.4268250000000  0.4645030000000 1.0
C      1  0.5246510000000  0.5731760000000  0.4645030000000 1.0
C      1  0.4645030000000  0.4753490000000  0.4268240000000 1.0
C      1  0.4645030000000  0.5246520000000  0.5731750000000 1.0
C      1  0.5354970000000  0.4753490000000  0.5731760000000 1.0
C      1  0.5731750000000  0.4645030000000  0.5246520000000 1.0
C      1  0.5731750000000  0.5354970000000  0.4753480000000 1.0
C      1  0.4268240000000  0.4645030000000  0.4753490000000 1.0
C      1  0.5246510000000  0.4268250000000  0.4645030000000 1.0
C      1  0.5354970000000  0.5246520000000  0.5731760000000 1.0
C      1  0.4268240000000  0.5354970000000  0.4753480000000 1.0
C      1  0.4753480000000  0.5731760000000  0.4645030000000 1.0
C      1  0.4753480000000  0.4268240000000  0.5354970000000 1.0
C      1  0.5246520000000  0.5731760000000  0.5354970000000 1.0
C      1  0.4645030000000  0.4753480000000  0.5731760000000 1.0
C      1  0.4645030000000  0.5246520000000  0.4268240000000 1.0
C      1  0.5354970000000  0.4753490000000  0.4268240000000 1.0
C      1  0.5731760000000  0.4645030000000  0.4753480000000 1.0
C      1  0.5731750000000  0.5354970000000  0.5246520000000 1.0
C      1  0.4268240000000  0.4645030000000  0.5246520000000 1.0
C      1  0.4726030000000  0.5605590000000  0.4853540000000 1.0
C      1  0.4853540000000  0.4726040000000  0.5605590000000 1.0
C      1  0.5605590000000  0.4853540000000  0.4726040000000 1.0
C      1  0.5273960000000  0.4394410000000  0.4853540000000 1.0
C      1  0.5273960000000  0.5605590000000  0.5146460000000 1.0
C      1  0.4726040000000  0.4394410000000  0.5146460000000 1.0
C      1  0.5146460000000  0.5273960000000  0.5605590000000 1.0
C      1  0.5146460000000  0.4726040000000  0.4394410000000 1.0
C      1  0.4853540000000  0.5273970000000  0.4394410000000 1.0
C      1  0.4394410000000  0.5146460000000  0.4726040000000 1.0
C      1  0.4394410000000  0.4853540000000  0.5273960000000 1.0
C      1  0.5605590000000  0.5146460000000  0.5273960000000 1.0
C      1  0.4726030000000  0.5605590000000  0.5146450000000 1.0
C      1  0.4853540000000  0.4726040000000  0.4394410000000 1.0
C      1  0.5605590000000  0.4853540000000  0.5273960000000 1.0
C      1  0.5273960000000  0.4394410000000  0.5146460000000 1.0
C      1  0.5273960000000  0.5605590000000  0.4853540000000 1.0
C      1  0.4726040000000  0.4394410000000  0.4853540000000 1.0
C      1  0.5146450000000  0.5273970000000  0.4394410000000 1.0
C      1  0.5146460000000  0.4726040000000  0.5605590000000 1.0
C      1  0.4853550000000  0.5273960000000  0.5605590000000 1.0
C      1  0.4394410000000  0.5146450000000  0.5273960000000 1.0
C      1  0.4394410000000  0.4853540000000  0.4726040000000 1.0
C      1  0.5605590000000  0.5146450000000  0.4726040000000 1.0
C      1  0.5072630000000  0.4529750000000  0.5204420000000 1.0
C      1  0.5204410000000  0.5072630000000  0.4529750000000 1.0
C      1  0.4529750000000  0.5204410000000  0.5072630000000 1.0
C      1  0.4927370000000  0.5470250000000  0.5204410000000 1.0
C      1  0.4927370000000  0.4529750000000  0.4795580000000 1.0
C      1  0.5072630000000  0.5470250000000  0.4795590000000 1.0
C      1  0.4795590000000  0.4927370000000  0.4529750000000 1.0
C      1  0.4795590000000  0.5072630000000  0.5470250000000 1.0
C      1  0.5204420000000  0.4927370000000  0.5470250000000 1.0
C      1  0.5470250000000  0.4795580000000  0.5072630000000 1.0
C      1  0.5470250000000  0.5204420000000  0.4927370000000 1.0
C      1  0.4529750000000  0.4795590000000  0.4927370000000 1.0
C      1  0.5072630000000  0.4529750000000  0.4795580000000 1.0
C      1  0.5204420000000  0.5072630000000  0.5470250000000 1.0
C      1  0.4529750000000  0.5204410000000  0.4927370000000 1.0
C      1  0.4927370000000  0.5470250000000  0.4795580000000 1.0
C      1  0.4927370000000  0.4529750000000  0.5204420000000 1.0
C      1  0.5072630000000  0.5470250000000  0.5204420000000 1.0
C      1  0.4795590000000  0.4927370000000  0.5470250000000 1.0
C      1  0.4795590000000  0.5072630000000  0.4529750000000 1.0
C      1  0.5204420000000  0.4927370000000  0.4529750000000 1.0
C      1  0.5470250000000  0.4795580000000  0.4927370000000 1.0
C      1  0.5470250000000  0.5204420000000  0.5072630000000 1.0
C      1  0.4529750000000  0.4795580000000  0.5072630000000 1.0
C      1  0.4636630000000  0.5170420000000  0.4706450000000 1.0
C      1  0.4706450000000  0.4636620000000  0.5170420000000 1.0
C      1  0.5170420000000  0.4706450000000  0.4636620000000 1.0
C      1  0.5363380000000  0.4829580000000  0.4706450000000 1.0
C      1  0.5363380000000  0.5170420000000  0.5293550000000 1.0
C      1  0.4636630000000  0.4829580000000  0.5293550000000 1.0
C      1  0.5293550000000  0.5363380000000  0.5170420000000 1.0
C      1  0.5293550000000  0.4636620000000  0.4829580000000 1.0
C      1  0.4706450000000  0.5363370000000  0.4829580000000 1.0
C      1  0.4829580000000  0.5293550000000  0.4636630000000 1.0
C      1  0.4829580000000  0.4706450000000  0.5363380000000 1.0
C      1  0.5170420000000  0.5293550000000  0.5363380000000 1.0
C      1  0.4636630000000  0.5170420000000  0.5293550000000 1.0
C      1  0.4706450000000  0.4636620000000  0.4829580000000 1.0
C      1  0.5170420000000  0.4706450000000  0.5363380000000 1.0
C      1  0.5363380000000  0.4829580000000  0.5293550000000 1.0
C      1  0.5363370000000  0.5170420000000  0.4706450000000 1.0
C      1  0.4636630000000  0.4829580000000  0.4706450000000 1.0
C      1  0.5293550000000  0.5363380000000  0.4829580000000 1.0
C      1  0.5293550000000  0.4636620000000  0.5170420000000 1.0
C      1  0.4706450000000  0.5363370000000  0.5170420000000 1.0
C      1  0.4829580000000  0.5293550000000  0.5363370000000 1.0
C      1  0.4829580000000  0.4706450000000  0.4636620000000 1.0
C      1  0.5170420000000  0.5293550000000  0.4636630000000 1.0
C      1  0.4734060000000  0.5328250000000  0.5669650000000 1.0
C      1  0.5669650000000  0.4734060000000  0.5328250000000 1.0
C      1  0.5328240000000  0.5669650000000  0.4734060000000 1.0
C      1  0.5265940000000  0.4671750000000  0.5669650000000 1.0
C      1  0.5265940000000  0.5328250000000  0.4330350000000 1.0
C      1  0.4734060000000  0.4671760000000  0.4330350000000 1.0
C      1  0.4330350000000  0.5265940000000  0.5328250000000 1.0
C      1  0.4330350000000  0.4734060000000  0.4671750000000 1.0
C      1  0.5669650000000  0.5265940000000  0.4671750000000 1.0
C      1  0.4671750000000  0.4330350000000  0.4734060000000 1.0
C      1  0.4671750000000  0.5669650000000  0.5265940000000 1.0
C      1  0.5328250000000  0.4330350000000  0.5265940000000 1.0
C      1  0.4734060000000  0.5328250000000  0.4330350000000 1.0
C      1  0.5669650000000  0.4734050000000  0.4671750000000 1.0
C      1  0.5328250000000  0.5669650000000  0.5265950000000 1.0
C      1  0.5265940000000  0.4671750000000  0.4330350000000 1.0
C      1  0.5265950000000  0.5328250000000  0.5669650000000 1.0
C      1  0.4734060000000  0.4671750000000  0.5669650000000 1.0
C      1  0.4330350000000  0.5265940000000  0.4671750000000 1.0
C      1  0.4330350000000  0.4734050000000  0.5328250000000 1.0
C      1  0.5669650000000  0.5265940000000  0.5328250000000 1.0
C      1  0.4671750000000  0.4330350000000  0.5265940000000 1.0
C      1  0.4671750000000  0.5669650000000  0.4734060000000 1.0
C      1  0.5328250000000  0.4330350000000  0.4734060000000 1.0
C      1  0.5142690000000  0.5134740000000  0.5582070000000 1.0
C      1  0.5582070000000  0.5142690000000  0.5134740000000 1.0
C      1  0.5134740000000  0.5582070000000  0.5142690000000 1.0
C      1  0.4857310000000  0.4865260000000  0.5582070000000 1.0
C      1  0.4857310000000  0.5134740000000  0.4417930000000 1.0
C      1  0.5142690000000  0.4865260000000  0.4417930000000 1.0
C      1  0.4417930000000  0.4857310000000  0.5134740000000 1.0
C      1  0.4417930000000  0.5142690000000  0.4865260000000 1.0
C      1  0.5582070000000  0.4857310000000  0.4865260000000 1.0
C      1  0.4865260000000  0.4417930000000  0.5142690000000 1.0
C      1  0.4865260000000  0.5582070000000  0.4857310000000 1.0
C      1  0.5134740000000  0.4417930000000  0.4857310000000 1.0
C      1  0.5142690000000  0.5134740000000  0.4417930000000 1.0
C      1  0.5582070000000  0.5142690000000  0.4865260000000 1.0
C      1  0.5134740000000  0.5582070000000  0.4857310000000 1.0
C      1  0.4857310000000  0.4865260000000  0.4417930000000 1.0
C      1  0.4857310000000  0.5134740000000  0.5582070000000 1.0
C      1  0.5142690000000  0.4865260000000  0.5582070000000 1.0
C      1  0.4417930000000  0.4857310000000  0.4865260000000 1.0
C      1  0.4417930000000  0.5142690000000  0.5134740000000 1.0
C      1  0.5582070000000  0.4857310000000  0.5134740000000 1.0
C      1  0.4865260000000  0.4417930000000  0.4857310000000 1.0
C      1  0.4865260000000  0.5582070000000  0.5142690000000 1.0
C      1  0.5134740000000  0.4417930000000  0.5142690000000 1.0
C      1  0.4595040000000  0.5467670000000  0.4480320000000 1.0
C      1  0.4480330000000  0.4595040000000  0.5467670000000 1.0
C      1  0.5467670000000  0.4480320000000  0.4595040000000 1.0
C      1  0.5404950000000  0.4532330000000  0.4480320000000 1.0
C      1  0.5404960000000  0.5467670000000  0.5519680000000 1.0
C      1  0.4595050000000  0.4532330000000  0.5519680000000 1.0
C      1  0.5519680000000  0.5404960000000  0.5467670000000 1.0
C      1  0.5519680000000  0.4595040000000  0.4532330000000 1.0
C      1  0.4480320000000  0.5404950000000  0.4532330000000 1.0
C      1  0.4532330000000  0.5519670000000  0.4595040000000 1.0
C      1  0.4532340000000  0.4480320000000  0.5404960000000 1.0
C      1  0.5467670000000  0.5519680000000  0.5404960000000 1.0
C      1  0.4595050000000  0.5467670000000  0.5519670000000 1.0
C      1  0.4480330000000  0.4595040000000  0.4532330000000 1.0
C      1  0.5467670000000  0.4480320000000  0.5404960000000 1.0
C      1  0.5404950000000  0.4532330000000  0.5519680000000 1.0
C      1  0.5404950000000  0.5467660000000  0.4480320000000 1.0
C      1  0.4595050000000  0.4532330000000  0.4480320000000 1.0
C      1  0.5519670000000  0.5404950000000  0.4532330000000 1.0
C      1  0.5519680000000  0.4595040000000  0.5467670000000 1.0
C      1  0.4480330000000  0.5404950000000  0.5467670000000 1.0
C      1  0.4532340000000  0.5519680000000  0.5404950000000 1.0
C      1  0.4532340000000  0.4480320000000  0.4595050000000 1.0
C      1  0.5467670000000  0.5519670000000  0.4595050000000 1.0
C      1  0.5072600000000  0.5072490000000  0.4313870000000 1.0
C      1  0.4313870000000  0.5072600000000  0.5072490000000 1.0
C      1  0.5072490000000  0.4313870000000  0.5072600000000 1.0
C      1  0.4927400000000  0.4927510000000  0.4313870000000 1.0
C      1  0.4927400000000  0.5072490000000  0.5686130000000 1.0
C      1  0.5072600000000  0.4927510000000  0.5686130000000 1.0
C      1  0.5686130000000  0.4927400000000  0.5072490000000 1.0
C      1  0.5686130000000  0.5072600000000  0.4927510000000 1.0
C      1  0.4313870000000  0.4927400000000  0.4927510000000 1.0
C      1  0.4927510000000  0.5686130000000  0.5072600000000 1.0
C      1  0.4927510000000  0.4313870000000  0.4927400000000 1.0
C      1  0.5072490000000  0.5686130000000  0.4927400000000 1.0
C      1  0.5072600000000  0.5072490000000  0.5686130000000 1.0
C      1  0.4313870000000  0.5072600000000  0.4927510000000 1.0
C      1  0.5072490000000  0.4313870000000  0.4927400000000 1.0
C      1  0.4927400000000  0.4927510000000  0.5686130000000 1.0
C      1  0.4927400000000  0.5072490000000  0.4313870000000 1.0
C      1  0.5072600000000  0.4927510000000  0.4313870000000 1.0
C      1  0.5686130000000  0.4927400000000  0.4927510000000 1.0
C      1  0.5686130000000  0.5072600000000  0.5072490000000 1.0
C      1  0.4313870000000  0.4927400000000  0.5072490000000 1.0
C      1  0.4927510000000  0.5686130000000  0.4927400000000 1.0
C      1  0.4927510000000  0.4313870000000  0.5072600000000 1.0
C      1  0.5072490000000  0.5686130000000  0.5072600000000 1.0
C      1  0.4721080000000  0.4571250000000  0.4437560000000 1.0
C      1  0.4437560000000  0.4721070000000  0.4571250000000 1.0
C      1  0.4571250000000  0.4437560000000  0.4721080000000 1.0
C      1  0.5278920000000  0.5428750000000  0.4437560000000 1.0
C      1  0.5278920000000  0.4571250000000  0.5562440000000 1.0
C      1  0.4721080000000  0.5428750000000  0.5562440000000 1.0
C      1  0.5562440000000  0.5278920000000  0.4571250000000 1.0
C      1  0.5562440000000  0.4721080000000  0.5428750000000 1.0
C      1  0.4437560000000  0.5278920000000  0.5428750000000 1.0
C      1  0.5428750000000  0.5562440000000  0.4721070000000 1.0
C      1  0.5428750000000  0.4437560000000  0.5278930000000 1.0
C      1  0.4571250000000  0.5562440000000  0.5278920000000 1.0
C      1  0.4721080000000  0.4571250000000  0.5562440000000 1.0
C      1  0.4437560000000  0.4721070000000  0.5428750000000 1.0
C      1  0.4571250000000  0.4437560000000  0.5278920000000 1.0
C      1  0.5278930000000  0.5428750000000  0.5562440000000 1.0
C      1  0.5278930000000  0.4571250000000  0.4437560000000 1.0
C      1  0.4721080000000  0.5428750000000  0.4437560000000 1.0
C      1  0.5562440000000  0.5278920000000  0.5428750000000 1.0
C      1  0.5562440000000  0.4721070000000  0.4571250000000 1.0
C      1  0.4437560000000  0.5278920000000  0.4571250000000 1.0
C      1  0.5428750000000  0.5562440000000  0.5278930000000 1.0
C      1  0.5428750000000  0.4437560000000  0.4721070000000 1.0
C      1  0.4571240000000  0.5562440000000  0.4721070000000 1.0
C      1  0.5410560000000  0.5000000000000  0.4232300000000 1.0
C      1  0.4589440000000  0.5000010000000  0.4232300000000 1.0
C      1  0.4589440000000  0.5000000000000  0.5767700000000 1.0
C      1  0.5410560000000  0.5000000000000  0.5767700000000 1.0
C      1  0.5000000000000  0.4232300000000  0.5410560000000 1.0
C      1  0.4232300000000  0.5410550000000  0.5000000000000 1.0
C      1  0.5000000000000  0.5767700000000  0.5410560000000 1.0
C      1  0.5000000000000  0.4232300000000  0.4589440000000 1.0
C      1  0.4999990000000  0.5767710000000  0.4589450000000 1.0
C      1  0.5767700000000  0.4589440000000  0.5000000000000 1.0
C      1  0.5767700000000  0.5410560000000  0.5000000000000 1.0
C      1  0.4232300000000  0.4589440000000  0.5000000000000 1.0
END
