TITL C-1379266-1300-105 -2.35346783096923e-06 1000000 -3012.7724452617 0 0 420 (Td) n - 1
REM
REM in /nfs/bkarasulu/CARBON/AIRSS/Generating-Clusters/GAP-ML-2020/Higher-Symm/Selected-Sizes/TryA-Only_Ih-Symm/Larger-Clusters/Try2-MINAMP_6A
REM
REM
REM
REM
REM
REM ./C.cell (31579ac4e95a012ec27f3239692ae8a5)
REM
REM compiler GCC version 9.2.1 20190827 (Red Hat 9.2.1-1)
REM options -cpp -mtune=generic -march=x86-64 -g -O0 -fpre-include=/usr/include/finclude/math-vector-fortran.h
REM seed 568378424 -1529103849 -131775520 1006230495 1474336562 595173062 -613787887 164293916 -1811188831 -1495486978 1171739194 381042189 -227413921 1123642230 -1207204331 588765507 -1175643673 -1788184403 363518177 -1708093 -1506350573 -1032908010 27229575 1020653955 1568237471 695056164 -2071702370 -1291142709 -979451172 957820855 1768003879 -761927056 -74971574
REM
CELL 1.54180  100.00000  100.00000  100.00000   90.00000   90.00000   90.00000
LATT -1
SFAC C  
C      1  0.4640010000000  0.5638670000000  0.4740660000000 1.0
C      1  0.5638670000000  0.4740660000000  0.4640010000000 1.0
C      1  0.4740660000000  0.4640010000000  0.5638670000000 1.0
C      1  0.4640010000000  0.4361330000000  0.5259340000000 1.0
C      1  0.5359990000000  0.5638670000000  0.5259340000000 1.0
C      1  0.5359990000000  0.4361330000000  0.4740660000000 1.0
C      1  0.5638670000000  0.5259340000000  0.5359990000000 1.0
C      1  0.4361330000000  0.4740660000000  0.5359990000000 1.0
C      1  0.4361330000000  0.5259340000000  0.4640010000000 1.0
C      1  0.4740660000000  0.5359990000000  0.4361330000000 1.0
C      1  0.5259340000000  0.4640010000000  0.4361330000000 1.0
C      1  0.5259340000000  0.5359990000000  0.5638670000000 1.0
C      1  0.4640010000000  0.4740660000000  0.5638670000000 1.0
C      1  0.5638670000000  0.4640010000000  0.4740660000000 1.0
C      1  0.4740660000000  0.5638670000000  0.4640010000000 1.0
C      1  0.4640010000000  0.5259340000000  0.4361330000000 1.0
C      1  0.5359990000000  0.5259340000000  0.5638670000000 1.0
C      1  0.5359990000000  0.4740660000000  0.4361330000000 1.0
C      1  0.5638670000000  0.5359990000000  0.5259340000000 1.0
C      1  0.4361330000000  0.5359990000000  0.4740660000000 1.0
C      1  0.4361330000000  0.4640010000000  0.5259340000000 1.0
C      1  0.4740660000000  0.4361330000000  0.5359990000000 1.0
C      1  0.5259340000000  0.4361330000000  0.4640010000000 1.0
C      1  0.5259340000000  0.5638670000000  0.5359990000000 1.0
C      1  0.5509220000000  0.4585860000000  0.5023320000000 1.0
C      1  0.4585860000000  0.5023320000000  0.5509220000000 1.0
C      1  0.5023320000000  0.5509220000000  0.4585860000000 1.0
C      1  0.5509220000000  0.5414140000000  0.4976680000000 1.0
C      1  0.4490780000000  0.4585860000000  0.4976680000000 1.0
C      1  0.4490780000000  0.5414140000000  0.5023320000000 1.0
C      1  0.4585860000000  0.4976680000000  0.4490780000000 1.0
C      1  0.5414140000000  0.5023320000000  0.4490780000000 1.0
C      1  0.5414140000000  0.4976680000000  0.5509220000000 1.0
C      1  0.5023320000000  0.4490780000000  0.5414140000000 1.0
C      1  0.4976680000000  0.5509220000000  0.5414140000000 1.0
C      1  0.4976680000000  0.4490780000000  0.4585860000000 1.0
C      1  0.5509220000000  0.5023320000000  0.4585860000000 1.0
C      1  0.4585860000000  0.5509220000000  0.5023320000000 1.0
C      1  0.5023320000000  0.4585860000000  0.5509220000000 1.0
C      1  0.5509220000000  0.4976680000000  0.5414140000000 1.0
C      1  0.4490780000000  0.4976680000000  0.4585860000000 1.0
C      1  0.4490780000000  0.5023320000000  0.5414140000000 1.0
C      1  0.4585860000000  0.4490780000000  0.4976680000000 1.0
C      1  0.5414140000000  0.4490780000000  0.5023320000000 1.0
C      1  0.5414140000000  0.5509220000000  0.4976680000000 1.0
C      1  0.5023320000000  0.5414140000000  0.4490780000000 1.0
C      1  0.4976680000000  0.5414140000000  0.5509220000000 1.0
C      1  0.4976680000000  0.4585860000000  0.4490780000000 1.0
C      1  0.4253450000000  0.5361480000000  0.4840680000000 1.0
C      1  0.5361480000000  0.4840680000000  0.4253450000000 1.0
C      1  0.4840680000000  0.4253450000000  0.5361480000000 1.0
C      1  0.4253450000000  0.4638520000000  0.5159320000000 1.0
C      1  0.5746550000000  0.5361480000000  0.5159320000000 1.0
C      1  0.5746550000000  0.4638520000000  0.4840680000000 1.0
C      1  0.5361480000000  0.5159320000000  0.5746550000000 1.0
C      1  0.4638520000000  0.4840680000000  0.5746550000000 1.0
C      1  0.4638520000000  0.5159320000000  0.4253450000000 1.0
C      1  0.4840680000000  0.5746550000000  0.4638520000000 1.0
C      1  0.5159320000000  0.4253450000000  0.4638520000000 1.0
C      1  0.5159320000000  0.5746550000000  0.5361480000000 1.0
C      1  0.4253450000000  0.4840680000000  0.5361480000000 1.0
C      1  0.5361480000000  0.4253450000000  0.4840680000000 1.0
C      1  0.4840680000000  0.5361480000000  0.4253450000000 1.0
C      1  0.4253450000000  0.5159320000000  0.4638520000000 1.0
C      1  0.5746550000000  0.5159320000000  0.5361480000000 1.0
C      1  0.5746550000000  0.4840680000000  0.4638520000000 1.0
C      1  0.5361480000000  0.5746550000000  0.5159320000000 1.0
C      1  0.4638520000000  0.5746550000000  0.4840680000000 1.0
C      1  0.4638520000000  0.4253450000000  0.5159320000000 1.0
C      1  0.4840680000000  0.4638520000000  0.5746550000000 1.0
C      1  0.5159320000000  0.4638520000000  0.4253450000000 1.0
C      1  0.5159320000000  0.5361480000000  0.5746550000000 1.0
C      1  0.5266150000000  0.5384710000000  0.5489930000000 1.0
C      1  0.5384710000000  0.5489930000000  0.5266150000000 1.0
C      1  0.5489930000000  0.5266150000000  0.5384710000000 1.0
C      1  0.5266150000000  0.4615290000000  0.4510070000000 1.0
C      1  0.4733850000000  0.5384710000000  0.4510070000000 1.0
C      1  0.4733850000000  0.4615290000000  0.5489930000000 1.0
C      1  0.5384710000000  0.4510070000000  0.4733850000000 1.0
C      1  0.4615290000000  0.5489930000000  0.4733850000000 1.0
C      1  0.4615290000000  0.4510070000000  0.5266150000000 1.0
C      1  0.5489930000000  0.4733850000000  0.4615290000000 1.0
C      1  0.4510070000000  0.5266150000000  0.4615290000000 1.0
C      1  0.4510070000000  0.4733850000000  0.5384710000000 1.0
C      1  0.5266150000000  0.5489930000000  0.5384710000000 1.0
C      1  0.5384710000000  0.5266150000000  0.5489930000000 1.0
C      1  0.5489930000000  0.5384710000000  0.5266150000000 1.0
C      1  0.5266150000000  0.4510070000000  0.4615290000000 1.0
C      1  0.4733850000000  0.4510070000000  0.5384710000000 1.0
C      1  0.4733850000000  0.5489930000000  0.4615290000000 1.0
C      1  0.5384710000000  0.4733850000000  0.4510070000000 1.0
C      1  0.4615290000000  0.4733850000000  0.5489930000000 1.0
C      1  0.4615290000000  0.5266150000000  0.4510070000000 1.0
C      1  0.5489930000000  0.4615290000000  0.4733850000000 1.0
C      1  0.4510070000000  0.4615290000000  0.5266150000000 1.0
C      1  0.4510070000000  0.5384710000000  0.4733850000000 1.0
C      1  0.4771880000000  0.4281740000000  0.4671290000000 1.0
C      1  0.4281740000000  0.4671290000000  0.4771880000000 1.0
C      1  0.4671290000000  0.4771880000000  0.4281740000000 1.0
C      1  0.4771880000000  0.5718260000000  0.5328710000000 1.0
C      1  0.5228120000000  0.4281740000000  0.5328710000000 1.0
C      1  0.5228120000000  0.5718260000000  0.4671290000000 1.0
C      1  0.4281740000000  0.5328710000000  0.5228120000000 1.0
C      1  0.5718260000000  0.4671290000000  0.5228120000000 1.0
C      1  0.5718260000000  0.5328710000000  0.4771880000000 1.0
C      1  0.4671290000000  0.5228120000000  0.5718260000000 1.0
C      1  0.5328710000000  0.4771880000000  0.5718260000000 1.0
C      1  0.5328710000000  0.5228120000000  0.4281740000000 1.0
C      1  0.4771880000000  0.4671290000000  0.4281740000000 1.0
C      1  0.4281740000000  0.4771880000000  0.4671290000000 1.0
C      1  0.4671290000000  0.4281740000000  0.4771880000000 1.0
C      1  0.4771880000000  0.5328710000000  0.5718260000000 1.0
C      1  0.5228120000000  0.5328710000000  0.4281740000000 1.0
C      1  0.5228120000000  0.4671290000000  0.5718260000000 1.0
C      1  0.4281740000000  0.5228120000000  0.5328710000000 1.0
C      1  0.5718260000000  0.5228120000000  0.4671290000000 1.0
C      1  0.5718260000000  0.4771880000000  0.5328710000000 1.0
C      1  0.4671290000000  0.5718260000000  0.5228120000000 1.0
C      1  0.5328710000000  0.5718260000000  0.4771880000000 1.0
C      1  0.5328710000000  0.4281740000000  0.5228120000000 1.0
C      1  0.5150660000000  0.4460250000000  0.5638100000000 1.0
C      1  0.4460250000000  0.5638100000000  0.5150660000000 1.0
C      1  0.5638100000000  0.5150660000000  0.4460250000000 1.0
C      1  0.5150660000000  0.5539750000000  0.4361900000000 1.0
C      1  0.4849340000000  0.4460250000000  0.4361900000000 1.0
C      1  0.4849340000000  0.5539750000000  0.5638100000000 1.0
C      1  0.4460250000000  0.4361900000000  0.4849340000000 1.0
C      1  0.5539750000000  0.5638100000000  0.4849340000000 1.0
C      1  0.5539750000000  0.4361900000000  0.5150660000000 1.0
C      1  0.5638100000000  0.4849340000000  0.5539750000000 1.0
C      1  0.4361900000000  0.5150660000000  0.5539750000000 1.0
C      1  0.4361900000000  0.4849340000000  0.4460250000000 1.0
C      1  0.5150660000000  0.5638100000000  0.4460250000000 1.0
C      1  0.4460250000000  0.5150660000000  0.5638100000000 1.0
C      1  0.5638100000000  0.4460250000000  0.5150660000000 1.0
C      1  0.5150660000000  0.4361900000000  0.5539750000000 1.0
C      1  0.4849340000000  0.4361900000000  0.4460250000000 1.0
C      1  0.4849340000000  0.5638100000000  0.5539750000000 1.0
C      1  0.4460250000000  0.4849340000000  0.4361900000000 1.0
C      1  0.5539750000000  0.4849340000000  0.5638100000000 1.0
C      1  0.5539750000000  0.5150660000000  0.4361900000000 1.0
C      1  0.5638100000000  0.5539750000000  0.4849340000000 1.0
C      1  0.4361900000000  0.5539750000000  0.5150660000000 1.0
C      1  0.4361900000000  0.4460250000000  0.4849340000000 1.0
C      1  0.4923050000000  0.5167390000000  0.5799910000000 1.0
C      1  0.5167390000000  0.5799910000000  0.4923050000000 1.0
C      1  0.5799910000000  0.4923050000000  0.5167390000000 1.0
C      1  0.4923050000000  0.4832610000000  0.4200090000000 1.0
C      1  0.5076950000000  0.5167390000000  0.4200090000000 1.0
C      1  0.5076950000000  0.4832610000000  0.5799910000000 1.0
C      1  0.5167390000000  0.4200090000000  0.5076950000000 1.0
C      1  0.4832610000000  0.5799910000000  0.5076950000000 1.0
C      1  0.4832610000000  0.4200090000000  0.4923050000000 1.0
C      1  0.5799910000000  0.5076950000000  0.4832610000000 1.0
C      1  0.4200090000000  0.4923050000000  0.4832610000000 1.0
C      1  0.4200090000000  0.5076950000000  0.5167390000000 1.0
C      1  0.4923050000000  0.5799910000000  0.5167390000000 1.0
C      1  0.5167390000000  0.4923050000000  0.5799910000000 1.0
C      1  0.5799910000000  0.5167390000000  0.4923050000000 1.0
C      1  0.4923050000000  0.4200090000000  0.4832610000000 1.0
C      1  0.5076950000000  0.4200090000000  0.5167390000000 1.0
C      1  0.5076950000000  0.5799910000000  0.4832610000000 1.0
C      1  0.5167390000000  0.5076950000000  0.4200090000000 1.0
C      1  0.4832610000000  0.5076950000000  0.5799910000000 1.0
C      1  0.4832610000000  0.4923050000000  0.4200090000000 1.0
C      1  0.5799910000000  0.4832610000000  0.5076950000000 1.0
C      1  0.4200090000000  0.4832610000000  0.4923050000000 1.0
C      1  0.4200090000000  0.5167390000000  0.5076950000000 1.0
C      1  0.4604120000000  0.5178110000000  0.4712950000000 1.0
C      1  0.5178110000000  0.4712950000000  0.4604120000000 1.0
C      1  0.4712950000000  0.4604120000000  0.5178110000000 1.0
C      1  0.4604120000000  0.4821890000000  0.5287050000000 1.0
C      1  0.5395880000000  0.5178110000000  0.5287050000000 1.0
C      1  0.5395880000000  0.4821890000000  0.4712950000000 1.0
C      1  0.5178110000000  0.5287050000000  0.5395880000000 1.0
C      1  0.4821890000000  0.4712950000000  0.5395880000000 1.0
C      1  0.4821890000000  0.5287050000000  0.4604120000000 1.0
C      1  0.4712950000000  0.5395880000000  0.4821890000000 1.0
C      1  0.5287050000000  0.4604120000000  0.4821890000000 1.0
C      1  0.5287050000000  0.5395880000000  0.5178110000000 1.0
C      1  0.4604120000000  0.4712950000000  0.5178110000000 1.0
C      1  0.5178110000000  0.4604120000000  0.4712950000000 1.0
C      1  0.4712950000000  0.5178110000000  0.4604120000000 1.0
C      1  0.4604120000000  0.5287050000000  0.4821890000000 1.0
C      1  0.5395880000000  0.5287050000000  0.5178110000000 1.0
C      1  0.5395880000000  0.4712950000000  0.4821890000000 1.0
C      1  0.5178110000000  0.5395880000000  0.5287050000000 1.0
C      1  0.4821890000000  0.5395880000000  0.4712950000000 1.0
C      1  0.4821890000000  0.4604120000000  0.5287050000000 1.0
C      1  0.4712950000000  0.4821890000000  0.5395880000000 1.0
C      1  0.5287050000000  0.4821890000000  0.4604120000000 1.0
C      1  0.5287050000000  0.5178110000000  0.5395880000000 1.0
C      1  0.4617010000000  0.4818550000000  0.4717270000000 1.0
C      1  0.4818550000000  0.4717270000000  0.4617010000000 1.0
C      1  0.4717270000000  0.4617010000000  0.4818550000000 1.0
C      1  0.4617010000000  0.5181450000000  0.5282730000000 1.0
C      1  0.5382990000000  0.4818550000000  0.5282730000000 1.0
C      1  0.5382990000000  0.5181450000000  0.4717270000000 1.0
C      1  0.4818550000000  0.5282730000000  0.5382990000000 1.0
C      1  0.5181450000000  0.4717270000000  0.5382990000000 1.0
C      1  0.5181450000000  0.5282730000000  0.4617010000000 1.0
C      1  0.4717270000000  0.5382990000000  0.5181450000000 1.0
C      1  0.5282730000000  0.4617010000000  0.5181450000000 1.0
C      1  0.5282730000000  0.5382990000000  0.4818550000000 1.0
C      1  0.4617010000000  0.4717270000000  0.4818550000000 1.0
C      1  0.4818550000000  0.4617010000000  0.4717270000000 1.0
C      1  0.4717270000000  0.4818550000000  0.4617010000000 1.0
C      1  0.4617010000000  0.5282730000000  0.5181450000000 1.0
C      1  0.5382990000000  0.5282730000000  0.4818550000000 1.0
C      1  0.5382990000000  0.4717270000000  0.5181450000000 1.0
C      1  0.4818550000000  0.5382990000000  0.5282730000000 1.0
C      1  0.5181450000000  0.5382990000000  0.4717270000000 1.0
C      1  0.5181450000000  0.4617010000000  0.5282730000000 1.0
C      1  0.4717270000000  0.5181450000000  0.5382990000000 1.0
C      1  0.5282730000000  0.5181450000000  0.4617010000000 1.0
C      1  0.5282730000000  0.4818550000000  0.5382990000000 1.0
C      1  0.4613860000000  0.5735980000000  0.4980730000000 1.0
C      1  0.5735980000000  0.4980730000000  0.4613860000000 1.0
C      1  0.4980730000000  0.4613860000000  0.5735980000000 1.0
C      1  0.4613860000000  0.4264020000000  0.5019270000000 1.0
C      1  0.5386140000000  0.5735980000000  0.5019270000000 1.0
C      1  0.5386140000000  0.4264020000000  0.4980730000000 1.0
C      1  0.5735980000000  0.5019270000000  0.5386140000000 1.0
C      1  0.4264020000000  0.4980730000000  0.5386140000000 1.0
C      1  0.4264020000000  0.5019270000000  0.4613860000000 1.0
C      1  0.4980730000000  0.5386140000000  0.4264020000000 1.0
C      1  0.5019270000000  0.4613860000000  0.4264020000000 1.0
C      1  0.5019270000000  0.5386140000000  0.5735980000000 1.0
C      1  0.4613860000000  0.4980730000000  0.5735980000000 1.0
C      1  0.5735980000000  0.4613860000000  0.4980730000000 1.0
C      1  0.4980730000000  0.5735980000000  0.4613860000000 1.0
C      1  0.4613860000000  0.5019270000000  0.4264020000000 1.0
C      1  0.5386140000000  0.5019270000000  0.5735980000000 1.0
C      1  0.5386140000000  0.4980730000000  0.4264020000000 1.0
C      1  0.5735980000000  0.5386140000000  0.5019270000000 1.0
C      1  0.4264020000000  0.5386140000000  0.4980730000000 1.0
C      1  0.4264020000000  0.4613860000000  0.5019270000000 1.0
C      1  0.4980730000000  0.4264020000000  0.5386140000000 1.0
C      1  0.5019270000000  0.4264020000000  0.4613860000000 1.0
C      1  0.5019270000000  0.5735980000000  0.5386140000000 1.0
C      1  0.4787310000000  0.4137160000000  0.5302060000000 1.0
C      1  0.4137160000000  0.5302060000000  0.4787310000000 1.0
C      1  0.5302060000000  0.4787310000000  0.4137160000000 1.0
C      1  0.4787310000000  0.5862840000000  0.4697940000000 1.0
C      1  0.5212690000000  0.4137160000000  0.4697940000000 1.0
C      1  0.5212690000000  0.5862840000000  0.5302060000000 1.0
C      1  0.4137160000000  0.4697940000000  0.5212690000000 1.0
C      1  0.5862840000000  0.5302060000000  0.5212690000000 1.0
C      1  0.5862840000000  0.4697940000000  0.4787310000000 1.0
C      1  0.5302060000000  0.5212690000000  0.5862840000000 1.0
C      1  0.4697940000000  0.4787310000000  0.5862840000000 1.0
C      1  0.4697940000000  0.5212690000000  0.4137160000000 1.0
C      1  0.4787310000000  0.5302060000000  0.4137160000000 1.0
C      1  0.4137160000000  0.4787310000000  0.5302060000000 1.0
C      1  0.5302060000000  0.4137160000000  0.4787310000000 1.0
C      1  0.4787310000000  0.4697940000000  0.5862840000000 1.0
C      1  0.5212690000000  0.4697940000000  0.4137160000000 1.0
C      1  0.5212690000000  0.5302060000000  0.5862840000000 1.0
C      1  0.4137160000000  0.5212690000000  0.4697940000000 1.0
C      1  0.5862840000000  0.5212690000000  0.5302060000000 1.0
C      1  0.5862840000000  0.4787310000000  0.4697940000000 1.0
C      1  0.5302060000000  0.5862840000000  0.5212690000000 1.0
C      1  0.4697940000000  0.5862840000000  0.4787310000000 1.0
C      1  0.4697940000000  0.4137160000000  0.5212690000000 1.0
C      1  0.5454670000000  0.5260910000000  0.4339890000000 1.0
C      1  0.5260910000000  0.4339890000000  0.5454670000000 1.0
C      1  0.4339890000000  0.5454670000000  0.5260910000000 1.0
C      1  0.5454670000000  0.4739090000000  0.5660110000000 1.0
C      1  0.4545330000000  0.5260910000000  0.5660110000000 1.0
C      1  0.4545330000000  0.4739090000000  0.4339890000000 1.0
C      1  0.5260910000000  0.5660110000000  0.4545330000000 1.0
C      1  0.4739090000000  0.4339890000000  0.4545330000000 1.0
C      1  0.4739090000000  0.5660110000000  0.5454670000000 1.0
C      1  0.4339890000000  0.4545330000000  0.4739090000000 1.0
C      1  0.5660110000000  0.5454670000000  0.4739090000000 1.0
C      1  0.5660110000000  0.4545330000000  0.5260910000000 1.0
C      1  0.5454670000000  0.4339890000000  0.5260910000000 1.0
C      1  0.5260910000000  0.5454670000000  0.4339890000000 1.0
C      1  0.4339890000000  0.5260910000000  0.5454670000000 1.0
C      1  0.5454670000000  0.5660110000000  0.4739090000000 1.0
C      1  0.4545330000000  0.5660110000000  0.5260910000000 1.0
C      1  0.4545330000000  0.4339890000000  0.4739090000000 1.0
C      1  0.5260910000000  0.4545330000000  0.5660110000000 1.0
C      1  0.4739090000000  0.4545330000000  0.4339890000000 1.0
C      1  0.4739090000000  0.5454670000000  0.5660110000000 1.0
C      1  0.4339890000000  0.4739090000000  0.4545330000000 1.0
C      1  0.5660110000000  0.4739090000000  0.5454670000000 1.0
C      1  0.5660110000000  0.5260910000000  0.4545330000000 1.0
C      1  0.5376200000000  0.4422160000000  0.5475750000000 1.0
C      1  0.4422160000000  0.5475750000000  0.5376200000000 1.0
C      1  0.5475750000000  0.5376200000000  0.4422160000000 1.0
C      1  0.5376200000000  0.5577840000000  0.4524250000000 1.0
C      1  0.4623800000000  0.4422160000000  0.4524250000000 1.0
C      1  0.4623800000000  0.5577840000000  0.5475750000000 1.0
C      1  0.4422160000000  0.4524250000000  0.4623800000000 1.0
C      1  0.5577840000000  0.5475750000000  0.4623800000000 1.0
C      1  0.5577840000000  0.4524250000000  0.5376200000000 1.0
C      1  0.5475750000000  0.4623800000000  0.5577840000000 1.0
C      1  0.4524250000000  0.5376200000000  0.5577840000000 1.0
C      1  0.4524250000000  0.4623800000000  0.4422160000000 1.0
C      1  0.5376200000000  0.5475750000000  0.4422160000000 1.0
C      1  0.4422160000000  0.5376200000000  0.5475750000000 1.0
C      1  0.5475750000000  0.4422160000000  0.5376200000000 1.0
C      1  0.5376200000000  0.4524250000000  0.5577840000000 1.0
C      1  0.4623800000000  0.4524250000000  0.4422160000000 1.0
C      1  0.4623800000000  0.5475750000000  0.5577840000000 1.0
C      1  0.4422160000000  0.4623800000000  0.4524250000000 1.0
C      1  0.5577840000000  0.4623800000000  0.5475750000000 1.0
C      1  0.5577840000000  0.5376200000000  0.4524250000000 1.0
C      1  0.5475750000000  0.5577840000000  0.4623800000000 1.0
C      1  0.4524250000000  0.5577840000000  0.5376200000000 1.0
C      1  0.4524250000000  0.4422160000000  0.4623800000000 1.0
C      1  0.4932470000000  0.5471480000000  0.5283050000000 1.0
C      1  0.5471480000000  0.5283050000000  0.4932470000000 1.0
C      1  0.5283050000000  0.4932470000000  0.5471480000000 1.0
C      1  0.4932470000000  0.4528520000000  0.4716950000000 1.0
C      1  0.5067530000000  0.5471480000000  0.4716950000000 1.0
C      1  0.5067530000000  0.4528520000000  0.5283050000000 1.0
C      1  0.5471480000000  0.4716950000000  0.5067530000000 1.0
C      1  0.4528520000000  0.5283050000000  0.5067530000000 1.0
C      1  0.4528520000000  0.4716950000000  0.4932470000000 1.0
C      1  0.5283050000000  0.5067530000000  0.4528520000000 1.0
C      1  0.4716950000000  0.4932470000000  0.4528520000000 1.0
C      1  0.4716950000000  0.5067530000000  0.5471480000000 1.0
C      1  0.4932470000000  0.5283050000000  0.5471480000000 1.0
C      1  0.5471480000000  0.4932470000000  0.5283050000000 1.0
C      1  0.5283050000000  0.5471480000000  0.4932470000000 1.0
C      1  0.4932470000000  0.4716950000000  0.4528520000000 1.0
C      1  0.5067530000000  0.4716950000000  0.5471480000000 1.0
C      1  0.5067530000000  0.5283050000000  0.4528520000000 1.0
C      1  0.5471480000000  0.5067530000000  0.4716950000000 1.0
C      1  0.4528520000000  0.5067530000000  0.5283050000000 1.0
C      1  0.4528520000000  0.4932470000000  0.4716950000000 1.0
C      1  0.5283050000000  0.4528520000000  0.5067530000000 1.0
C      1  0.4716950000000  0.4528520000000  0.4932470000000 1.0
C      1  0.4716950000000  0.5471480000000  0.5067530000000 1.0
C      1  0.5763340000000  0.5091920000000  0.4700320000000 1.0
C      1  0.5091920000000  0.4700320000000  0.5763340000000 1.0
C      1  0.4700320000000  0.5763340000000  0.5091920000000 1.0
C      1  0.5763340000000  0.4908080000000  0.5299680000000 1.0
C      1  0.4236660000000  0.5091920000000  0.5299680000000 1.0
C      1  0.4236660000000  0.4908080000000  0.4700320000000 1.0
C      1  0.5091920000000  0.5299680000000  0.4236660000000 1.0
C      1  0.4908080000000  0.4700320000000  0.4236660000000 1.0
C      1  0.4908080000000  0.5299680000000  0.5763340000000 1.0
C      1  0.4700320000000  0.4236660000000  0.4908080000000 1.0
C      1  0.5299680000000  0.5763340000000  0.4908080000000 1.0
C      1  0.5299680000000  0.4236660000000  0.5091920000000 1.0
C      1  0.5763340000000  0.4700320000000  0.5091920000000 1.0
C      1  0.5091920000000  0.5763340000000  0.4700320000000 1.0
C      1  0.4700320000000  0.5091920000000  0.5763340000000 1.0
C      1  0.5763340000000  0.5299680000000  0.4908080000000 1.0
C      1  0.4236660000000  0.5299680000000  0.5091920000000 1.0
C      1  0.4236660000000  0.4700320000000  0.4908080000000 1.0
C      1  0.5091920000000  0.4236660000000  0.5299680000000 1.0
C      1  0.4908080000000  0.4236660000000  0.4700320000000 1.0
C      1  0.4908080000000  0.5763340000000  0.5299680000000 1.0
C      1  0.4700320000000  0.4908080000000  0.4236660000000 1.0
C      1  0.5299680000000  0.4908080000000  0.5763340000000 1.0
C      1  0.5299680000000  0.5091920000000  0.4236660000000 1.0
C      1  0.4361720000000  0.5025130000000  0.5472630000000 1.0
C      1  0.5025130000000  0.5472630000000  0.4361720000000 1.0
C      1  0.5472630000000  0.4361720000000  0.5025130000000 1.0
C      1  0.4361720000000  0.4974870000000  0.4527370000000 1.0
C      1  0.5638280000000  0.5025130000000  0.4527370000000 1.0
C      1  0.5638280000000  0.4974870000000  0.5472630000000 1.0
C      1  0.5025130000000  0.4527370000000  0.5638280000000 1.0
C      1  0.4974870000000  0.5472630000000  0.5638280000000 1.0
C      1  0.4974870000000  0.4527370000000  0.4361720000000 1.0
C      1  0.5472630000000  0.5638280000000  0.4974870000000 1.0
C      1  0.4527370000000  0.4361720000000  0.4974870000000 1.0
C      1  0.4527370000000  0.5638280000000  0.5025130000000 1.0
C      1  0.4361720000000  0.5472630000000  0.5025130000000 1.0
C      1  0.5025130000000  0.4361720000000  0.5472630000000 1.0
C      1  0.5472630000000  0.5025130000000  0.4361720000000 1.0
C      1  0.4361720000000  0.4527370000000  0.4974870000000 1.0
C      1  0.5638280000000  0.4527370000000  0.5025130000000 1.0
C      1  0.5638280000000  0.5472630000000  0.4974870000000 1.0
C      1  0.5025130000000  0.5638280000000  0.4527370000000 1.0
C      1  0.4974870000000  0.5638280000000  0.5472630000000 1.0
C      1  0.4974870000000  0.4361720000000  0.4527370000000 1.0
C      1  0.5472630000000  0.4974870000000  0.5638280000000 1.0
C      1  0.4527370000000  0.4974870000000  0.4361720000000 1.0
C      1  0.4527370000000  0.5025130000000  0.5638280000000 1.0
C      1  0.4537730000000  0.5218700000000  0.4941890000000 1.0
C      1  0.5218700000000  0.4941890000000  0.4537730000000 1.0
C      1  0.4941890000000  0.4537730000000  0.5218700000000 1.0
C      1  0.4537730000000  0.4781300000000  0.5058110000000 1.0
C      1  0.5462270000000  0.5218700000000  0.5058110000000 1.0
C      1  0.5462270000000  0.4781300000000  0.4941890000000 1.0
C      1  0.5218700000000  0.5058110000000  0.5462270000000 1.0
C      1  0.4781300000000  0.4941890000000  0.5462270000000 1.0
C      1  0.4781300000000  0.5058110000000  0.4537730000000 1.0
C      1  0.4941890000000  0.5462270000000  0.4781300000000 1.0
C      1  0.5058110000000  0.4537730000000  0.4781300000000 1.0
C      1  0.5058110000000  0.5462270000000  0.5218700000000 1.0
C      1  0.4537730000000  0.4941890000000  0.5218700000000 1.0
C      1  0.5218700000000  0.4537730000000  0.4941890000000 1.0
C      1  0.4941890000000  0.5218700000000  0.4537730000000 1.0
C      1  0.4537730000000  0.5058110000000  0.4781300000000 1.0
C      1  0.5462270000000  0.5058110000000  0.5218700000000 1.0
C      1  0.5462270000000  0.4941890000000  0.4781300000000 1.0
C      1  0.5218700000000  0.5462270000000  0.5058110000000 1.0
C      1  0.4781300000000  0.5462270000000  0.4941890000000 1.0
C      1  0.4781300000000  0.4537730000000  0.5058110000000 1.0
C      1  0.4941890000000  0.4781300000000  0.5462270000000 1.0
C      1  0.5058110000000  0.4781300000000  0.4537730000000 1.0
C      1  0.5058110000000  0.5218700000000  0.5462270000000 1.0
C      1  0.4898410000000  0.5101590000000  0.4481050000000 1.0
C      1  0.5101590000000  0.4481050000000  0.4898410000000 1.0
C      1  0.4898410000000  0.4898410000000  0.5518950000000 1.0
C      1  0.5101590000000  0.5101590000000  0.5518950000000 1.0
C      1  0.5101590000000  0.4898410000000  0.4481050000000 1.0
C      1  0.4898410000000  0.5518950000000  0.4898410000000 1.0
C      1  0.4481050000000  0.5101590000000  0.4898410000000 1.0
C      1  0.4481050000000  0.4898410000000  0.5101590000000 1.0
C      1  0.5518950000000  0.4898410000000  0.4898410000000 1.0
C      1  0.5518950000000  0.5101590000000  0.5101590000000 1.0
C      1  0.5101590000000  0.5518950000000  0.5101590000000 1.0
C      1  0.4898410000000  0.4481050000000  0.5101590000000 1.0
END
