TITL C-1379267-1329-247 -1.39816127418976e-06 1000000 -4197.85009450097 0 0 600 (Th) n - 1
REM
REM in /nfs/bkarasulu/CARBON/AIRSS/Generating-Clusters/GAP-ML-2020/Higher-Symm/Selected-Sizes/TryA-Only_Ih-Symm/Larger-Clusters/Try2-MINAMP_6A
REM
REM
REM
REM
REM
REM ./C.cell (31579ac4e95a012ec27f3239692ae8a5)
REM
REM compiler GCC version 9.2.1 20190827 (Red Hat 9.2.1-1)
REM options -cpp -mtune=generic -march=x86-64 -g -O0 -fpre-include=/usr/include/finclude/math-vector-fortran.h
REM seed -218014421 563251116 -472107577 -2004064614 2045344230 1556631143 1954916767 1810410249 645727025 -2015301141 1026905960 -923122581 220833011 -1989618988 -93184680 1751900298 -521235172 851109522 -1044214543 1876872125 494909294 294951452 -1236397162 -217306434 1492635030 -1298711250 -1228862951 133676845 -585715782 -1383875938 1606654187 -332261456 -753898991
REM
CELL 1.54180  100.00000  100.00000  100.00000   90.00000   90.00000   90.00000
LATT -1
SFAC C  
C      1  0.4556140000000  0.4681350000000  0.4619820000000 1.0
C      1  0.4681350000000  0.4619820000000  0.4556140000000 1.0
C      1  0.4619820000000  0.4556140000000  0.4681350000000 1.0
C      1  0.5443860000000  0.4681350000000  0.5380180000000 1.0
C      1  0.5443860000000  0.5318650000000  0.4619820000000 1.0
C      1  0.4556140000000  0.5318650000000  0.5380180000000 1.0
C      1  0.5318650000000  0.4619820000000  0.5443860000000 1.0
C      1  0.5318650000000  0.5380180000000  0.4556140000000 1.0
C      1  0.4681350000000  0.5380180000000  0.5443860000000 1.0
C      1  0.5380180000000  0.4556140000000  0.5318650000000 1.0
C      1  0.5380180000000  0.5443860000000  0.4681350000000 1.0
C      1  0.4619820000000  0.5443860000000  0.5318650000000 1.0
C      1  0.4556140000000  0.5318650000000  0.4619820000000 1.0
C      1  0.4681350000000  0.5380180000000  0.4556140000000 1.0
C      1  0.4619820000000  0.5443860000000  0.4681350000000 1.0
C      1  0.5443860000000  0.5318650000000  0.5380180000000 1.0
C      1  0.5443860000000  0.4681350000000  0.4619820000000 1.0
C      1  0.4556140000000  0.4681350000000  0.5380180000000 1.0
C      1  0.5318650000000  0.5380180000000  0.5443860000000 1.0
C      1  0.5318650000000  0.4619820000000  0.4556140000000 1.0
C      1  0.4681350000000  0.4619820000000  0.5443860000000 1.0
C      1  0.5380180000000  0.5443860000000  0.5318650000000 1.0
C      1  0.5380180000000  0.4556140000000  0.4681350000000 1.0
C      1  0.4619820000000  0.4556140000000  0.5318650000000 1.0
C      1  0.4817000000000  0.5229940000000  0.5831870000000 1.0
C      1  0.5229940000000  0.5831870000000  0.4817000000000 1.0
C      1  0.5831870000000  0.4817000000000  0.5229940000000 1.0
C      1  0.5183000000000  0.5229940000000  0.4168130000000 1.0
C      1  0.5183000000000  0.4770060000000  0.5831870000000 1.0
C      1  0.4817000000000  0.4770060000000  0.4168130000000 1.0
C      1  0.4770060000000  0.5831870000000  0.5183000000000 1.0
C      1  0.4770060000000  0.4168130000000  0.4817000000000 1.0
C      1  0.5229940000000  0.4168130000000  0.5183000000000 1.0
C      1  0.4168130000000  0.4817000000000  0.4770060000000 1.0
C      1  0.4168130000000  0.5183000000000  0.5229940000000 1.0
C      1  0.5831870000000  0.5183000000000  0.4770060000000 1.0
C      1  0.4817000000000  0.4770060000000  0.5831870000000 1.0
C      1  0.5229940000000  0.4168130000000  0.4817000000000 1.0
C      1  0.5831870000000  0.5183000000000  0.5229940000000 1.0
C      1  0.5183000000000  0.4770060000000  0.4168130000000 1.0
C      1  0.5183000000000  0.5229940000000  0.5831870000000 1.0
C      1  0.4817000000000  0.5229940000000  0.4168130000000 1.0
C      1  0.4770060000000  0.4168130000000  0.5183000000000 1.0
C      1  0.4770060000000  0.5831870000000  0.4817000000000 1.0
C      1  0.5229940000000  0.5831870000000  0.5183000000000 1.0
C      1  0.4168130000000  0.5183000000000  0.4770060000000 1.0
C      1  0.4168130000000  0.4817000000000  0.5229940000000 1.0
C      1  0.5831870000000  0.4817000000000  0.4770060000000 1.0
C      1  0.5064860000000  0.5688850000000  0.5735260000000 1.0
C      1  0.5688850000000  0.5735260000000  0.5064860000000 1.0
C      1  0.5735260000000  0.5064860000000  0.5688850000000 1.0
C      1  0.4935140000000  0.5688850000000  0.4264740000000 1.0
C      1  0.4935140000000  0.4311150000000  0.5735260000000 1.0
C      1  0.5064860000000  0.4311150000000  0.4264740000000 1.0
C      1  0.4311150000000  0.5735260000000  0.4935140000000 1.0
C      1  0.4311150000000  0.4264740000000  0.5064860000000 1.0
C      1  0.5688850000000  0.4264740000000  0.4935140000000 1.0
C      1  0.4264740000000  0.5064860000000  0.4311150000000 1.0
C      1  0.4264740000000  0.4935140000000  0.5688850000000 1.0
C      1  0.5735260000000  0.4935140000000  0.4311150000000 1.0
C      1  0.5064860000000  0.4311150000000  0.5735260000000 1.0
C      1  0.5688850000000  0.4264740000000  0.5064860000000 1.0
C      1  0.5735260000000  0.4935140000000  0.5688850000000 1.0
C      1  0.4935140000000  0.4311150000000  0.4264740000000 1.0
C      1  0.4935140000000  0.5688850000000  0.5735260000000 1.0
C      1  0.5064860000000  0.5688850000000  0.4264740000000 1.0
C      1  0.4311150000000  0.4264740000000  0.4935140000000 1.0
C      1  0.4311150000000  0.5735260000000  0.5064860000000 1.0
C      1  0.5688850000000  0.5735260000000  0.4935140000000 1.0
C      1  0.4264740000000  0.4935140000000  0.4311150000000 1.0
C      1  0.4264740000000  0.5064860000000  0.5688850000000 1.0
C      1  0.5735260000000  0.5064860000000  0.4311150000000 1.0
C      1  0.5586220000000  0.4290550000000  0.5150630000000 1.0
C      1  0.4290550000000  0.5150630000000  0.5586220000000 1.0
C      1  0.5150630000000  0.5586220000000  0.4290550000000 1.0
C      1  0.4413780000000  0.4290550000000  0.4849370000000 1.0
C      1  0.4413780000000  0.5709450000000  0.5150630000000 1.0
C      1  0.5586220000000  0.5709450000000  0.4849370000000 1.0
C      1  0.5709450000000  0.5150630000000  0.4413780000000 1.0
C      1  0.5709450000000  0.4849370000000  0.5586220000000 1.0
C      1  0.4290550000000  0.4849370000000  0.4413780000000 1.0
C      1  0.4849370000000  0.5586220000000  0.5709450000000 1.0
C      1  0.4849370000000  0.4413780000000  0.4290550000000 1.0
C      1  0.5150630000000  0.4413780000000  0.5709450000000 1.0
C      1  0.5586220000000  0.5709450000000  0.5150630000000 1.0
C      1  0.4290550000000  0.4849370000000  0.5586220000000 1.0
C      1  0.5150630000000  0.4413780000000  0.4290550000000 1.0
C      1  0.4413780000000  0.5709450000000  0.4849370000000 1.0
C      1  0.4413780000000  0.4290550000000  0.5150630000000 1.0
C      1  0.5586220000000  0.4290550000000  0.4849370000000 1.0
C      1  0.5709450000000  0.4849370000000  0.4413780000000 1.0
C      1  0.5709450000000  0.5150630000000  0.5586220000000 1.0
C      1  0.4290550000000  0.5150630000000  0.4413780000000 1.0
C      1  0.4849370000000  0.4413780000000  0.5709450000000 1.0
C      1  0.4849370000000  0.5586220000000  0.4290550000000 1.0
C      1  0.5150630000000  0.5586220000000  0.5709450000000 1.0
C      1  0.5813740000000  0.5196470000000  0.4925750000000 1.0
C      1  0.5196470000000  0.4925750000000  0.5813740000000 1.0
C      1  0.4925750000000  0.5813740000000  0.5196470000000 1.0
C      1  0.4186260000000  0.5196470000000  0.5074250000000 1.0
C      1  0.4186260000000  0.4803530000000  0.4925750000000 1.0
C      1  0.5813740000000  0.4803530000000  0.5074250000000 1.0
C      1  0.4803530000000  0.4925750000000  0.4186260000000 1.0
C      1  0.4803530000000  0.5074250000000  0.5813740000000 1.0
C      1  0.5196470000000  0.5074250000000  0.4186260000000 1.0
C      1  0.5074250000000  0.5813740000000  0.4803530000000 1.0
C      1  0.5074250000000  0.4186260000000  0.5196470000000 1.0
C      1  0.4925750000000  0.4186260000000  0.4803530000000 1.0
C      1  0.5813740000000  0.4803530000000  0.4925750000000 1.0
C      1  0.5196470000000  0.5074250000000  0.5813740000000 1.0
C      1  0.4925750000000  0.4186260000000  0.5196470000000 1.0
C      1  0.4186260000000  0.4803530000000  0.5074250000000 1.0
C      1  0.4186260000000  0.5196470000000  0.4925750000000 1.0
C      1  0.5813740000000  0.5196470000000  0.5074250000000 1.0
C      1  0.4803530000000  0.5074250000000  0.4186260000000 1.0
C      1  0.4803530000000  0.4925750000000  0.5813740000000 1.0
C      1  0.5196470000000  0.4925750000000  0.4186260000000 1.0
C      1  0.5074250000000  0.4186260000000  0.4803530000000 1.0
C      1  0.5074250000000  0.5813740000000  0.5196470000000 1.0
C      1  0.4925750000000  0.5813740000000  0.4803530000000 1.0
C      1  0.5494930000000  0.4577800000000  0.4920090000000 1.0
C      1  0.4577800000000  0.4920090000000  0.5494930000000 1.0
C      1  0.4920090000000  0.5494930000000  0.4577800000000 1.0
C      1  0.4505070000000  0.4577800000000  0.5079910000000 1.0
C      1  0.4505070000000  0.5422200000000  0.4920090000000 1.0
C      1  0.5494930000000  0.5422200000000  0.5079910000000 1.0
C      1  0.5422200000000  0.4920090000000  0.4505070000000 1.0
C      1  0.5422200000000  0.5079910000000  0.5494930000000 1.0
C      1  0.4577800000000  0.5079910000000  0.4505070000000 1.0
C      1  0.5079910000000  0.5494930000000  0.5422200000000 1.0
C      1  0.5079910000000  0.4505070000000  0.4577800000000 1.0
C      1  0.4920090000000  0.4505070000000  0.5422200000000 1.0
C      1  0.5494930000000  0.5422200000000  0.4920090000000 1.0
C      1  0.4577800000000  0.5079910000000  0.5494930000000 1.0
C      1  0.4920090000000  0.4505070000000  0.4577800000000 1.0
C      1  0.4505070000000  0.5422200000000  0.5079910000000 1.0
C      1  0.4505070000000  0.4577800000000  0.4920090000000 1.0
C      1  0.5494930000000  0.4577800000000  0.5079910000000 1.0
C      1  0.5422200000000  0.5079910000000  0.4505070000000 1.0
C      1  0.5422200000000  0.4920090000000  0.5494930000000 1.0
C      1  0.4577800000000  0.4920090000000  0.4505070000000 1.0
C      1  0.5079910000000  0.4505070000000  0.5422200000000 1.0
C      1  0.5079910000000  0.5494930000000  0.4577800000000 1.0
C      1  0.4920090000000  0.5494930000000  0.5422200000000 1.0
C      1  0.5595210000000  0.5408700000000  0.4420150000000 1.0
C      1  0.5408700000000  0.4420150000000  0.5595210000000 1.0
C      1  0.4420150000000  0.5595210000000  0.5408700000000 1.0
C      1  0.4404790000000  0.5408700000000  0.5579850000000 1.0
C      1  0.4404790000000  0.4591300000000  0.4420150000000 1.0
C      1  0.5595210000000  0.4591300000000  0.5579850000000 1.0
C      1  0.4591300000000  0.4420150000000  0.4404790000000 1.0
C      1  0.4591300000000  0.5579850000000  0.5595210000000 1.0
C      1  0.5408700000000  0.5579850000000  0.4404790000000 1.0
C      1  0.5579850000000  0.5595210000000  0.4591300000000 1.0
C      1  0.5579850000000  0.4404790000000  0.5408700000000 1.0
C      1  0.4420150000000  0.4404790000000  0.4591300000000 1.0
C      1  0.5595210000000  0.4591300000000  0.4420150000000 1.0
C      1  0.5408700000000  0.5579850000000  0.5595210000000 1.0
C      1  0.4420150000000  0.4404790000000  0.5408700000000 1.0
C      1  0.4404790000000  0.4591300000000  0.5579850000000 1.0
C      1  0.4404790000000  0.5408700000000  0.4420150000000 1.0
C      1  0.5595210000000  0.5408700000000  0.5579850000000 1.0
C      1  0.4591300000000  0.5579850000000  0.4404790000000 1.0
C      1  0.4591300000000  0.4420150000000  0.5595210000000 1.0
C      1  0.5408700000000  0.4420150000000  0.4404790000000 1.0
C      1  0.5579850000000  0.4404790000000  0.4591300000000 1.0
C      1  0.5579850000000  0.5595210000000  0.5408700000000 1.0
C      1  0.4420150000000  0.5595210000000  0.4591300000000 1.0
C      1  0.5714040000000  0.4593260000000  0.4651810000000 1.0
C      1  0.4593260000000  0.4651810000000  0.5714040000000 1.0
C      1  0.4651810000000  0.5714040000000  0.4593260000000 1.0
C      1  0.4285960000000  0.4593260000000  0.5348190000000 1.0
C      1  0.4285960000000  0.5406740000000  0.4651810000000 1.0
C      1  0.5714040000000  0.5406740000000  0.5348190000000 1.0
C      1  0.5406740000000  0.4651810000000  0.4285960000000 1.0
C      1  0.5406740000000  0.5348190000000  0.5714040000000 1.0
C      1  0.4593260000000  0.5348190000000  0.4285960000000 1.0
C      1  0.5348190000000  0.5714040000000  0.5406740000000 1.0
C      1  0.5348190000000  0.4285960000000  0.4593260000000 1.0
C      1  0.4651810000000  0.4285960000000  0.5406740000000 1.0
C      1  0.5714040000000  0.5406740000000  0.4651810000000 1.0
C      1  0.4593260000000  0.5348190000000  0.5714040000000 1.0
C      1  0.4651810000000  0.4285960000000  0.4593260000000 1.0
C      1  0.4285960000000  0.5406740000000  0.5348190000000 1.0
C      1  0.4285960000000  0.4593260000000  0.4651810000000 1.0
C      1  0.5714040000000  0.4593260000000  0.5348190000000 1.0
C      1  0.5406740000000  0.5348190000000  0.4285960000000 1.0
C      1  0.5406740000000  0.4651810000000  0.5714040000000 1.0
C      1  0.4593260000000  0.4651810000000  0.4285960000000 1.0
C      1  0.5348190000000  0.4285960000000  0.5406740000000 1.0
C      1  0.5348190000000  0.5714040000000  0.4593260000000 1.0
C      1  0.4651810000000  0.5714040000000  0.5406740000000 1.0
C      1  0.4574770000000  0.4745750000000  0.5257550000000 1.0
C      1  0.4745750000000  0.5257550000000  0.4574770000000 1.0
C      1  0.5257550000000  0.4574770000000  0.4745750000000 1.0
C      1  0.5425230000000  0.4745750000000  0.4742450000000 1.0
C      1  0.5425230000000  0.5254250000000  0.5257550000000 1.0
C      1  0.4574770000000  0.5254250000000  0.4742450000000 1.0
C      1  0.5254250000000  0.5257550000000  0.5425230000000 1.0
C      1  0.5254250000000  0.4742450000000  0.4574770000000 1.0
C      1  0.4745750000000  0.4742450000000  0.5425230000000 1.0
C      1  0.4742450000000  0.4574770000000  0.5254250000000 1.0
C      1  0.4742450000000  0.5425230000000  0.4745750000000 1.0
C      1  0.5257550000000  0.5425230000000  0.5254250000000 1.0
C      1  0.4574770000000  0.5254250000000  0.5257550000000 1.0
C      1  0.4745750000000  0.4742450000000  0.4574770000000 1.0
C      1  0.5257550000000  0.5425230000000  0.4745750000000 1.0
C      1  0.5425230000000  0.5254250000000  0.4742450000000 1.0
C      1  0.5425230000000  0.4745750000000  0.5257550000000 1.0
C      1  0.4574770000000  0.4745750000000  0.4742450000000 1.0
C      1  0.5254250000000  0.4742450000000  0.5425230000000 1.0
C      1  0.5254250000000  0.5257550000000  0.4574770000000 1.0
C      1  0.4745750000000  0.5257550000000  0.5425230000000 1.0
C      1  0.4742450000000  0.5425230000000  0.5254250000000 1.0
C      1  0.4742450000000  0.4574770000000  0.4745750000000 1.0
C      1  0.5257550000000  0.4574770000000  0.5254250000000 1.0
C      1  0.5071440000000  0.4557120000000  0.5151950000000 1.0
C      1  0.4557120000000  0.5151950000000  0.5071440000000 1.0
C      1  0.5151950000000  0.5071440000000  0.4557120000000 1.0
C      1  0.4928560000000  0.4557120000000  0.4848050000000 1.0
C      1  0.4928560000000  0.5442880000000  0.5151950000000 1.0
C      1  0.5071440000000  0.5442880000000  0.4848050000000 1.0
C      1  0.5442880000000  0.5151950000000  0.4928560000000 1.0
C      1  0.5442880000000  0.4848050000000  0.5071440000000 1.0
C      1  0.4557120000000  0.4848050000000  0.4928560000000 1.0
C      1  0.4848050000000  0.5071440000000  0.5442880000000 1.0
C      1  0.4848050000000  0.4928560000000  0.4557120000000 1.0
C      1  0.5151950000000  0.4928560000000  0.5442880000000 1.0
C      1  0.5071440000000  0.5442880000000  0.5151950000000 1.0
C      1  0.4557120000000  0.4848050000000  0.5071440000000 1.0
C      1  0.5151950000000  0.4928560000000  0.4557120000000 1.0
C      1  0.4928560000000  0.5442880000000  0.4848050000000 1.0
C      1  0.4928560000000  0.4557120000000  0.5151950000000 1.0
C      1  0.5071440000000  0.4557120000000  0.4848050000000 1.0
C      1  0.5442880000000  0.4848050000000  0.4928560000000 1.0
C      1  0.5442880000000  0.5151950000000  0.5071440000000 1.0
C      1  0.4557120000000  0.5151950000000  0.4928560000000 1.0
C      1  0.4848050000000  0.4928560000000  0.5442880000000 1.0
C      1  0.4848050000000  0.5071440000000  0.4557120000000 1.0
C      1  0.5151950000000  0.5071440000000  0.5442880000000 1.0
C      1  0.4473340000000  0.5195840000000  0.4548350000000 1.0
C      1  0.5195840000000  0.4548350000000  0.4473340000000 1.0
C      1  0.4548350000000  0.4473340000000  0.5195840000000 1.0
C      1  0.5526660000000  0.5195840000000  0.5451650000000 1.0
C      1  0.5526660000000  0.4804160000000  0.4548350000000 1.0
C      1  0.4473340000000  0.4804160000000  0.5451650000000 1.0
C      1  0.4804160000000  0.4548350000000  0.5526660000000 1.0
C      1  0.4804160000000  0.5451650000000  0.4473340000000 1.0
C      1  0.5195840000000  0.5451650000000  0.5526660000000 1.0
C      1  0.5451650000000  0.4473340000000  0.4804160000000 1.0
C      1  0.5451650000000  0.5526660000000  0.5195840000000 1.0
C      1  0.4548350000000  0.5526660000000  0.4804160000000 1.0
C      1  0.4473340000000  0.4804160000000  0.4548350000000 1.0
C      1  0.5195840000000  0.5451650000000  0.4473340000000 1.0
C      1  0.4548350000000  0.5526660000000  0.5195840000000 1.0
C      1  0.5526660000000  0.4804160000000  0.5451650000000 1.0
C      1  0.5526660000000  0.5195840000000  0.4548350000000 1.0
C      1  0.4473340000000  0.5195840000000  0.5451650000000 1.0
C      1  0.4804160000000  0.5451650000000  0.5526660000000 1.0
C      1  0.4804160000000  0.4548350000000  0.4473340000000 1.0
C      1  0.5195840000000  0.4548350000000  0.5526660000000 1.0
C      1  0.5451650000000  0.5526660000000  0.4804160000000 1.0
C      1  0.5451650000000  0.4473340000000  0.5195840000000 1.0
C      1  0.4548350000000  0.4473340000000  0.4804160000000 1.0
C      1  0.5633270000000  0.4606120000000  0.4879300000000 1.0
C      1  0.4606120000000  0.4879300000000  0.5633270000000 1.0
C      1  0.4879300000000  0.5633270000000  0.4606120000000 1.0
C      1  0.4366730000000  0.4606120000000  0.5120700000000 1.0
C      1  0.4366730000000  0.5393880000000  0.4879300000000 1.0
C      1  0.5633270000000  0.5393880000000  0.5120700000000 1.0
C      1  0.5393880000000  0.4879300000000  0.4366730000000 1.0
C      1  0.5393880000000  0.5120700000000  0.5633270000000 1.0
C      1  0.4606120000000  0.5120700000000  0.4366730000000 1.0
C      1  0.5120700000000  0.5633270000000  0.5393880000000 1.0
C      1  0.5120700000000  0.4366730000000  0.4606120000000 1.0
C      1  0.4879300000000  0.4366730000000  0.5393880000000 1.0
C      1  0.5633270000000  0.5393880000000  0.4879300000000 1.0
C      1  0.4606120000000  0.5120700000000  0.5633270000000 1.0
C      1  0.4879300000000  0.4366730000000  0.4606120000000 1.0
C      1  0.4366730000000  0.5393880000000  0.5120700000000 1.0
C      1  0.4366730000000  0.4606120000000  0.4879300000000 1.0
C      1  0.5633270000000  0.4606120000000  0.5120700000000 1.0
C      1  0.5393880000000  0.5120700000000  0.4366730000000 1.0
C      1  0.5393880000000  0.4879300000000  0.5633270000000 1.0
C      1  0.4606120000000  0.4879300000000  0.4366730000000 1.0
C      1  0.5120700000000  0.4366730000000  0.5393880000000 1.0
C      1  0.5120700000000  0.5633270000000  0.4606120000000 1.0
C      1  0.4879300000000  0.5633270000000  0.5393880000000 1.0
C      1  0.4879430000000  0.4593120000000  0.5297770000000 1.0
C      1  0.4593120000000  0.5297770000000  0.4879430000000 1.0
C      1  0.5297770000000  0.4879430000000  0.4593120000000 1.0
C      1  0.5120570000000  0.4593120000000  0.4702230000000 1.0
C      1  0.5120570000000  0.5406880000000  0.5297770000000 1.0
C      1  0.4879430000000  0.5406880000000  0.4702230000000 1.0
C      1  0.5406880000000  0.5297770000000  0.5120570000000 1.0
C      1  0.5406880000000  0.4702230000000  0.4879430000000 1.0
C      1  0.4593120000000  0.4702230000000  0.5120570000000 1.0
C      1  0.4702230000000  0.4879430000000  0.5406880000000 1.0
C      1  0.4702230000000  0.5120570000000  0.4593120000000 1.0
C      1  0.5297770000000  0.5120570000000  0.5406880000000 1.0
C      1  0.4879430000000  0.5406880000000  0.5297770000000 1.0
C      1  0.4593120000000  0.4702230000000  0.4879430000000 1.0
C      1  0.5297770000000  0.5120570000000  0.4593120000000 1.0
C      1  0.5120570000000  0.5406880000000  0.4702230000000 1.0
C      1  0.5120570000000  0.4593120000000  0.5297770000000 1.0
C      1  0.4879430000000  0.4593120000000  0.4702230000000 1.0
C      1  0.5406880000000  0.4702230000000  0.5120570000000 1.0
C      1  0.5406880000000  0.5297770000000  0.4879430000000 1.0
C      1  0.4593120000000  0.5297770000000  0.5120570000000 1.0
C      1  0.4702230000000  0.5120570000000  0.5406880000000 1.0
C      1  0.4702230000000  0.4879430000000  0.4593120000000 1.0
C      1  0.5297770000000  0.4879430000000  0.5406880000000 1.0
C      1  0.5153810000000  0.5350550000000  0.5067610000000 1.0
C      1  0.5350550000000  0.5067610000000  0.5153810000000 1.0
C      1  0.5067610000000  0.5153810000000  0.5350550000000 1.0
C      1  0.4846190000000  0.5350550000000  0.4932390000000 1.0
C      1  0.4846190000000  0.4649450000000  0.5067610000000 1.0
C      1  0.5153810000000  0.4649450000000  0.4932390000000 1.0
C      1  0.4649450000000  0.5067610000000  0.4846190000000 1.0
C      1  0.4649450000000  0.4932390000000  0.5153810000000 1.0
C      1  0.5350550000000  0.4932390000000  0.4846190000000 1.0
C      1  0.4932390000000  0.5153810000000  0.4649450000000 1.0
C      1  0.4932390000000  0.4846190000000  0.5350550000000 1.0
C      1  0.5067610000000  0.4846190000000  0.4649450000000 1.0
C      1  0.5153810000000  0.4649450000000  0.5067610000000 1.0
C      1  0.5350550000000  0.4932390000000  0.5153810000000 1.0
C      1  0.5067610000000  0.4846190000000  0.5350550000000 1.0
C      1  0.4846190000000  0.4649450000000  0.4932390000000 1.0
C      1  0.4846190000000  0.5350550000000  0.5067610000000 1.0
C      1  0.5153810000000  0.5350550000000  0.4932390000000 1.0
C      1  0.4649450000000  0.4932390000000  0.4846190000000 1.0
C      1  0.4649450000000  0.5067610000000  0.5153810000000 1.0
C      1  0.5350550000000  0.5067610000000  0.4846190000000 1.0
C      1  0.4932390000000  0.4846190000000  0.4649450000000 1.0
C      1  0.4932390000000  0.5153810000000  0.5350550000000 1.0
C      1  0.5067610000000  0.5153810000000  0.4649450000000 1.0
C      1  0.5741220000000  0.5264550000000  0.5322460000000 1.0
C      1  0.5264550000000  0.5322460000000  0.5741220000000 1.0
C      1  0.5322460000000  0.5741220000000  0.5264550000000 1.0
C      1  0.4258780000000  0.5264550000000  0.4677540000000 1.0
C      1  0.4258780000000  0.4735450000000  0.5322460000000 1.0
C      1  0.5741220000000  0.4735450000000  0.4677540000000 1.0
C      1  0.4735450000000  0.5322460000000  0.4258780000000 1.0
C      1  0.4735450000000  0.4677540000000  0.5741220000000 1.0
C      1  0.5264550000000  0.4677540000000  0.4258780000000 1.0
C      1  0.4677540000000  0.5741220000000  0.4735450000000 1.0
C      1  0.4677540000000  0.4258780000000  0.5264550000000 1.0
C      1  0.5322460000000  0.4258780000000  0.4735450000000 1.0
C      1  0.5741220000000  0.4735450000000  0.5322460000000 1.0
C      1  0.5264550000000  0.4677540000000  0.5741220000000 1.0
C      1  0.5322460000000  0.4258780000000  0.5264550000000 1.0
C      1  0.4258780000000  0.4735450000000  0.4677540000000 1.0
C      1  0.4258780000000  0.5264550000000  0.5322460000000 1.0
C      1  0.5741220000000  0.5264550000000  0.4677540000000 1.0
C      1  0.4735450000000  0.4677540000000  0.4258780000000 1.0
C      1  0.4735450000000  0.5322460000000  0.5741220000000 1.0
C      1  0.5264550000000  0.5322460000000  0.4258780000000 1.0
C      1  0.4677540000000  0.4258780000000  0.4735450000000 1.0
C      1  0.4677540000000  0.5741220000000  0.5264550000000 1.0
C      1  0.5322460000000  0.5741220000000  0.4735450000000 1.0
C      1  0.4647310000000  0.5133660000000  0.4725020000000 1.0
C      1  0.5133660000000  0.4725020000000  0.4647310000000 1.0
C      1  0.4725020000000  0.4647310000000  0.5133660000000 1.0
C      1  0.5352690000000  0.5133660000000  0.5274980000000 1.0
C      1  0.5352690000000  0.4866340000000  0.4725020000000 1.0
C      1  0.4647310000000  0.4866340000000  0.5274980000000 1.0
C      1  0.4866340000000  0.4725020000000  0.5352690000000 1.0
C      1  0.4866340000000  0.5274980000000  0.4647310000000 1.0
C      1  0.5133660000000  0.5274980000000  0.5352690000000 1.0
C      1  0.5274980000000  0.4647310000000  0.4866340000000 1.0
C      1  0.5274980000000  0.5352690000000  0.5133660000000 1.0
C      1  0.4725020000000  0.5352690000000  0.4866340000000 1.0
C      1  0.4647310000000  0.4866340000000  0.4725020000000 1.0
C      1  0.5133660000000  0.5274980000000  0.4647310000000 1.0
C      1  0.4725020000000  0.5352690000000  0.5133660000000 1.0
C      1  0.5352690000000  0.4866340000000  0.5274980000000 1.0
C      1  0.5352690000000  0.5133660000000  0.4725020000000 1.0
C      1  0.4647310000000  0.5133660000000  0.5274980000000 1.0
C      1  0.4866340000000  0.5274980000000  0.5352690000000 1.0
C      1  0.4866340000000  0.4725020000000  0.4647310000000 1.0
C      1  0.5133660000000  0.4725020000000  0.5352690000000 1.0
C      1  0.5274980000000  0.5352690000000  0.4866340000000 1.0
C      1  0.5274980000000  0.4647310000000  0.5133660000000 1.0
C      1  0.4725020000000  0.4647310000000  0.4866340000000 1.0
C      1  0.4409250000000  0.5252370000000  0.5583450000000 1.0
C      1  0.5252370000000  0.5583450000000  0.4409250000000 1.0
C      1  0.5583450000000  0.4409250000000  0.5252370000000 1.0
C      1  0.5590750000000  0.5252370000000  0.4416550000000 1.0
C      1  0.5590750000000  0.4747630000000  0.5583450000000 1.0
C      1  0.4409250000000  0.4747630000000  0.4416550000000 1.0
C      1  0.4747630000000  0.5583450000000  0.5590750000000 1.0
C      1  0.4747630000000  0.4416550000000  0.4409250000000 1.0
C      1  0.5252370000000  0.4416550000000  0.5590750000000 1.0
C      1  0.4416550000000  0.4409250000000  0.4747630000000 1.0
C      1  0.4416550000000  0.5590750000000  0.5252370000000 1.0
C      1  0.5583450000000  0.5590750000000  0.4747630000000 1.0
C      1  0.4409250000000  0.4747630000000  0.5583450000000 1.0
C      1  0.5252370000000  0.4416550000000  0.4409250000000 1.0
C      1  0.5583450000000  0.5590750000000  0.5252370000000 1.0
C      1  0.5590750000000  0.4747630000000  0.4416550000000 1.0
C      1  0.5590750000000  0.5252370000000  0.5583450000000 1.0
C      1  0.4409250000000  0.5252370000000  0.4416550000000 1.0
C      1  0.4747630000000  0.4416550000000  0.5590750000000 1.0
C      1  0.4747630000000  0.5583450000000  0.4409250000000 1.0
C      1  0.5252370000000  0.5583450000000  0.5590750000000 1.0
C      1  0.4416550000000  0.5590750000000  0.4747630000000 1.0
C      1  0.4416550000000  0.4409250000000  0.5252370000000 1.0
C      1  0.5583450000000  0.4409250000000  0.4747630000000 1.0
C      1  0.4679200000000  0.5849180000000  0.5069680000000 1.0
C      1  0.5849180000000  0.5069680000000  0.4679200000000 1.0
C      1  0.5069680000000  0.4679200000000  0.5849180000000 1.0
C      1  0.5320800000000  0.5849180000000  0.4930320000000 1.0
C      1  0.5320800000000  0.4150820000000  0.5069680000000 1.0
C      1  0.4679200000000  0.4150820000000  0.4930320000000 1.0
C      1  0.4150820000000  0.5069680000000  0.5320800000000 1.0
C      1  0.4150820000000  0.4930320000000  0.4679200000000 1.0
C      1  0.5849180000000  0.4930320000000  0.5320800000000 1.0
C      1  0.4930320000000  0.4679200000000  0.4150820000000 1.0
C      1  0.4930320000000  0.5320800000000  0.5849180000000 1.0
C      1  0.5069680000000  0.5320800000000  0.4150820000000 1.0
C      1  0.4679200000000  0.4150820000000  0.5069680000000 1.0
C      1  0.5849180000000  0.4930320000000  0.4679200000000 1.0
C      1  0.5069680000000  0.5320800000000  0.5849180000000 1.0
C      1  0.5320800000000  0.4150820000000  0.4930320000000 1.0
C      1  0.5320800000000  0.5849180000000  0.5069680000000 1.0
C      1  0.4679200000000  0.5849180000000  0.4930320000000 1.0
C      1  0.4150820000000  0.4930320000000  0.5320800000000 1.0
C      1  0.4150820000000  0.5069680000000  0.4679200000000 1.0
C      1  0.5849180000000  0.5069680000000  0.5320800000000 1.0
C      1  0.4930320000000  0.5320800000000  0.4150820000000 1.0
C      1  0.4930320000000  0.4679200000000  0.5849180000000 1.0
C      1  0.5069680000000  0.4679200000000  0.4150820000000 1.0
C      1  0.5582670000000  0.5136370000000  0.5117590000000 1.0
C      1  0.5136370000000  0.5117590000000  0.5582670000000 1.0
C      1  0.5117590000000  0.5582670000000  0.5136370000000 1.0
C      1  0.4417330000000  0.5136370000000  0.4882410000000 1.0
C      1  0.4417330000000  0.4863630000000  0.5117590000000 1.0
C      1  0.5582670000000  0.4863630000000  0.4882410000000 1.0
C      1  0.4863630000000  0.5117590000000  0.4417330000000 1.0
C      1  0.4863630000000  0.4882410000000  0.5582670000000 1.0
C      1  0.5136370000000  0.4882410000000  0.4417330000000 1.0
C      1  0.4882410000000  0.5582670000000  0.4863630000000 1.0
C      1  0.4882410000000  0.4417330000000  0.5136370000000 1.0
C      1  0.5117590000000  0.4417330000000  0.4863630000000 1.0
C      1  0.5582670000000  0.4863630000000  0.5117590000000 1.0
C      1  0.5136370000000  0.4882410000000  0.5582670000000 1.0
C      1  0.5117590000000  0.4417330000000  0.5136370000000 1.0
C      1  0.4417330000000  0.4863630000000  0.4882410000000 1.0
C      1  0.4417330000000  0.5136370000000  0.5117590000000 1.0
C      1  0.5582670000000  0.5136370000000  0.4882410000000 1.0
C      1  0.4863630000000  0.4882410000000  0.4417330000000 1.0
C      1  0.4863630000000  0.5117590000000  0.5582670000000 1.0
C      1  0.5136370000000  0.5117590000000  0.4417330000000 1.0
C      1  0.4882410000000  0.4417330000000  0.4863630000000 1.0
C      1  0.4882410000000  0.5582670000000  0.5136370000000 1.0
C      1  0.5117590000000  0.5582670000000  0.4863630000000 1.0
C      1  0.4922970000000  0.5443930000000  0.4261160000000 1.0
C      1  0.5443930000000  0.4261160000000  0.4922970000000 1.0
C      1  0.4261160000000  0.4922970000000  0.5443930000000 1.0
C      1  0.5077030000000  0.5443930000000  0.5738840000000 1.0
C      1  0.5077030000000  0.4556070000000  0.4261160000000 1.0
C      1  0.4922970000000  0.4556070000000  0.5738840000000 1.0
C      1  0.4556070000000  0.4261160000000  0.5077030000000 1.0
C      1  0.4556070000000  0.5738840000000  0.4922970000000 1.0
C      1  0.5443930000000  0.5738840000000  0.5077030000000 1.0
C      1  0.5738840000000  0.4922970000000  0.4556070000000 1.0
C      1  0.5738840000000  0.5077030000000  0.5443930000000 1.0
C      1  0.4261160000000  0.5077030000000  0.4556070000000 1.0
C      1  0.4922970000000  0.4556070000000  0.4261160000000 1.0
C      1  0.5443930000000  0.5738840000000  0.4922970000000 1.0
C      1  0.4261160000000  0.5077030000000  0.5443930000000 1.0
C      1  0.5077030000000  0.4556070000000  0.5738840000000 1.0
C      1  0.5077030000000  0.5443930000000  0.4261160000000 1.0
C      1  0.4922970000000  0.5443930000000  0.5738840000000 1.0
C      1  0.4556070000000  0.5738840000000  0.5077030000000 1.0
C      1  0.4556070000000  0.4261160000000  0.4922970000000 1.0
C      1  0.5443930000000  0.4261160000000  0.5077030000000 1.0
C      1  0.5738840000000  0.5077030000000  0.4556070000000 1.0
C      1  0.5738840000000  0.4922970000000  0.5443930000000 1.0
C      1  0.4261160000000  0.4922970000000  0.4556070000000 1.0
C      1  0.4744260000000  0.4923500000000  0.4331100000000 1.0
C      1  0.4923500000000  0.4331100000000  0.4744260000000 1.0
C      1  0.4331100000000  0.4744260000000  0.4923500000000 1.0
C      1  0.5255740000000  0.4923500000000  0.5668900000000 1.0
C      1  0.5255740000000  0.5076500000000  0.4331100000000 1.0
C      1  0.4744260000000  0.5076500000000  0.5668900000000 1.0
C      1  0.5076500000000  0.4331100000000  0.5255740000000 1.0
C      1  0.5076500000000  0.5668900000000  0.4744260000000 1.0
C      1  0.4923500000000  0.5668900000000  0.5255740000000 1.0
C      1  0.5668900000000  0.4744260000000  0.5076500000000 1.0
C      1  0.5668900000000  0.5255740000000  0.4923500000000 1.0
C      1  0.4331100000000  0.5255740000000  0.5076500000000 1.0
C      1  0.4744260000000  0.5076500000000  0.4331100000000 1.0
C      1  0.4923500000000  0.5668900000000  0.4744260000000 1.0
C      1  0.4331100000000  0.5255740000000  0.4923500000000 1.0
C      1  0.5255740000000  0.5076500000000  0.5668900000000 1.0
C      1  0.5255740000000  0.4923500000000  0.4331100000000 1.0
C      1  0.4744260000000  0.4923500000000  0.5668900000000 1.0
C      1  0.5076500000000  0.5668900000000  0.5255740000000 1.0
C      1  0.5076500000000  0.4331100000000  0.4744260000000 1.0
C      1  0.4923500000000  0.4331100000000  0.5255740000000 1.0
C      1  0.5668900000000  0.5255740000000  0.5076500000000 1.0
C      1  0.5668900000000  0.4744260000000  0.4923500000000 1.0
C      1  0.4331100000000  0.4744260000000  0.5076500000000 1.0
C      1  0.5672960000000  0.4528840000000  0.4768960000000 1.0
C      1  0.4528840000000  0.4768960000000  0.5672960000000 1.0
C      1  0.4768960000000  0.5672960000000  0.4528840000000 1.0
C      1  0.4327040000000  0.4528840000000  0.5231040000000 1.0
C      1  0.4327040000000  0.5471160000000  0.4768960000000 1.0
C      1  0.5672960000000  0.5471160000000  0.5231040000000 1.0
C      1  0.5471160000000  0.4768960000000  0.4327040000000 1.0
C      1  0.5471160000000  0.5231040000000  0.5672960000000 1.0
C      1  0.4528840000000  0.5231040000000  0.4327040000000 1.0
C      1  0.5231040000000  0.5672960000000  0.5471160000000 1.0
C      1  0.5231040000000  0.4327040000000  0.4528840000000 1.0
C      1  0.4768960000000  0.4327040000000  0.5471160000000 1.0
C      1  0.5672960000000  0.5471160000000  0.4768960000000 1.0
C      1  0.4528840000000  0.5231040000000  0.5672960000000 1.0
C      1  0.4768960000000  0.4327040000000  0.4528840000000 1.0
C      1  0.4327040000000  0.5471160000000  0.5231040000000 1.0
C      1  0.4327040000000  0.4528840000000  0.4768960000000 1.0
C      1  0.5672960000000  0.4528840000000  0.5231040000000 1.0
C      1  0.5471160000000  0.5231040000000  0.4327040000000 1.0
C      1  0.5471160000000  0.4768960000000  0.5672960000000 1.0
C      1  0.4528840000000  0.4768960000000  0.4327040000000 1.0
C      1  0.5231040000000  0.4327040000000  0.5471160000000 1.0
C      1  0.5231040000000  0.5672960000000  0.4528840000000 1.0
C      1  0.4768960000000  0.5672960000000  0.5471160000000 1.0
C      1  0.5610150000000  0.5069170000000  0.5240320000000 1.0
C      1  0.5069170000000  0.5240320000000  0.5610150000000 1.0
C      1  0.5240320000000  0.5610150000000  0.5069170000000 1.0
C      1  0.4389850000000  0.5069170000000  0.4759680000000 1.0
C      1  0.4389850000000  0.4930830000000  0.5240320000000 1.0
C      1  0.5610150000000  0.4930830000000  0.4759680000000 1.0
C      1  0.4930830000000  0.5240320000000  0.4389850000000 1.0
C      1  0.4930830000000  0.4759680000000  0.5610150000000 1.0
C      1  0.5069170000000  0.4759680000000  0.4389850000000 1.0
C      1  0.4759680000000  0.5610150000000  0.4930830000000 1.0
C      1  0.4759680000000  0.4389850000000  0.5069170000000 1.0
C      1  0.5240320000000  0.4389850000000  0.4930830000000 1.0
C      1  0.5610150000000  0.4930830000000  0.5240320000000 1.0
C      1  0.5069170000000  0.4759680000000  0.5610150000000 1.0
C      1  0.5240320000000  0.4389850000000  0.5069170000000 1.0
C      1  0.4389850000000  0.4930830000000  0.4759680000000 1.0
C      1  0.4389850000000  0.5069170000000  0.5240320000000 1.0
C      1  0.5610150000000  0.5069170000000  0.4759680000000 1.0
C      1  0.4930830000000  0.4759680000000  0.4389850000000 1.0
C      1  0.4930830000000  0.5240320000000  0.5610150000000 1.0
C      1  0.5069170000000  0.5240320000000  0.4389850000000 1.0
C      1  0.4759680000000  0.4389850000000  0.4930830000000 1.0
C      1  0.4759680000000  0.5610150000000  0.5069170000000 1.0
C      1  0.5240320000000  0.5610150000000  0.4930830000000 1.0
C      1  0.4521950000000  0.5461420000000  0.4352140000000 1.0
C      1  0.5461420000000  0.4352140000000  0.4521950000000 1.0
C      1  0.4352140000000  0.4521950000000  0.5461420000000 1.0
C      1  0.5478050000000  0.5461420000000  0.5647860000000 1.0
C      1  0.5478050000000  0.4538580000000  0.4352140000000 1.0
C      1  0.4521950000000  0.4538580000000  0.5647860000000 1.0
C      1  0.4538580000000  0.4352140000000  0.5478050000000 1.0
C      1  0.4538580000000  0.5647860000000  0.4521950000000 1.0
C      1  0.5461420000000  0.5647860000000  0.5478050000000 1.0
C      1  0.5647860000000  0.4521950000000  0.4538580000000 1.0
C      1  0.5647860000000  0.5478050000000  0.5461420000000 1.0
C      1  0.4352140000000  0.5478050000000  0.4538580000000 1.0
C      1  0.4521950000000  0.4538580000000  0.4352140000000 1.0
C      1  0.5461420000000  0.5647860000000  0.4521950000000 1.0
C      1  0.4352140000000  0.5478050000000  0.5461420000000 1.0
C      1  0.5478050000000  0.4538580000000  0.5647860000000 1.0
C      1  0.5478050000000  0.5461420000000  0.4352140000000 1.0
C      1  0.4521950000000  0.5461420000000  0.5647860000000 1.0
C      1  0.4538580000000  0.5647860000000  0.5478050000000 1.0
C      1  0.4538580000000  0.4352140000000  0.4521950000000 1.0
C      1  0.5461420000000  0.4352140000000  0.5478050000000 1.0
C      1  0.5647860000000  0.5478050000000  0.4538580000000 1.0
C      1  0.5647860000000  0.4521950000000  0.5461420000000 1.0
C      1  0.4352140000000  0.4521950000000  0.4538580000000 1.0
C      1  0.4846110000000  0.4637890000000  0.4358940000000 1.0
C      1  0.4637890000000  0.4358940000000  0.4846110000000 1.0
C      1  0.4358940000000  0.4846110000000  0.4637890000000 1.0
C      1  0.5153890000000  0.4637890000000  0.5641060000000 1.0
C      1  0.5153890000000  0.5362110000000  0.4358940000000 1.0
C      1  0.4846110000000  0.5362110000000  0.5641060000000 1.0
C      1  0.5362110000000  0.4358940000000  0.5153890000000 1.0
C      1  0.5362110000000  0.5641060000000  0.4846110000000 1.0
C      1  0.4637890000000  0.5641060000000  0.5153890000000 1.0
C      1  0.5641060000000  0.4846110000000  0.5362110000000 1.0
C      1  0.5641060000000  0.5153890000000  0.4637890000000 1.0
C      1  0.4358940000000  0.5153890000000  0.5362110000000 1.0
C      1  0.4846110000000  0.5362110000000  0.4358940000000 1.0
C      1  0.4637890000000  0.5641060000000  0.4846110000000 1.0
C      1  0.4358940000000  0.5153890000000  0.4637890000000 1.0
C      1  0.5153890000000  0.5362110000000  0.5641060000000 1.0
C      1  0.5153890000000  0.4637890000000  0.4358940000000 1.0
C      1  0.4846110000000  0.4637890000000  0.5641060000000 1.0
C      1  0.5362110000000  0.5641060000000  0.5153890000000 1.0
C      1  0.5362110000000  0.4358940000000  0.4846110000000 1.0
C      1  0.4637890000000  0.4358940000000  0.5153890000000 1.0
C      1  0.5641060000000  0.5153890000000  0.5362110000000 1.0
C      1  0.5641060000000  0.4846110000000  0.4637890000000 1.0
C      1  0.4358940000000  0.4846110000000  0.5362110000000 1.0
END
