TITL C-1379266-1300-416 2.19019869376235e-07 1000000 -4246.64428350598 0 0 600 (C1) n - 1
REM
REM in /nfs/bkarasulu/CARBON/AIRSS/Generating-Clusters/GAP-ML-2020/Higher-Symm/Selected-Sizes/TryA-Only_Ih-Symm/Larger-Clusters/Try2-MINAMP_6A
REM
REM
REM
REM
REM
REM ./C.cell (31579ac4e95a012ec27f3239692ae8a5)
REM
REM compiler GCC version 9.2.1 20190827 (Red Hat 9.2.1-1)
REM options -cpp -mtune=generic -march=x86-64 -g -O0 -fpre-include=/usr/include/finclude/math-vector-fortran.h
REM seed 154999198 1974499047 1778683836 -1625733194 -931582504 -400243461 -709441065 -2035971399 1185658800 267368192 -54222292 -98679379 -228848726 -1854226513 -618723041 -1242065093 -907442843 145238967 1660791249 1371449364 -956928204 -736654037 -281737141 -1064768749 1224263842 -2021241666 -1031070078 -657436729 -1193117874 -539953814 975261564 -1292240162 -1645724353
REM
CELL 1.54180  100.00000  100.00000  100.00000   90.00000   90.00000   90.00000
LATT -1
SFAC C  
C      1  0.4836090000000  0.5410580000000  0.4554580000000 1.0
C      1  0.4573030000000  0.4840950000000  0.5411830000000 1.0
C      1  0.5407570000000  0.4566260000000  0.4803810000000 1.0
C      1  0.5139840000000  0.5419840000000  0.5402070000000 1.0
C      1  0.4855460000000  0.4578100000000  0.5419270000000 1.0
C      1  0.5149480000000  0.4584540000000  0.4587140000000 1.0
C      1  0.5434670000000  0.4845900000000  0.4593850000000 1.0
C      1  0.4580790000000  0.5183190000000  0.4593360000000 1.0
C      1  0.5426490000000  0.5154990000000  0.5403660000000 1.0
C      1  0.4603460000000  0.4577910000000  0.5192620000000 1.0
C      1  0.5396490000000  0.5413400000000  0.5177370000000 1.0
C      1  0.4571590000000  0.5415250000000  0.4834030000000 1.0
C      1  0.4823920000000  0.4605730000000  0.4584210000000 1.0
C      1  0.4587320000000  0.5160910000000  0.5425380000000 1.0
C      1  0.5422480000000  0.5410680000000  0.4855370000000 1.0
C      1  0.5189800000000  0.4584600000000  0.5429700000000 1.0
C      1  0.4816230000000  0.5405750000000  0.5412780000000 1.0
C      1  0.5158150000000  0.5419500000000  0.4563140000000 1.0
C      1  0.5437680000000  0.5194880000000  0.4588950000000 1.0
C      1  0.4597480000000  0.4860370000000  0.4582480000000 1.0
C      1  0.5412390000000  0.4832370000000  0.5420860000000 1.0
C      1  0.4590180000000  0.5434030000000  0.5154200000000 1.0
C      1  0.5405180000000  0.4558120000000  0.5150250000000 1.0
C      1  0.4601180000000  0.4575530000000  0.4855440000000 1.0
C      1  0.4734410000000  0.5681780000000  0.4485340000000 1.0
C      1  0.4505370000000  0.4747410000000  0.5686950000000 1.0
C      1  0.5701910000000  0.4495340000000  0.4718850000000 1.0
C      1  0.5217610000000  0.5718590000000  0.5476980000000 1.0
C      1  0.4774370000000  0.4276880000000  0.5503710000000 1.0
C      1  0.5227990000000  0.4288280000000  0.4500680000000 1.0
C      1  0.5495290000000  0.4768010000000  0.4313420000000 1.0
C      1  0.4496690000000  0.5301910000000  0.4327770000000 1.0
C      1  0.5492890000000  0.5252310000000  0.5675090000000 1.0
C      1  0.4343090000000  0.4500080000000  0.5314970000000 1.0
C      1  0.5656890000000  0.5493600000000  0.5304690000000 1.0
C      1  0.4266990000000  0.5485510000000  0.4753310000000 1.0
C      1  0.4695690000000  0.4345960000000  0.4504770000000 1.0
C      1  0.4512550000000  0.5247590000000  0.5726540000000 1.0
C      1  0.5720440000000  0.5487520000000  0.4775980000000 1.0
C      1  0.5269450000000  0.4283720000000  0.5496560000000 1.0
C      1  0.4693160000000  0.5670130000000  0.5487790000000 1.0
C      1  0.5249790000000  0.5692900000000  0.4505510000000 1.0
C      1  0.5511820000000  0.5274180000000  0.4298290000000 1.0
C      1  0.4516730000000  0.4780240000000  0.4284560000000 1.0
C      1  0.5489670000000  0.4741730000000  0.5719420000000 1.0
C      1  0.4317100000000  0.5502940000000  0.5251490000000 1.0
C      1  0.5682880000000  0.4493840000000  0.5228720000000 1.0
C      1  0.4332920000000  0.4510580000000  0.4765440000000 1.0
C      1  0.4418130000000  0.5086040000000  0.5270500000000 1.0
C      1  0.5268940000000  0.4411690000000  0.5063660000000 1.0
C      1  0.5080740000000  0.5272820000000  0.4405630000000 1.0
C      1  0.5586380000000  0.5067610000000  0.4736940000000 1.0
C      1  0.4423980000000  0.4925050000000  0.4740230000000 1.0
C      1  0.5582450000000  0.4904190000000  0.5261800000000 1.0
C      1  0.4743870000000  0.4425630000000  0.4949010000000 1.0
C      1  0.5260390000000  0.5583190000000  0.4914080000000 1.0
C      1  0.4730110000000  0.5575590000000  0.5038340000000 1.0
C      1  0.4935950000000  0.5264480000000  0.5582380000000 1.0
C      1  0.5064260000000  0.4733570000000  0.5586500000000 1.0
C      1  0.4944370000000  0.4748360000000  0.4416350000000 1.0
C      1  0.4429100000000  0.4948570000000  0.5269000000000 1.0
C      1  0.5254540000000  0.5579970000000  0.5052400000000 1.0
C      1  0.5082990000000  0.4745620000000  0.4417370000000 1.0
C      1  0.5585740000000  0.4930500000000  0.4733060000000 1.0
C      1  0.4417050000000  0.5063470000000  0.4740130000000 1.0
C      1  0.5572580000000  0.5041920000000  0.5262020000000 1.0
C      1  0.4727670000000  0.5586360000000  0.4900660000000 1.0
C      1  0.5265100000000  0.4409400000000  0.4926840000000 1.0
C      1  0.4747130000000  0.4409470000000  0.5083450000000 1.0
C      1  0.4925480000000  0.4732080000000  0.5588660000000 1.0
C      1  0.5074330000000  0.5266470000000  0.5577970000000 1.0
C      1  0.4944750000000  0.5272940000000  0.4413140000000 1.0
C      1  0.5355710000000  0.4579900000000  0.5414300000000 1.0
C      1  0.5398320000000  0.5347920000000  0.4530780000000 1.0
C      1  0.4566010000000  0.5392060000000  0.5291930000000 1.0
C      1  0.4669270000000  0.4623120000000  0.4604450000000 1.0
C      1  0.5297020000000  0.5431240000000  0.4610480000000 1.0
C      1  0.4660880000000  0.5392930000000  0.5398290000000 1.0
C      1  0.4624100000000  0.5291640000000  0.5487310000000 1.0
C      1  0.5380180000000  0.4703420000000  0.5489330000000 1.0
C      1  0.4633170000000  0.4728930000000  0.4518790000000 1.0
C      1  0.5498440000000  0.5387490000000  0.4729840000000 1.0
C      1  0.4579310000000  0.4624820000000  0.4716730000000 1.0
C      1  0.5433070000000  0.4601510000000  0.5288750000000 1.0
C      1  0.5270940000000  0.5483760000000  0.5365510000000 1.0
C      1  0.5387880000000  0.4709410000000  0.4562490000000 1.0
C      1  0.4619360000000  0.4597240000000  0.5347710000000 1.0
C      1  0.4699610000000  0.5433980000000  0.4600460000000 1.0
C      1  0.5278510000000  0.4512910000000  0.4615180000000 1.0
C      1  0.4724450000000  0.4512810000000  0.5385920000000 1.0
C      1  0.4618070000000  0.4705000000000  0.5440220000000 1.0
C      1  0.5379670000000  0.5292320000000  0.5426780000000 1.0
C      1  0.4594030000000  0.5338380000000  0.4603110000000 1.0
C      1  0.5405800000000  0.4583390000000  0.4638130000000 1.0
C      1  0.4506860000000  0.5375880000000  0.4705700000000 1.0
C      1  0.5378140000000  0.5399050000000  0.5332210000000 1.0
C      1  0.5377640000000  0.5323610000000  0.4272430000000 1.0
C      1  0.4316150000000  0.5351390000000  0.5263900000000 1.0
C      1  0.5321070000000  0.4249860000000  0.5367610000000 1.0
C      1  0.4654030000000  0.5283280000000  0.5742850000000 1.0
C      1  0.5349590000000  0.4711930000000  0.5744860000000 1.0
C      1  0.4658020000000  0.4742330000000  0.4262840000000 1.0
C      1  0.5753000000000  0.5353490000000  0.4733610000000 1.0
C      1  0.4334580000000  0.4660580000000  0.4756150000000 1.0
C      1  0.5675530000000  0.4641740000000  0.5244320000000 1.0
C      1  0.4621490000000  0.4332060000000  0.4628790000000 1.0
C      1  0.5259310000000  0.5678630000000  0.4653230000000 1.0
C      1  0.4618110000000  0.5681910000000  0.5364760000000 1.0
C      1  0.5346740000000  0.4755990000000  0.4321520000000 1.0
C      1  0.4328820000000  0.4624070000000  0.5387520000000 1.0
C      1  0.5257100000000  0.5737670000000  0.5336070000000 1.0
C      1  0.4656860000000  0.4736970000000  0.5689250000000 1.0
C      1  0.5341380000000  0.5263630000000  0.5675000000000 1.0
C      1  0.4617710000000  0.5378930000000  0.4311130000000 1.0
C      1  0.5738190000000  0.4624820000000  0.4672180000000 1.0
C      1  0.4251440000000  0.5343350000000  0.4719820000000 1.0
C      1  0.5671480000000  0.5369850000000  0.5377780000000 1.0
C      1  0.4728800000000  0.5683630000000  0.4636110000000 1.0
C      1  0.5268480000000  0.4256180000000  0.4636680000000 1.0
C      1  0.4736310000000  0.4253950000000  0.5364280000000 1.0
C      1  0.5071510000000  0.5551970000000  0.4579710000000 1.0
C      1  0.4602380000000  0.5074580000000  0.5555710000000 1.0
C      1  0.5537800000000  0.4580410000000  0.5055060000000 1.0
C      1  0.4889560000000  0.5548400000000  0.5383130000000 1.0
C      1  0.5103490000000  0.4451060000000  0.5404550000000 1.0
C      1  0.4896820000000  0.4461110000000  0.4606180000000 1.0
C      1  0.5416900000000  0.5100080000000  0.4459910000000 1.0
C      1  0.4612290000000  0.4951810000000  0.4450710000000 1.0
C      1  0.5398990000000  0.4921330000000  0.5550400000000 1.0
C      1  0.4464870000000  0.4596460000000  0.4950220000000 1.0
C      1  0.5549400000000  0.5389350000000  0.4950290000000 1.0
C      1  0.4449460000000  0.5411080000000  0.5074860000000 1.0
C      1  0.5054590000000  0.4455710000000  0.4602980000000 1.0
C      1  0.4595000000000  0.4923020000000  0.5551770000000 1.0
C      1  0.5542370000000  0.5387850000000  0.5106710000000 1.0
C      1  0.4946530000000  0.4450010000000  0.5404930000000 1.0
C      1  0.5047090000000  0.5550140000000  0.5382350000000 1.0
C      1  0.4917580000000  0.5549380000000  0.4573180000000 1.0
C      1  0.5415440000000  0.4941550000000  0.4461020000000 1.0
C      1  0.4607960000000  0.5109030000000  0.4450830000000 1.0
C      1  0.5405360000000  0.5073880000000  0.5544380000000 1.0
C      1  0.4443220000000  0.5400630000000  0.4923540000000 1.0
C      1  0.5539070000000  0.4586340000000  0.4893800000000 1.0
C      1  0.4462690000000  0.4601020000000  0.5112880000000 1.0
C      1  0.5149110000000  0.4879780000000  0.4410270000000 1.0
C      1  0.4410500000000  0.5128730000000  0.4874690000000 1.0
C      1  0.4882920000000  0.4409040000000  0.5140060000000 1.0
C      1  0.4860050000000  0.4866300000000  0.5596060000000 1.0
C      1  0.5139980000000  0.5132810000000  0.5588920000000 1.0
C      1  0.4876640000000  0.5141430000000  0.4413700000000 1.0
C      1  0.5578650000000  0.5114810000000  0.5132110000000 1.0
C      1  0.4423690000000  0.4873520000000  0.5139060000000 1.0
C      1  0.5582280000000  0.4858480000000  0.4864170000000 1.0
C      1  0.5127550000000  0.4412790000000  0.4871940000000 1.0
C      1  0.4861390000000  0.5594640000000  0.4834570000000 1.0
C      1  0.5117870000000  0.5585690000000  0.5110400000000 1.0
C      1  0.5147880000000  0.5141440000000  0.4413900000000 1.0
C      1  0.4417470000000  0.4862050000000  0.4875500000000 1.0
C      1  0.4860720000000  0.5580900000000  0.5110170000000 1.0
C      1  0.4873240000000  0.5128840000000  0.5590940000000 1.0
C      1  0.5127060000000  0.4869900000000  0.5590010000000 1.0
C      1  0.4884570000000  0.4884110000000  0.4411080000000 1.0
C      1  0.5588240000000  0.4842760000000  0.5126190000000 1.0
C      1  0.4409010000000  0.5148360000000  0.5136010000000 1.0
C      1  0.5585700000000  0.5119120000000  0.4876150000000 1.0
C      1  0.5127800000000  0.5594500000000  0.4844950000000 1.0
C      1  0.4872560000000  0.4419670000000  0.4875670000000 1.0
C      1  0.5138180000000  0.4414120000000  0.5133280000000 1.0
C      1  0.4647510000000  0.4420610000000  0.5185090000000 1.0
C      1  0.5173280000000  0.4634400000000  0.4445930000000 1.0
C      1  0.4424890000000  0.5166400000000  0.4638590000000 1.0
C      1  0.5358510000000  0.4416810000000  0.4817790000000 1.0
C      1  0.4617060000000  0.5556970000000  0.4810060000000 1.0
C      1  0.5350340000000  0.5569010000000  0.5160430000000 1.0
C      1  0.4831640000000  0.4624530000000  0.5561200000000 1.0
C      1  0.5165090000000  0.5375440000000  0.5545390000000 1.0
C      1  0.4844130000000  0.5374350000000  0.4407010000000 1.0
C      1  0.5574600000000  0.5142730000000  0.5366080000000 1.0
C      1  0.4425460000000  0.4849780000000  0.5373680000000 1.0
C      1  0.5583460000000  0.4832310000000  0.4629320000000 1.0
C      1  0.4627370000000  0.5581290000000  0.5139650000000 1.0
C      1  0.5174630000000  0.5379280000000  0.4417400000000 1.0
C      1  0.4455950000000  0.4834150000000  0.4631350000000 1.0
C      1  0.5373800000000  0.5552260000000  0.4828480000000 1.0
C      1  0.4636260000000  0.4426200000000  0.4855540000000 1.0
C      1  0.5371570000000  0.4408980000000  0.5162280000000 1.0
C      1  0.4831630000000  0.5364060000000  0.5569970000000 1.0
C      1  0.5170210000000  0.4633140000000  0.5578520000000 1.0
C      1  0.4836840000000  0.4651890000000  0.4428960000000 1.0
C      1  0.5553220000000  0.4810210000000  0.5370780000000 1.0
C      1  0.4445420000000  0.5180830000000  0.5378440000000 1.0
C      1  0.5583250000000  0.5178680000000  0.4643050000000 1.0
C      1  0.5654270000000  0.5091690000000  0.4418390000000 1.0
C      1  0.4398600000000  0.5645350000000  0.5049900000000 1.0
C      1  0.5082850000000  0.4410360000000  0.5641560000000 1.0
C      1  0.4367450000000  0.5089760000000  0.5598450000000 1.0
C      1  0.5633390000000  0.4904300000000  0.5590490000000 1.0
C      1  0.4376680000000  0.4943050000000  0.4416660000000 1.0
C      1  0.5585740000000  0.5623000000000  0.4944320000000 1.0
C      1  0.4413890000000  0.4361240000000  0.4962140000000 1.0
C      1  0.5589120000000  0.4344620000000  0.5041690000000 1.0
C      1  0.4906690000000  0.4427290000000  0.4368720000000 1.0
C      1  0.5071650000000  0.5604120000000  0.4344180000000 1.0
C      1  0.4904570000000  0.5588430000000  0.5621470000000 1.0
C      1  0.5651900000000  0.4948370000000  0.4410230000000 1.0
C      1  0.4422080000000  0.4362780000000  0.5108910000000 1.0
C      1  0.5051520000000  0.5590570000000  0.5616930000000 1.0
C      1  0.4359920000000  0.4944200000000  0.5600000000000 1.0
C      1  0.5639720000000  0.5051220000000  0.5593970000000 1.0
C      1  0.4369260000000  0.5089720000000  0.4416540000000 1.0
C      1  0.5583260000000  0.4347050000000  0.4898470000000 1.0
C      1  0.4397980000000  0.5634950000000  0.4904520000000 1.0
C      1  0.5576240000000  0.5625830000000  0.5091630000000 1.0
C      1  0.4927570000000  0.5604680000000  0.4336820000000 1.0
C      1  0.5055220000000  0.4422920000000  0.4369550000000 1.0
C      1  0.4937240000000  0.4410000000000  0.5640090000000 1.0
C      1  0.4389910000000  0.5294000000000  0.4721850000000 1.0
C      1  0.4736760000000  0.4391750000000  0.5310390000000 1.0
C      1  0.5309110000000  0.4693120000000  0.4447300000000 1.0
C      1  0.5660500000000  0.5254970000000  0.5293290000000 1.0
C      1  0.4342070000000  0.4736070000000  0.5300100000000 1.0
C      1  0.5629230000000  0.4707730000000  0.4702200000000 1.0
C      1  0.5264050000000  0.4392280000000  0.4694800000000 1.0
C      1  0.4675530000000  0.5553900000000  0.4674660000000 1.0
C      1  0.5258520000000  0.5600640000000  0.5284150000000 1.0
C      1  0.4695570000000  0.4683590000000  0.5559260000000 1.0
C      1  0.5302270000000  0.5317370000000  0.5544780000000 1.0
C      1  0.4733470000000  0.5296670000000  0.4325480000000 1.0
C      1  0.4460280000000  0.4698570000000  0.4691470000000 1.0
C      1  0.4702160000000  0.5666960000000  0.5250220000000 1.0
C      1  0.5313710000000  0.5309590000000  0.4402480000000 1.0
C      1  0.5549960000000  0.4677330000000  0.5308020000000 1.0
C      1  0.4447010000000  0.5315050000000  0.5316450000000 1.0
C      1  0.5611710000000  0.5298410000000  0.4739530000000 1.0
C      1  0.5323440000000  0.5548660000000  0.4688040000000 1.0
C      1  0.4708860000000  0.4343760000000  0.4740100000000 1.0
C      1  0.5297680000000  0.4361460000000  0.5285770000000 1.0
C      1  0.4705050000000  0.5279350000000  0.5605160000000 1.0
C      1  0.5296740000000  0.4719270000000  0.5607870000000 1.0
C      1  0.4711670000000  0.4741300000000  0.4399480000000 1.0
C      1  0.5071850000000  0.5733170000000  0.4901320000000 1.0
C      1  0.4928900000000  0.5079140000000  0.5733820000000 1.0
C      1  0.5725590000000  0.4902020000000  0.5071650000000 1.0
C      1  0.4913590000000  0.5725830000000  0.5049040000000 1.0
C      1  0.5089500000000  0.4267510000000  0.5079490000000 1.0
C      1  0.4926730000000  0.4271830000000  0.4932240000000 1.0
C      1  0.5093790000000  0.5093550000000  0.4272800000000 1.0
C      1  0.4942410000000  0.4935370000000  0.4267510000000 1.0
C      1  0.5074070000000  0.4921740000000  0.5733220000000 1.0
C      1  0.4276520000000  0.4920910000000  0.4930140000000 1.0
C      1  0.5729290000000  0.5059310000000  0.4922420000000 1.0
C      1  0.4273890000000  0.5081600000000  0.5084440000000 1.0
C      1  0.5081360000000  0.4268040000000  0.4927870000000 1.0
C      1  0.4922110000000  0.4921980000000  0.5734810000000 1.0
C      1  0.5724400000000  0.5054030000000  0.5077440000000 1.0
C      1  0.4932990000000  0.4268190000000  0.5082770000000 1.0
C      1  0.5068420000000  0.5730450000000  0.5052430000000 1.0
C      1  0.4914140000000  0.5730090000000  0.4896900000000 1.0
C      1  0.5094380000000  0.4936430000000  0.4268730000000 1.0
C      1  0.4941720000000  0.5089740000000  0.4270720000000 1.0
C      1  0.5080630000000  0.5079270000000  0.5731010000000 1.0
C      1  0.4270120000000  0.5072360000000  0.4927390000000 1.0
C      1  0.5727820000000  0.4908130000000  0.4914030000000 1.0
C      1  0.4279710000000  0.4929340000000  0.5085640000000 1.0
C      1  0.5414990000000  0.4171870000000  0.5159710000000 1.0
C      1  0.5183670000000  0.5423140000000  0.4175870000000 1.0
C      1  0.4200160000000  0.5196900000000  0.5419380000000 1.0
C      1  0.4590380000000  0.4191660000000  0.4862680000000 1.0
C      1  0.5410920000000  0.5795210000000  0.4812960000000 1.0
C      1  0.4581830000000  0.5816260000000  0.5122250000000 1.0
C      1  0.4839570000000  0.5409430000000  0.5819630000000 1.0
C      1  0.5161370000000  0.4593380000000  0.5826890000000 1.0
C      1  0.4840690000000  0.4612450000000  0.4178460000000 1.0
C      1  0.5832830000000  0.5167270000000  0.4610460000000 1.0
C      1  0.4211000000000  0.4812280000000  0.4600970000000 1.0
C      1  0.5797400000000  0.4791100000000  0.5402700000000 1.0
C      1  0.5389530000000  0.5819660000000  0.5154840000000 1.0
C      1  0.5188250000000  0.4605460000000  0.4202060000000 1.0
C      1  0.4190310000000  0.4864080000000  0.5418750000000 1.0
C      1  0.4575550000000  0.5801610000000  0.4790830000000 1.0
C      1  0.5393410000000  0.4167780000000  0.4818820000000 1.0
C      1  0.4610480000000  0.4170520000000  0.5182890000000 1.0
C      1  0.4815800000000  0.4587750000000  0.5806180000000 1.0
C      1  0.5182680000000  0.5415360000000  0.5789810000000 1.0
C      1  0.4856250000000  0.5416200000000  0.4172610000000 1.0
C      1  0.5821650000000  0.4828950000000  0.4582930000000 1.0
C      1  0.4174510000000  0.5154360000000  0.4598710000000 1.0
C      1  0.5809760000000  0.5125310000000  0.5412560000000 1.0
C      1  0.4844160000000  0.5157670000000  0.4176180000000 1.0
C      1  0.4185760000000  0.4835590000000  0.5160940000000 1.0
C      1  0.5139010000000  0.4176930000000  0.4815600000000 1.0
C      1  0.5186530000000  0.5155160000000  0.5816910000000 1.0
C      1  0.4816540000000  0.4847950000000  0.5824650000000 1.0
C      1  0.5199890000000  0.4867530000000  0.4180610000000 1.0
C      1  0.5817280000000  0.4802720000000  0.4834080000000 1.0
C      1  0.4171620000000  0.5170530000000  0.4855220000000 1.0
C      1  0.5815310000000  0.5149080000000  0.5154320000000 1.0
C      1  0.4867440000000  0.4173050000000  0.5187430000000 1.0
C      1  0.5132380000000  0.5823480000000  0.5158850000000 1.0
C      1  0.4836610000000  0.5823170000000  0.4794250000000 1.0
C      1  0.4835280000000  0.4868540000000  0.4175310000000 1.0
C      1  0.4181540000000  0.5185910000000  0.5158910000000 1.0
C      1  0.5149970000000  0.5824120000000  0.4801320000000 1.0
C      1  0.5178190000000  0.4850080000000  0.5827040000000 1.0
C      1  0.4827430000000  0.5152330000000  0.5828660000000 1.0
C      1  0.5202270000000  0.5174070000000  0.4183280000000 1.0
C      1  0.5822150000000  0.5170130000000  0.4864870000000 1.0
C      1  0.4189730000000  0.4812430000000  0.4861370000000 1.0
C      1  0.5816320000000  0.4795770000000  0.5140170000000 1.0
C      1  0.4840740000000  0.5819370000000  0.5143460000000 1.0
C      1  0.5164200000000  0.4178050000000  0.5185320000000 1.0
C      1  0.4848630000000  0.4183550000000  0.4837040000000 1.0
C      1  0.5897010000000  0.5019510000000  0.5435590000000 1.0
C      1  0.5414830000000  0.5893570000000  0.5041830000000 1.0
C      1  0.5080570000000  0.5435550000000  0.5879750000000 1.0
C      1  0.4104940000000  0.5037210000000  0.4582500000000 1.0
C      1  0.5910890000000  0.4932540000000  0.4578940000000 1.0
C      1  0.4101020000000  0.4967370000000  0.5443810000000 1.0
C      1  0.4553470000000  0.5892160000000  0.4892970000000 1.0
C      1  0.5412150000000  0.4085420000000  0.4926990000000 1.0
C      1  0.4585180000000  0.4088570000000  0.5076660000000 1.0
C      1  0.4955050000000  0.5440320000000  0.4079060000000 1.0
C      1  0.5082720000000  0.4587950000000  0.4114960000000 1.0
C      1  0.4921140000000  0.4570340000000  0.5893360000000 1.0
C      1  0.5887220000000  0.4893590000000  0.5427540000000 1.0
C      1  0.5420060000000  0.4085140000000  0.5053600000000 1.0
C      1  0.5046930000000  0.4576530000000  0.5901170000000 1.0
C      1  0.4117950000000  0.4911680000000  0.4580230000000 1.0
C      1  0.5914000000000  0.5058670000000  0.4590300000000 1.0
C      1  0.4111410000000  0.5093390000000  0.5443260000000 1.0
C      1  0.4566730000000  0.4089440000000  0.4951590000000 1.0
C      1  0.5428170000000  0.5884580000000  0.4916590000000 1.0
C      1  0.4554490000000  0.5904540000000  0.5018770000000 1.0
C      1  0.4956660000000  0.4593270000000  0.4106850000000 1.0
C      1  0.5081590000000  0.5435450000000  0.4085000000000 1.0
C      1  0.4955020000000  0.5429840000000  0.5890780000000 1.0
C      1  0.5151140000000  0.4376810000000  0.5281940000000 1.0
C      1  0.5298150000000  0.5155150000000  0.4384590000000 1.0
C      1  0.4365310000000  0.5299250000000  0.5132640000000 1.0
C      1  0.4853190000000  0.4377730000000  0.4726310000000 1.0
C      1  0.5120760000000  0.5639510000000  0.4694360000000 1.0
C      1  0.4845470000000  0.5629080000000  0.5260750000000 1.0
C      1  0.4723380000000  0.5130970000000  0.5630600000000 1.0
C      1  0.5277950000000  0.4867960000000  0.5627470000000 1.0
C      1  0.4732680000000  0.4889840000000  0.4374830000000 1.0
C      1  0.5623710000000  0.5268730000000  0.4888600000000 1.0
C      1  0.4376630000000  0.4708070000000  0.4892270000000 1.0
C      1  0.5627220000000  0.4691700000000  0.5111450000000 1.0
C      1  0.5110120000000  0.5624000000000  0.5261630000000 1.0
C      1  0.5301830000000  0.4890410000000  0.4371300000000 1.0
C      1  0.4378280000000  0.4722220000000  0.5155660000000 1.0
C      1  0.4862820000000  0.5637510000000  0.4683780000000 1.0
C      1  0.5116030000000  0.4377590000000  0.4721380000000 1.0
C      1  0.4886070000000  0.4372460000000  0.5288290000000 1.0
C      1  0.4707310000000  0.4868390000000  0.5637830000000 1.0
C      1  0.5292980000000  0.5129910000000  0.5629610000000 1.0
C      1  0.4727290000000  0.5153980000000  0.4366770000000 1.0
C      1  0.5617080000000  0.4708510000000  0.4849560000000 1.0
C      1  0.4368550000000  0.5277830000000  0.4870970000000 1.0
C      1  0.5624190000000  0.5265750000000  0.5150190000000 1.0
C      1  0.5160730000000  0.4651300000000  0.5187580000000 1.0
C      1  0.5192350000000  0.5168290000000  0.4650270000000 1.0
C      1  0.4651580000000  0.5186710000000  0.5162970000000 1.0
C      1  0.4849390000000  0.4660850000000  0.4823590000000 1.0
C      1  0.5160130000000  0.5351190000000  0.4811900000000 1.0
C      1  0.4839230000000  0.5344050000000  0.5175300000000 1.0
C      1  0.4822120000000  0.5154610000000  0.5345340000000 1.0
C      1  0.5178410000000  0.4838330000000  0.5348040000000 1.0
C      1  0.4833380000000  0.4852910000000  0.4658770000000 1.0
C      1  0.5346020000000  0.5178810000000  0.4840670000000 1.0
C      1  0.4663150000000  0.4823980000000  0.4843630000000 1.0
C      1  0.5346040000000  0.4808550000000  0.5160030000000 1.0
C      1  0.5148250000000  0.5338830000000  0.5167180000000 1.0
C      1  0.5186630000000  0.4846200000000  0.4654500000000 1.0
C      1  0.4659570000000  0.4817050000000  0.5161470000000 1.0
C      1  0.4835300000000  0.5352490000000  0.4803010000000 1.0
C      1  0.5160340000000  0.4655980000000  0.4821130000000 1.0
C      1  0.4849560000000  0.4654060000000  0.5182940000000 1.0
C      1  0.4818920000000  0.4838550000000  0.5350930000000 1.0
C      1  0.5178580000000  0.5157140000000  0.5342420000000 1.0
C      1  0.4819620000000  0.5162640000000  0.4651150000000 1.0
C      1  0.5346160000000  0.4811620000000  0.4840990000000 1.0
C      1  0.4654140000000  0.5181700000000  0.4843920000000 1.0
C      1  0.5339810000000  0.5173690000000  0.5154560000000 1.0
C      1  0.5476140000000  0.4298780000000  0.4800460000000 1.0
C      1  0.4828980000000  0.5498190000000  0.4300280000000 1.0
C      1  0.4319990000000  0.4840560000000  0.5498660000000 1.0
C      1  0.4530220000000  0.4303440000000  0.5205010000000 1.0
C      1  0.5468400000000  0.5687740000000  0.5183420000000 1.0
C      1  0.4495350000000  0.5667460000000  0.4781680000000 1.0
C      1  0.5189730000000  0.5493890000000  0.5654980000000 1.0
C      1  0.4805570000000  0.4506860000000  0.5673700000000 1.0
C      1  0.5195290000000  0.4521110000000  0.4333180000000 1.0
C      1  0.5688980000000  0.4830390000000  0.4502970000000 1.0
C      1  0.4304400000000  0.5184010000000  0.4518550000000 1.0
C      1  0.5679720000000  0.5152890000000  0.5492250000000 1.0
C      1  0.5490510000000  0.5661250000000  0.4808410000000 1.0
C      1  0.4812450000000  0.4533190000000  0.4309040000000 1.0
C      1  0.4334000000000  0.5210120000000  0.5498550000000 1.0
C      1  0.4502050000000  0.5686970000000  0.5150290000000 1.0
C      1  0.5496120000000  0.4304060000000  0.5159880000000 1.0
C      1  0.4512290000000  0.4323610000000  0.4850200000000 1.0
C      1  0.5182210000000  0.4512220000000  0.5695020000000 1.0
C      1  0.4810730000000  0.5486460000000  0.5687450000000 1.0
C      1  0.5183300000000  0.5503640000000  0.4309170000000 1.0
C      1  0.5702800000000  0.5188730000000  0.4527450000000 1.0
C      1  0.4342620000000  0.4806340000000  0.4516240000000 1.0
C      1  0.5665130000000  0.4781600000000  0.5487020000000 1.0
C      1  0.5261090000000  0.5824790000000  0.5218560000000 1.0
C      1  0.5241610000000  0.5285660000000  0.5785210000000 1.0
C      1  0.5789010000000  0.5179340000000  0.5286580000000 1.0
C      1  0.4707160000000  0.5793860000000  0.4736020000000 1.0
C      1  0.5265860000000  0.4169430000000  0.4752790000000 1.0
C      1  0.4738670000000  0.4167810000000  0.5247250000000 1.0
C      1  0.4807910000000  0.5289000000000  0.4197200000000 1.0
C      1  0.5248040000000  0.4735700000000  0.4209710000000 1.0
C      1  0.4757720000000  0.4717590000000  0.5799090000000 1.0
C      1  0.4167850000000  0.5224090000000  0.4723470000000 1.0
C      1  0.5812250000000  0.4746750000000  0.4697610000000 1.0
C      1  0.4212480000000  0.4809190000000  0.5293260000000 1.0
C      1  0.5299940000000  0.4179970000000  0.5242290000000 1.0
C      1  0.5232200000000  0.4718310000000  0.5830240000000 1.0
C      1  0.5788020000000  0.4740000000000  0.5268990000000 1.0
C      1  0.4716240000000  0.4214030000000  0.4810360000000 1.0
C      1  0.5281070000000  0.5789700000000  0.4753160000000 1.0
C      1  0.4708670000000  0.5794820000000  0.5174050000000 1.0
C      1  0.4775290000000  0.4739840000000  0.4174680000000 1.0
C      1  0.5262470000000  0.5306150000000  0.4184170000000 1.0
C      1  0.4772080000000  0.5283500000000  0.5828210000000 1.0
C      1  0.4221500000000  0.4757680000000  0.4732490000000 1.0
C      1  0.5832910000000  0.5233160000000  0.4738260000000 1.0
C      1  0.4207460000000  0.5249470000000  0.5287070000000 1.0
C      1  0.4662850000000  0.5531800000000  0.5689060000000 1.0
C      1  0.5626950000000  0.4628300000000  0.5540590000000 1.0
C      1  0.5548300000000  0.5625090000000  0.4653240000000 1.0
C      1  0.5316730000000  0.5554480000000  0.4342020000000 1.0
C      1  0.4663330000000  0.4490600000000  0.4309020000000 1.0
C      1  0.5326670000000  0.4452830000000  0.5681280000000 1.0
C      1  0.4374230000000  0.4658880000000  0.4457180000000 1.0
C      1  0.5692130000000  0.5332240000000  0.4472280000000 1.0
C      1  0.4367630000000  0.5361920000000  0.5552750000000 1.0
C      1  0.4483050000000  0.5664200000000  0.5310590000000 1.0
C      1  0.5551370000000  0.4330950000000  0.5291360000000 1.0
C      1  0.4488570000000  0.4350320000000  0.4689840000000 1.0
C      1  0.4653390000000  0.4448840000000  0.5643540000000 1.0
C      1  0.5653490000000  0.5314670000000  0.5511560000000 1.0
C      1  0.5531000000000  0.4313250000000  0.4656990000000 1.0
C      1  0.5349400000000  0.4462370000000  0.4365610000000 1.0
C      1  0.4671030000000  0.5514910000000  0.4326710000000 1.0
C      1  0.5340510000000  0.5551230000000  0.5623400000000 1.0
C      1  0.4299370000000  0.5331600000000  0.4471530000000 1.0
C      1  0.5657640000000  0.4698020000000  0.4449230000000 1.0
C      1  0.4345620000000  0.4681720000000  0.5521420000000 1.0
C      1  0.4485000000000  0.4303140000000  0.5352580000000 1.0
C      1  0.5511130000000  0.5690550000000  0.5331570000000 1.0
C      1  0.4436710000000  0.5631090000000  0.4633110000000 1.0
C      1  0.4236420000000  0.4712060000000  0.4953370000000 1.0
C      1  0.4917660000000  0.4238910000000  0.4722450000000 1.0
C      1  0.4730200000000  0.4948560000000  0.4232110000000 1.0
C      1  0.5767230000000  0.4694570000000  0.5049490000000 1.0
C      1  0.4223220000000  0.5289080000000  0.5068360000000 1.0
C      1  0.5763960000000  0.5271180000000  0.4948110000000 1.0
C      1  0.5086390000000  0.4234610000000  0.5290210000000 1.0
C      1  0.4912320000000  0.5766140000000  0.5258180000000 1.0
C      1  0.5063170000000  0.5783150000000  0.4694730000000 1.0
C      1  0.5283880000000  0.4928520000000  0.5770890000000 1.0
C      1  0.4720450000000  0.5072970000000  0.5775740000000 1.0
C      1  0.5305850000000  0.5093100000000  0.4236500000000 1.0
C      1  0.4224090000000  0.5279780000000  0.4931630000000 1.0
C      1  0.4926240000000  0.5783740000000  0.4689400000000 1.0
C      1  0.4729960000000  0.5085300000000  0.4230590000000 1.0
C      1  0.5762010000000  0.5265130000000  0.5085060000000 1.0
C      1  0.4238220000000  0.4720130000000  0.5090490000000 1.0
C      1  0.5763090000000  0.4696330000000  0.4911400000000 1.0
C      1  0.5049650000000  0.5766480000000  0.5261600000000 1.0
C      1  0.4947780000000  0.4232320000000  0.5290480000000 1.0
C      1  0.5055010000000  0.4237280000000  0.4716300000000 1.0
C      1  0.5288920000000  0.5066160000000  0.5771340000000 1.0
C      1  0.4713490000000  0.4935950000000  0.5778730000000 1.0
C      1  0.5302500000000  0.4954980000000  0.4232570000000 1.0
C      1  0.5486090000000  0.5493950000000  0.5603560000000 1.0
C      1  0.5544000000000  0.5587450000000  0.5514590000000 1.0
C      1  0.5454930000000  0.5690030000000  0.5470050000000 1.0
C      1  0.4401590000000  0.5515420000000  0.4432720000000 1.0
C      1  0.5485220000000  0.4526730000000  0.4395150000000 1.0
C      1  0.4509480000000  0.4505820000000  0.5620260000000 1.0
C      1  0.4298170000000  0.5473220000000  0.4521050000000 1.0
C      1  0.5512360000000  0.4483730000000  0.4538390000000 1.0
C      1  0.4450530000000  0.4411970000000  0.5531700000000 1.0
C      1  0.4493170000000  0.5608180000000  0.4490650000000 1.0
C      1  0.5461000000000  0.4342180000000  0.4532250000000 1.0
C      1  0.4538280000000  0.4306670000000  0.5492740000000 1.0
C      1  0.5455790000000  0.4514920000000  0.5654930000000 1.0
C      1  0.5597670000000  0.4496510000000  0.5471510000000 1.0
C      1  0.5453320000000  0.4468470000000  0.5512660000000 1.0
C      1  0.4523910000000  0.4544830000000  0.4314410000000 1.0
C      1  0.5522920000000  0.5456050000000  0.4481330000000 1.0
C      1  0.4522230000000  0.5479970000000  0.5689930000000 1.0
C      1  0.4395890000000  0.4515920000000  0.4515420000000 1.0
C      1  0.5659040000000  0.5454510000000  0.4543190000000 1.0
C      1  0.4389240000000  0.5503800000000  0.5492700000000 1.0
C      1  0.4482690000000  0.4456810000000  0.4419190000000 1.0
C      1  0.5485660000000  0.5598180000000  0.4516750000000 1.0
C      1  0.4480020000000  0.5565070000000  0.5583750000000 1.0
C      1  0.4545400000000  0.5143180000000  0.5075620000000 1.0
C      1  0.5074620000000  0.4549020000000  0.5135070000000 1.0
C      1  0.5143280000000  0.5078500000000  0.4549540000000 1.0
C      1  0.5445360000000  0.5120760000000  0.4928390000000 1.0
C      1  0.4556150000000  0.4867730000000  0.4931100000000 1.0
C      1  0.5450780000000  0.4852170000000  0.5071440000000 1.0
C      1  0.4934960000000  0.4555200000000  0.4872650000000 1.0
C      1  0.5067140000000  0.5457830000000  0.4849000000000 1.0
C      1  0.4924380000000  0.5445420000000  0.5117590000000 1.0
C      1  0.4868880000000  0.5067820000000  0.5453630000000 1.0
C      1  0.5130010000000  0.4929060000000  0.5451710000000 1.0
C      1  0.4881330000000  0.4937530000000  0.4550940000000 1.0
C      1  0.4557260000000  0.4868120000000  0.5072480000000 1.0
C      1  0.5064420000000  0.5444940000000  0.5114360000000 1.0
C      1  0.5144460000000  0.4936550000000  0.4548550000000 1.0
C      1  0.5448590000000  0.4858420000000  0.4930550000000 1.0
C      1  0.4548220000000  0.5135150000000  0.4934150000000 1.0
C      1  0.5443590000000  0.5121450000000  0.5068830000000 1.0
C      1  0.4924280000000  0.5459130000000  0.4842250000000 1.0
C      1  0.5074800000000  0.4552880000000  0.4873410000000 1.0
C      1  0.4935040000000  0.4547960000000  0.5136280000000 1.0
C      1  0.4862380000000  0.4926070000000  0.5457940000000 1.0
C      1  0.5135750000000  0.5070990000000  0.5451650000000 1.0
C      1  0.4874720000000  0.5077730000000  0.4549290000000 1.0
C      1  0.5521280000000  0.5119320000000  0.5636740000000 1.0
C      1  0.5626090000000  0.5506460000000  0.5160700000000 1.0
C      1  0.5095000000000  0.5650730000000  0.5496930000000 1.0
C      1  0.4487420000000  0.5158720000000  0.4364580000000 1.0
C      1  0.5528360000000  0.4896820000000  0.4360110000000 1.0
C      1  0.4478450000000  0.4878820000000  0.5645030000000 1.0
C      1  0.4338330000000  0.5512380000000  0.4871130000000 1.0
C      1  0.5639670000000  0.4471250000000  0.4848940000000 1.0
C      1  0.4374740000000  0.4484070000000  0.5171560000000 1.0
C      1  0.4866410000000  0.5644650000000  0.4457260000000 1.0
C      1  0.5103150000000  0.4356690000000  0.4484460000000 1.0
C      1  0.4894720000000  0.4347820000000  0.5521970000000 1.0
C      1  0.5514620000000  0.4864470000000  0.5653190000000 1.0
C      1  0.5637960000000  0.4466260000000  0.5097430000000 1.0
C      1  0.5139720000000  0.4350600000000  0.5519390000000 1.0
C      1  0.4496310000000  0.4901890000000  0.4353680000000 1.0
C      1  0.5532950000000  0.5144490000000  0.4359790000000 1.0
C      1  0.4488610000000  0.5127260000000  0.5658380000000 1.0
C      1  0.4370970000000  0.4481480000000  0.4899880000000 1.0
C      1  0.5652470000000  0.5505760000000  0.4900880000000 1.0
C      1  0.4356160000000  0.5527880000000  0.5118770000000 1.0
C      1  0.4839900000000  0.4377120000000  0.4488740000000 1.0
C      1  0.5120050000000  0.5652460000000  0.4468170000000 1.0
C      1  0.4836770000000  0.5636460000000  0.5500740000000 1.0
C      1  0.4698220000000  0.5320060000000  0.4853100000000 1.0
C      1  0.4867900000000  0.4702050000000  0.5319030000000 1.0
C      1  0.5323440000000  0.4863400000000  0.4706050000000 1.0
C      1  0.5288710000000  0.5310900000000  0.5134290000000 1.0
C      1  0.4710170000000  0.4678420000000  0.5147190000000 1.0
C      1  0.5302500000000  0.4672180000000  0.4846570000000 1.0
C      1  0.5139430000000  0.4708020000000  0.4686700000000 1.0
C      1  0.4858480000000  0.5300810000000  0.4668030000000 1.0
C      1  0.5128850000000  0.5293210000000  0.5304470000000 1.0
C      1  0.4683020000000  0.4860660000000  0.5298660000000 1.0
C      1  0.5315800000000  0.5134170000000  0.5292810000000 1.0
C      1  0.4681770000000  0.5143160000000  0.4704110000000 1.0
C      1  0.4711750000000  0.4685970000000  0.4865520000000 1.0
C      1  0.4859000000000  0.5294360000000  0.5314380000000 1.0
C      1  0.5330940000000  0.5158370000000  0.4696480000000 1.0
C      1  0.5297030000000  0.4671840000000  0.5141040000000 1.0
C      1  0.4701340000000  0.5321980000000  0.5136900000000 1.0
C      1  0.5296270000000  0.5314080000000  0.4863900000000 1.0
C      1  0.5153520000000  0.5308570000000  0.4672240000000 1.0
C      1  0.4868400000000  0.4712800000000  0.4685990000000 1.0
C      1  0.5150100000000  0.4695220000000  0.5326970000000 1.0
C      1  0.4684350000000  0.5141280000000  0.5300900000000 1.0
C      1  0.5314590000000  0.4852890000000  0.5298710000000 1.0
C      1  0.4697600000000  0.4872510000000  0.4706730000000 1.0
C      1  0.5335340000000  0.5673110000000  0.5545250000000 1.0
C      1  0.5558950000000  0.5364190000000  0.5614610000000 1.0
C      1  0.5607950000000  0.5597690000000  0.5382430000000 1.0
C      1  0.4622340000000  0.5620070000000  0.4419120000000 1.0
C      1  0.5349250000000  0.4340080000000  0.4442980000000 1.0
C      1  0.4656710000000  0.4324350000000  0.5569720000000 1.0
C      1  0.4391760000000  0.5380360000000  0.4373490000000 1.0
C      1  0.5562350000000  0.4649090000000  0.4361130000000 1.0
C      1  0.4438110000000  0.4635170000000  0.5628110000000 1.0
C      1  0.4314020000000  0.5552760000000  0.4637460000000 1.0
C      1  0.5621080000000  0.4424190000000  0.4630100000000 1.0
C      1  0.4388760000000  0.4398490000000  0.5398220000000 1.0
C      1  0.5356190000000  0.4363260000000  0.5570640000000 1.0
C      1  0.5547130000000  0.4623680000000  0.5662630000000 1.0
C      1  0.5636010000000  0.4423720000000  0.5347320000000 1.0
C      1  0.4614980000000  0.4393770000000  0.4403100000000 1.0
C      1  0.5365560000000  0.5638710000000  0.4439720000000 1.0
C      1  0.4614030000000  0.5626550000000  0.5593210000000 1.0
C      1  0.4449070000000  0.4663730000000  0.4332680000000 1.0
C      1  0.5587330000000  0.5361470000000  0.4376710000000 1.0
C      1  0.4444630000000  0.5361830000000  0.5676190000000 1.0
C      1  0.4386070000000  0.4445160000000  0.4647050000000 1.0
C      1  0.5666320000000  0.5543890000000  0.4654700000000 1.0
C      1  0.4377880000000  0.5572420000000  0.5361640000000 1.0
END
