TITL C-1379266-1300-43 4.13781916346888e-07 1000000 -1740.92479523052 0 0 260 (C1) n - 1
REM
REM in /nfs/bkarasulu/CARBON/AIRSS/Generating-Clusters/GAP-ML-2020/Higher-Symm/Selected-Sizes/TryA-Only_Ih-Symm/Larger-Clusters/Try2-MINAMP_6A
REM
REM
REM
REM
REM
REM ./C.cell (31579ac4e95a012ec27f3239692ae8a5)
REM
REM compiler GCC version 9.2.1 20190827 (Red Hat 9.2.1-1)
REM options -cpp -mtune=generic -march=x86-64 -g -O0 -fpre-include=/usr/include/finclude/math-vector-fortran.h
REM seed 1872364985 245757243 -757553349 113795435 1836347600 -445123071 -1672405521 868970652 803006028 342069033 807002782 -1790075873 -1475508134 -1698411218 -1226526095 -341460808 -832132221 1068291259 -217626934 -118823025 -1960756914 233907073 1423206682 -233974893 1028153581 -1689183858 -729560425 -1989920405 -589495424 1202285249 2039626031 -13802339 -1378310797
REM
CELL 1.54180  100.00000  100.00000  100.00000   90.00000   90.00000   90.00000
LATT -1
SFAC C  
C      1  0.5352400000000  0.5816750000000  0.5143360000000 1.0
C      1  0.5029500000000  0.5300030000000  0.5793480000000 1.0
C      1  0.5773230000000  0.5119600000000  0.5374790000000 1.0
C      1  0.4490390000000  0.4190880000000  0.5116670000000 1.0
C      1  0.4653820000000  0.5772390000000  0.4903390000000 1.0
C      1  0.5317380000000  0.4276630000000  0.4979210000000 1.0
C      1  0.4865720000000  0.4489990000000  0.5836880000000 1.0
C      1  0.4949280000000  0.5258810000000  0.4253510000000 1.0
C      1  0.5098580000000  0.4650910000000  0.4229000000000 1.0
C      1  0.4177540000000  0.4866660000000  0.5435590000000 1.0
C      1  0.4210220000000  0.5042400000000  0.4666070000000 1.0
C      1  0.5658600000000  0.4871410000000  0.4680280000000 1.0
C      1  0.5352960000000  0.5808000000000  0.4846870000000 1.0
C      1  0.5212870000000  0.5275880000000  0.4277750000000 1.0
C      1  0.5772280000000  0.5084650000000  0.4652560000000 1.0
C      1  0.4593850000000  0.4211590000000  0.4856170000000 1.0
C      1  0.4546490000000  0.5763200000000  0.5168840000000 1.0
C      1  0.5289060000000  0.4394840000000  0.5262870000000 1.0
C      1  0.4837310000000  0.4526540000000  0.4208160000000 1.0
C      1  0.4766740000000  0.5244380000000  0.5637610000000 1.0
C      1  0.5139070000000  0.4623130000000  0.5815130000000 1.0
C      1  0.4337920000000  0.4763410000000  0.4700090000000 1.0
C      1  0.4270170000000  0.5148610000000  0.5424690000000 1.0
C      1  0.5784200000000  0.4860920000000  0.5483380000000 1.0
C      1  0.4474240000000  0.5712800000000  0.5052430000000 1.0
C      1  0.5121470000000  0.4479760000000  0.5783320000000 1.0
C      1  0.5751560000000  0.5030630000000  0.4519480000000 1.0
C      1  0.5406950000000  0.4335400000000  0.5213450000000 1.0
C      1  0.5455720000000  0.5742000000000  0.4926590000000 1.0
C      1  0.4463820000000  0.4261960000000  0.4879300000000 1.0
C      1  0.4851600000000  0.5356870000000  0.5617990000000 1.0
C      1  0.4951040000000  0.4462550000000  0.4272250000000 1.0
C      1  0.5137550000000  0.5398650000000  0.4294480000000 1.0
C      1  0.4261870000000  0.4801080000000  0.4587380000000 1.0
C      1  0.4309440000000  0.5060500000000  0.5536100000000 1.0
C      1  0.5728220000000  0.4972620000000  0.5556900000000 1.0
C      1  0.4514140000000  0.5753310000000  0.4911900000000 1.0
C      1  0.5090050000000  0.4503490000000  0.4249550000000 1.0
C      1  0.5756670000000  0.5115850000000  0.5512930000000 1.0
C      1  0.5387110000000  0.4298450000000  0.5089550000000 1.0
C      1  0.5454930000000  0.5746190000000  0.5072830000000 1.0
C      1  0.4434320000000  0.4282870000000  0.5021660000000 1.0
C      1  0.4997230000000  0.5408750000000  0.4267930000000 1.0
C      1  0.4989210000000  0.4440700000000  0.5766650000000 1.0
C      1  0.4975580000000  0.5378480000000  0.5688030000000 1.0
C      1  0.4289910000000  0.4925140000000  0.5521610000000 1.0
C      1  0.4225570000000  0.4926280000000  0.4602240000000 1.0
C      1  0.5707650000000  0.4892790000000  0.4543110000000 1.0
C      1  0.5247510000000  0.4542420000000  0.4713710000000 1.0
C      1  0.4616890000000  0.5307790000000  0.4389550000000 1.0
C      1  0.4485020000000  0.4660390000000  0.5263200000000 1.0
C      1  0.4819760000000  0.5622100000000  0.4681170000000 1.0
C      1  0.4753070000000  0.4322770000000  0.5441020000000 1.0
C      1  0.5292960000000  0.5610540000000  0.5459480000000 1.0
C      1  0.5321950000000  0.4801360000000  0.4292820000000 1.0
C      1  0.5306360000000  0.5286700000000  0.5556110000000 1.0
C      1  0.4694210000000  0.4666030000000  0.5547570000000 1.0
C      1  0.5560720000000  0.5308580000000  0.5210880000000 1.0
C      1  0.5559910000000  0.4763610000000  0.4719400000000 1.0
C      1  0.4485570000000  0.5312130000000  0.4717780000000 1.0
C      1  0.5231400000000  0.4454300000000  0.5378210000000 1.0
C      1  0.4680130000000  0.5177270000000  0.5541060000000 1.0
C      1  0.4420670000000  0.4660210000000  0.4755140000000 1.0
C      1  0.4832200000000  0.5510640000000  0.5276870000000 1.0
C      1  0.4773760000000  0.4442300000000  0.4690030000000 1.0
C      1  0.5300580000000  0.5511270000000  0.4710970000000 1.0
C      1  0.5307390000000  0.4803160000000  0.5612560000000 1.0
C      1  0.5348440000000  0.5236020000000  0.4296480000000 1.0
C      1  0.4703130000000  0.4811510000000  0.4449990000000 1.0
C      1  0.5570110000000  0.5247160000000  0.4717570000000 1.0
C      1  0.5497190000000  0.4780580000000  0.5222180000000 1.0
C      1  0.4451380000000  0.5280520000000  0.5200690000000 1.0
C      1  0.4556980000000  0.5375960000000  0.5234690000000 1.0
C      1  0.5256840000000  0.4580050000000  0.5446940000000 1.0
C      1  0.5422620000000  0.5249700000000  0.4420490000000 1.0
C      1  0.5385850000000  0.4701130000000  0.5265800000000 1.0
C      1  0.5492590000000  0.5302790000000  0.4626660000000 1.0
C      1  0.4536890000000  0.4578640000000  0.4710320000000 1.0
C      1  0.4786540000000  0.5386090000000  0.5332910000000 1.0
C      1  0.4741950000000  0.4538020000000  0.4583030000000 1.0
C      1  0.5294870000000  0.5410330000000  0.4595420000000 1.0
C      1  0.4637420000000  0.4763290000000  0.4569140000000 1.0
C      1  0.4616250000000  0.5220950000000  0.5416970000000 1.0
C      1  0.5397490000000  0.4774780000000  0.5498820000000 1.0
C      1  0.4568160000000  0.5438640000000  0.4698960000000 1.0
C      1  0.5267930000000  0.4611670000000  0.4578980000000 1.0
C      1  0.5430700000000  0.5308160000000  0.5470500000000 1.0
C      1  0.5480800000000  0.4724770000000  0.4618290000000 1.0
C      1  0.5482430000000  0.5417790000000  0.5254410000000 1.0
C      1  0.4546220000000  0.4510910000000  0.5277070000000 1.0
C      1  0.4773720000000  0.5530550000000  0.4582050000000 1.0
C      1  0.4682750000000  0.4432810000000  0.5485160000000 1.0
C      1  0.5398100000000  0.5541990000000  0.5454020000000 1.0
C      1  0.4580800000000  0.4631340000000  0.5466450000000 1.0
C      1  0.4611750000000  0.5409370000000  0.4460940000000 1.0
C      1  0.5388590000000  0.4778110000000  0.4415580000000 1.0
C      1  0.5569770000000  0.4929240000000  0.4521580000000 1.0
C      1  0.4612960000000  0.5628650000000  0.4899820000000 1.0
C      1  0.4984030000000  0.4582070000000  0.5707330000000 1.0
C      1  0.4456300000000  0.5067960000000  0.4739320000000 1.0
C      1  0.4337990000000  0.4970470000000  0.5391450000000 1.0
C      1  0.5627950000000  0.5115120000000  0.5421900000000 1.0
C      1  0.5224340000000  0.4516390000000  0.4959590000000 1.0
C      1  0.5372820000000  0.5615300000000  0.5081330000000 1.0
C      1  0.4578530000000  0.4342060000000  0.5040430000000 1.0
C      1  0.5055300000000  0.5283730000000  0.5585470000000 1.0
C      1  0.5086540000000  0.4613110000000  0.4369960000000 1.0
C      1  0.4947950000000  0.5397380000000  0.4406260000000 1.0
C      1  0.5624990000000  0.4965480000000  0.5440530000000 1.0
C      1  0.4596270000000  0.5616830000000  0.5048460000000 1.0
C      1  0.4937960000000  0.4585760000000  0.4367550000000 1.0
C      1  0.4388370000000  0.5099870000000  0.5351550000000 1.0
C      1  0.4505180000000  0.4931130000000  0.4744560000000 1.0
C      1  0.5598190000000  0.5080310000000  0.4526680000000 1.0
C      1  0.5220600000000  0.4563250000000  0.5098000000000 1.0
C      1  0.5359250000000  0.5616740000000  0.4928000000000 1.0
C      1  0.4589010000000  0.4357170000000  0.4887210000000 1.0
C      1  0.5089790000000  0.5344820000000  0.4434070000000 1.0
C      1  0.5111800000000  0.4644390000000  0.5673080000000 1.0
C      1  0.4929770000000  0.5261140000000  0.5511250000000 1.0
C      1  0.5113500000000  0.5215970000000  0.4365380000000 1.0
C      1  0.4176740000000  0.5090570000000  0.5328840000000 1.0
C      1  0.5203590000000  0.4433020000000  0.5151780000000 1.0
C      1  0.4879180000000  0.4656420000000  0.4240990000000 1.0
C      1  0.4884410000000  0.5164740000000  0.5616630000000 1.0
C      1  0.5017450000000  0.4688660000000  0.5871880000000 1.0
C      1  0.5752290000000  0.4915160000000  0.5360430000000 1.0
C      1  0.5626870000000  0.5120520000000  0.4672700000000 1.0
C      1  0.4375370000000  0.4878920000000  0.4779250000000 1.0
C      1  0.4671290000000  0.5739710000000  0.5113570000000 1.0
C      1  0.4667360000000  0.4150060000000  0.4956030000000 1.0
C      1  0.5257090000000  0.5724040000000  0.4926690000000 1.0
C      1  0.5010960000000  0.5189720000000  0.5694790000000 1.0
C      1  0.4321130000000  0.5021510000000  0.4760020000000 1.0
C      1  0.5212880000000  0.4378000000000  0.5009960000000 1.0
C      1  0.4906820000000  0.4623750000000  0.5831650000000 1.0
C      1  0.5002050000000  0.5148980000000  0.4318850000000 1.0
C      1  0.4984480000000  0.4719160000000  0.4181750000000 1.0
C      1  0.5681900000000  0.5002120000000  0.4745260000000 1.0
C      1  0.5814200000000  0.5016490000000  0.5293220000000 1.0
C      1  0.4190710000000  0.4955360000000  0.5330410000000 1.0
C      1  0.4734310000000  0.5805280000000  0.5012110000000 1.0
C      1  0.4624650000000  0.4199010000000  0.5079600000000 1.0
C      1  0.5258860000000  0.5724210000000  0.5086370000000 1.0
C      1  0.5155820000000  0.4577300000000  0.4492800000000 1.0
C      1  0.4512290000000  0.5179710000000  0.4665900000000 1.0
C      1  0.4573390000000  0.4457100000000  0.5146550000000 1.0
C      1  0.4892010000000  0.5494920000000  0.4493460000000 1.0
C      1  0.4777770000000  0.4543830000000  0.5551300000000 1.0
C      1  0.5177760000000  0.5334400000000  0.5523510000000 1.0
C      1  0.5500090000000  0.4869500000000  0.4416860000000 1.0
C      1  0.5511320000000  0.5187800000000  0.5476320000000 1.0
C      1  0.4529630000000  0.4731360000000  0.5380880000000 1.0
C      1  0.5434020000000  0.5494920000000  0.5130030000000 1.0
C      1  0.5294200000000  0.4578130000000  0.4847820000000 1.0
C      1  0.4561000000000  0.5514410000000  0.4824430000000 1.0
C      1  0.5143770000000  0.4597970000000  0.5543680000000 1.0
C      1  0.4525220000000  0.5109200000000  0.5380080000000 1.0
C      1  0.4574180000000  0.4490220000000  0.4828190000000 1.0
C      1  0.4909940000000  0.5316440000000  0.5383060000000 1.0
C      1  0.4856730000000  0.4538620000000  0.4491150000000 1.0
C      1  0.5171330000000  0.5420960000000  0.4533590000000 1.0
C      1  0.5496060000000  0.4883680000000  0.5489360000000 1.0
C      1  0.5530760000000  0.5152750000000  0.4422480000000 1.0
C      1  0.4590360000000  0.4885980000000  0.4641910000000 1.0
C      1  0.5380710000000  0.5506370000000  0.4828440000000 1.0
C      1  0.5315320000000  0.4657360000000  0.5141770000000 1.0
C      1  0.4556680000000  0.5481030000000  0.5129070000000 1.0
C      1  0.4410080000000  0.5325860000000  0.4841130000000 1.0
C      1  0.4881020000000  0.4367550000000  0.5426770000000 1.0
C      1  0.5383130000000  0.4904130000000  0.4218720000000 1.0
C      1  0.5520820000000  0.4730940000000  0.4852580000000 1.0
C      1  0.5578620000000  0.5311210000000  0.5072430000000 1.0
C      1  0.4451840000000  0.4667970000000  0.5125920000000 1.0
C      1  0.5169640000000  0.5565860000000  0.5406190000000 1.0
C      1  0.5137330000000  0.4449330000000  0.4695700000000 1.0
C      1  0.4953130000000  0.5654980000000  0.4665060000000 1.0
C      1  0.4629750000000  0.5173470000000  0.4425590000000 1.0
C      1  0.4679170000000  0.4809830000000  0.5550240000000 1.0
C      1  0.5326320000000  0.5164950000000  0.5634180000000 1.0
C      1  0.4403380000000  0.5305020000000  0.5072170000000 1.0
C      1  0.4908800000000  0.4408920000000  0.4686140000000 1.0
C      1  0.5325620000000  0.4934240000000  0.5653180000000 1.0
C      1  0.5513400000000  0.4771000000000  0.5082640000000 1.0
C      1  0.5562180000000  0.5306790000000  0.4844510000000 1.0
C      1  0.4430530000000  0.4663290000000  0.4896630000000 1.0
C      1  0.5184150000000  0.5603000000000  0.4685330000000 1.0
C      1  0.5096950000000  0.4419890000000  0.5407290000000 1.0
C      1  0.4967170000000  0.5533290000000  0.5301480000000 1.0
C      1  0.4666260000000  0.5036720000000  0.5543160000000 1.0
C      1  0.4686620000000  0.4948670000000  0.4433010000000 1.0
C      1  0.5408190000000  0.5132240000000  0.4220970000000 1.0
C      1  0.4951610000000  0.4464280000000  0.4559980000000 1.0
C      1  0.4622510000000  0.4991840000000  0.4555750000000 1.0
C      1  0.4524350000000  0.4568810000000  0.4932700000000 1.0
C      1  0.5121630000000  0.5541730000000  0.4573190000000 1.0
C      1  0.5040880000000  0.4514180000000  0.5492290000000 1.0
C      1  0.5016600000000  0.5408500000000  0.5355330000000 1.0
C      1  0.5518040000000  0.5080690000000  0.4297550000000 1.0
C      1  0.5441640000000  0.4975910000000  0.5577580000000 1.0
C      1  0.4578860000000  0.4991270000000  0.5442130000000 1.0
C      1  0.5475890000000  0.5415070000000  0.4885820000000 1.0
C      1  0.5396490000000  0.4699970000000  0.5035640000000 1.0
C      1  0.4470190000000  0.5427890000000  0.5035670000000 1.0
C      1  0.4902300000000  0.4494200000000  0.5502100000000 1.0
C      1  0.4582130000000  0.4851900000000  0.5442730000000 1.0
C      1  0.4530940000000  0.4563490000000  0.5067310000000 1.0
C      1  0.5136550000000  0.5429570000000  0.5423350000000 1.0
C      1  0.5085890000000  0.4481540000000  0.4565600000000 1.0
C      1  0.4992590000000  0.5576160000000  0.4550660000000 1.0
C      1  0.5444380000000  0.5111180000000  0.5573330000000 1.0
C      1  0.5504060000000  0.4941770000000  0.4296030000000 1.0
C      1  0.4589240000000  0.5128050000000  0.4555710000000 1.0
C      1  0.5493160000000  0.5419110000000  0.5025160000000 1.0
C      1  0.5398100000000  0.4668210000000  0.4898510000000 1.0
C      1  0.4468400000000  0.5441430000000  0.4900820000000 1.0
C      1  0.4741970000000  0.5038790000000  0.5854760000000 1.0
C      1  0.5732990000000  0.4783250000000  0.4947690000000 1.0
C      1  0.5132760000000  0.5944500000000  0.4791650000000 1.0
C      1  0.5210550000000  0.5065990000000  0.5835670000000 1.0
C      1  0.5183210000000  0.5150240000000  0.3996880000000 1.0
C      1  0.4737570000000  0.5082690000000  0.4221940000000 1.0
C      1  0.4210760000000  0.5208290000000  0.4938030000000 1.0
C      1  0.4125930000000  0.4762200000000  0.4941380000000 1.0
C      1  0.5874740000000  0.5171180000000  0.4874650000000 1.0
C      1  0.5037730000000  0.4258050000000  0.4835220000000 1.0
C      1  0.5078100000000  0.5765140000000  0.5293130000000 1.0
C      1  0.5125850000000  0.4110510000000  0.5285920000000 1.0
C      1  0.4796790000000  0.5117240000000  0.4117150000000 1.0
C      1  0.5846560000000  0.4770360000000  0.4896920000000 1.0
C      1  0.5113490000000  0.5881080000000  0.5260240000000 1.0
C      1  0.5246010000000  0.5058220000000  0.4056410000000 1.0
C      1  0.5137460000000  0.5099750000000  0.5932410000000 1.0
C      1  0.4738350000000  0.4960120000000  0.5756410000000 1.0
C      1  0.4102370000000  0.5155690000000  0.4900280000000 1.0
C      1  0.4233850000000  0.4750570000000  0.5005870000000 1.0
C      1  0.5761700000000  0.5201170000000  0.4920280000000 1.0
C      1  0.5040260000000  0.4197840000000  0.5316490000000 1.0
C      1  0.5084840000000  0.5833570000000  0.4754840000000 1.0
C      1  0.5064070000000  0.4156640000000  0.4905390000000 1.0
C      1  0.4335060000000  0.5261260000000  0.4951210000000 1.0
C      1  0.5005100000000  0.4319210000000  0.5372510000000 1.0
C      1  0.5338540000000  0.5024760000000  0.4152640000000 1.0
C      1  0.5598430000000  0.4774720000000  0.4966620000000 1.0
C      1  0.5640420000000  0.5257300000000  0.4953350000000 1.0
C      1  0.4366030000000  0.4712700000000  0.5014980000000 1.0
C      1  0.5067740000000  0.5632840000000  0.5325900000000 1.0
C      1  0.5028930000000  0.4368580000000  0.4757520000000 1.0
C      1  0.5076350000000  0.5700640000000  0.4728000000000 1.0
C      1  0.4690000000000  0.5065380000000  0.4350770000000 1.0
C      1  0.4712920000000  0.4930420000000  0.5625200000000 1.0
C      1  0.5271190000000  0.5054500000000  0.5714020000000 1.0
C      1  0.5394130000000  0.5323290000000  0.4541540000000 1.0
C      1  0.4584090000000  0.4501270000000  0.5413610000000 1.0
C      1  0.5354130000000  0.4676340000000  0.5403700000000 1.0
C      1  0.4652590000000  0.5336230000000  0.5336690000000 1.0
C      1  0.4646120000000  0.5466980000000  0.4582490000000 1.0
C      1  0.5373410000000  0.4700720000000  0.4539540000000 1.0
C      1  0.4629880000000  0.4625090000000  0.4610150000000 1.0
C      1  0.5449980000000  0.5426290000000  0.5394360000000 1.0
END
