TITL C-1379266-1300-21 -4.81793900134e-07 1000000 -4006.43399594564 0 0 560 (Th) n - 1
REM
REM in /nfs/bkarasulu/CARBON/AIRSS/Generating-Clusters/GAP-ML-2020/Higher-Symm/Selected-Sizes/TryA-Only_Ih-Symm/Larger-Clusters/Try2-MINAMP_6A
REM
REM
REM
REM
REM
REM ./C.cell (31579ac4e95a012ec27f3239692ae8a5)
REM
REM compiler GCC version 9.2.1 20190827 (Red Hat 9.2.1-1)
REM options -cpp -mtune=generic -march=x86-64 -g -O0 -fpre-include=/usr/include/finclude/math-vector-fortran.h
REM seed 412364900 -319461458 1672352188 400354147 -772032101 -83856357 -366654015 -374141567 527617385 -1552210058 -677266609 -724891014 113238657 -1428918738 -1848292889 -1141926641 1508825245 57886524 1455276201 -1683507600 -1483166822 -987817854 2007835586 -1387826773 1956197664 -786794986 1569734008 1832301207 -2020650910 1334618502 -2142747620 -727643493 296546237
REM
CELL 1.54180  100.00000  100.00000  100.00000   90.00000   90.00000   90.00000
LATT -1
SFAC C  
C      1  0.5365840000000  0.5460930000000  0.5258600000000 1.0
C      1  0.5256780000000  0.5367520000000  0.5461060000000 1.0
C      1  0.5459250000000  0.5258470000000  0.5367660000000 1.0
C      1  0.4634420000000  0.4542700000000  0.5258600000000 1.0
C      1  0.4634420000000  0.5460930000000  0.4745290000000 1.0
C      1  0.5365840000000  0.4542700000000  0.4745290000000 1.0
C      1  0.4743480000000  0.4636110000000  0.5461060000000 1.0
C      1  0.4743480000000  0.5367530000000  0.4542830000000 1.0
C      1  0.5256780000000  0.4636100000000  0.4542830000000 1.0
C      1  0.4541020000000  0.4745160000000  0.5367650000000 1.0
C      1  0.4541020000000  0.5258470000000  0.4636240000000 1.0
C      1  0.5459250000000  0.4745160000000  0.4636230000000 1.0
C      1  0.5365840000000  0.5460930000000  0.4745290000000 1.0
C      1  0.5256780000000  0.5367530000000  0.4542830000000 1.0
C      1  0.5459250000000  0.5258470000000  0.4636230000000 1.0
C      1  0.4634420000000  0.4542700000000  0.4745290000000 1.0
C      1  0.4634420000000  0.5460930000000  0.5258600000000 1.0
C      1  0.5365840000000  0.4542700000000  0.5258600000000 1.0
C      1  0.4743480000000  0.4636100000000  0.4542830000000 1.0
C      1  0.4743480000000  0.5367520000000  0.5461060000000 1.0
C      1  0.5256780000000  0.4636110000000  0.5461060000000 1.0
C      1  0.4541020000000  0.4745160000000  0.4636240000000 1.0
C      1  0.4541020000000  0.5258470000000  0.5367650000000 1.0
C      1  0.5459250000000  0.4745160000000  0.5367660000000 1.0
C      1  0.4429970000000  0.5364080000000  0.4539610000000 1.0
C      1  0.4537790000000  0.4431660000000  0.5364210000000 1.0
C      1  0.5362400000000  0.4539470000000  0.4431790000000 1.0
C      1  0.5570290000000  0.4639550000000  0.4539600000000 1.0
C      1  0.5570290000000  0.5364080000000  0.5464290000000 1.0
C      1  0.4429970000000  0.4639550000000  0.5464280000000 1.0
C      1  0.5462470000000  0.5571970000000  0.5364210000000 1.0
C      1  0.5462470000000  0.4431660000000  0.4639680000000 1.0
C      1  0.4537790000000  0.5571980000000  0.4639680000000 1.0
C      1  0.4637860000000  0.5464160000000  0.4431790000000 1.0
C      1  0.4637860000000  0.4539480000000  0.5572100000000 1.0
C      1  0.5362400000000  0.5464150000000  0.5572110000000 1.0
C      1  0.4429970000000  0.5364080000000  0.5464290000000 1.0
C      1  0.4537790000000  0.4431660000000  0.4639680000000 1.0
C      1  0.5362400000000  0.4539480000000  0.5572110000000 1.0
C      1  0.5570290000000  0.4639550000000  0.5464290000000 1.0
C      1  0.5570290000000  0.5364080000000  0.4539600000000 1.0
C      1  0.4429970000000  0.4639550000000  0.4539610000000 1.0
C      1  0.5462470000000  0.5571970000000  0.4639680000000 1.0
C      1  0.5462470000000  0.4431660000000  0.5364210000000 1.0
C      1  0.4537790000000  0.5571970000000  0.5364210000000 1.0
C      1  0.4637860000000  0.5464150000000  0.5572100000000 1.0
C      1  0.4637860000000  0.4539470000000  0.4431790000000 1.0
C      1  0.5362400000000  0.5464160000000  0.4431790000000 1.0
C      1  0.5158860000000  0.4206600000000  0.5083870000000 1.0
C      1  0.5082050000000  0.5160550000000  0.4206730000000 1.0
C      1  0.4204920000000  0.5083740000000  0.5160680000000 1.0
C      1  0.4841400000000  0.5797030000000  0.5083870000000 1.0
C      1  0.4841400000000  0.4206600000000  0.4920030000000 1.0
C      1  0.5158860000000  0.5797030000000  0.4920030000000 1.0
C      1  0.4918210000000  0.4843080000000  0.4206730000000 1.0
C      1  0.4918210000000  0.5160550000000  0.5797160000000 1.0
C      1  0.5082050000000  0.4843080000000  0.5797160000000 1.0
C      1  0.5795340000000  0.4919890000000  0.5160680000000 1.0
C      1  0.5795340000000  0.5083740000000  0.4843210000000 1.0
C      1  0.4204920000000  0.4919890000000  0.4843210000000 1.0
C      1  0.5158860000000  0.4206600000000  0.4920030000000 1.0
C      1  0.5082050000000  0.5160550000000  0.5797160000000 1.0
C      1  0.4204920000000  0.5083740000000  0.4843210000000 1.0
C      1  0.4841400000000  0.5797030000000  0.4920030000000 1.0
C      1  0.4841400000000  0.4206600000000  0.5083870000000 1.0
C      1  0.5158860000000  0.5797030000000  0.5083870000000 1.0
C      1  0.4918210000000  0.4843080000000  0.5797160000000 1.0
C      1  0.4918210000000  0.5160550000000  0.4206730000000 1.0
C      1  0.5082050000000  0.4843080000000  0.4206730000000 1.0
C      1  0.5795340000000  0.4919890000000  0.4843210000000 1.0
C      1  0.5795340000000  0.5083740000000  0.5160680000000 1.0
C      1  0.4204920000000  0.4919890000000  0.5160680000000 1.0
C      1  0.4855970000000  0.4929720000000  0.4316750000000 1.0
C      1  0.4314930000000  0.4857660000000  0.4929850000000 1.0
C      1  0.4928040000000  0.4316620000000  0.4857790000000 1.0
C      1  0.5144290000000  0.5073910000000  0.4316750000000 1.0
C      1  0.5144290000000  0.4929720000000  0.5687150000000 1.0
C      1  0.4855970000000  0.5073910000000  0.5687140000000 1.0
C      1  0.5685330000000  0.5145970000000  0.4929850000000 1.0
C      1  0.5685330000000  0.4857660000000  0.5074040000000 1.0
C      1  0.4314930000000  0.5145970000000  0.5074040000000 1.0
C      1  0.5072230000000  0.5687010000000  0.4857790000000 1.0
C      1  0.5072230000000  0.4316620000000  0.5146100000000 1.0
C      1  0.4928040000000  0.5687010000000  0.5146100000000 1.0
C      1  0.4855970000000  0.4929720000000  0.5687140000000 1.0
C      1  0.4314930000000  0.4857660000000  0.5074040000000 1.0
C      1  0.4928040000000  0.4316620000000  0.5146100000000 1.0
C      1  0.5144290000000  0.5073910000000  0.5687150000000 1.0
C      1  0.5144290000000  0.4929720000000  0.4316750000000 1.0
C      1  0.4855970000000  0.5073910000000  0.4316750000000 1.0
C      1  0.5685330000000  0.5145970000000  0.5074040000000 1.0
C      1  0.5685330000000  0.4857660000000  0.4929850000000 1.0
C      1  0.4314930000000  0.5145970000000  0.4929850000000 1.0
C      1  0.5072230000000  0.5687010000000  0.5146100000000 1.0
C      1  0.5072230000000  0.4316620000000  0.4857790000000 1.0
C      1  0.4928040000000  0.5687010000000  0.4857790000000 1.0
C      1  0.5077540000000  0.4332820000000  0.4701950000000 1.0
C      1  0.4700140000000  0.5079220000000  0.4332960000000 1.0
C      1  0.4331140000000  0.4701820000000  0.5079350000000 1.0
C      1  0.4922730000000  0.5670810000000  0.4701950000000 1.0
C      1  0.4922730000000  0.4332820000000  0.5301940000000 1.0
C      1  0.5077540000000  0.5670810000000  0.5301940000000 1.0
C      1  0.5300120000000  0.4924410000000  0.4332950000000 1.0
C      1  0.5300120000000  0.5079220000000  0.5670940000000 1.0
C      1  0.4700140000000  0.4924410000000  0.5670940000000 1.0
C      1  0.5669120000000  0.5301810000000  0.5079350000000 1.0
C      1  0.5669120000000  0.4701820000000  0.4924540000000 1.0
C      1  0.4331140000000  0.5301810000000  0.4924540000000 1.0
C      1  0.5077540000000  0.4332830000000  0.5301940000000 1.0
C      1  0.4700140000000  0.5079220000000  0.5670940000000 1.0
C      1  0.4331140000000  0.4701820000000  0.4924540000000 1.0
C      1  0.4922730000000  0.5670810000000  0.5301940000000 1.0
C      1  0.4922730000000  0.4332820000000  0.4701950000000 1.0
C      1  0.5077540000000  0.5670810000000  0.4701950000000 1.0
C      1  0.5300120000000  0.4924410000000  0.5670940000000 1.0
C      1  0.5300120000000  0.5079220000000  0.4332950000000 1.0
C      1  0.4700140000000  0.4924410000000  0.4332960000000 1.0
C      1  0.5669120000000  0.5301810000000  0.4924540000000 1.0
C      1  0.5669120000000  0.4701820000000  0.5079350000000 1.0
C      1  0.4331140000000  0.5301810000000  0.5079350000000 1.0
C      1  0.5337220000000  0.4482480000000  0.5131800000000 1.0
C      1  0.5129980000000  0.5338910000000  0.4482610000000 1.0
C      1  0.4480800000000  0.5131670000000  0.5339030000000 1.0
C      1  0.4663040000000  0.5521150000000  0.5131800000000 1.0
C      1  0.4663040000000  0.4482480000000  0.4872090000000 1.0
C      1  0.5337220000000  0.5521150000000  0.4872090000000 1.0
C      1  0.4870280000000  0.4664720000000  0.4482610000000 1.0
C      1  0.4870280000000  0.5338900000000  0.5521280000000 1.0
C      1  0.5129980000000  0.4664730000000  0.5521280000000 1.0
C      1  0.5519470000000  0.4871960000000  0.5339040000000 1.0
C      1  0.5519460000000  0.5131670000000  0.4664850000000 1.0
C      1  0.4480800000000  0.4871960000000  0.4664860000000 1.0
C      1  0.5337220000000  0.4482480000000  0.4872090000000 1.0
C      1  0.5129980000000  0.5338900000000  0.5521280000000 1.0
C      1  0.4480800000000  0.5131670000000  0.4664860000000 1.0
C      1  0.4663040000000  0.5521150000000  0.4872090000000 1.0
C      1  0.4663040000000  0.4482480000000  0.5131800000000 1.0
C      1  0.5337220000000  0.5521150000000  0.5131800000000 1.0
C      1  0.4870280000000  0.4664730000000  0.5521280000000 1.0
C      1  0.4870280000000  0.5338910000000  0.4482610000000 1.0
C      1  0.5129980000000  0.4664720000000  0.4482610000000 1.0
C      1  0.5519460000000  0.4871960000000  0.4664850000000 1.0
C      1  0.5519470000000  0.5131670000000  0.5339040000000 1.0
C      1  0.4480800000000  0.4871960000000  0.5339030000000 1.0
C      1  0.5273570000000  0.4174210000000  0.5559150000000 1.0
C      1  0.5557330000000  0.5275250000000  0.4174330000000 1.0
C      1  0.4172520000000  0.5559010000000  0.5275380000000 1.0
C      1  0.4726700000000  0.5829420000000  0.5559150000000 1.0
C      1  0.4726700000000  0.4174200000000  0.4444750000000 1.0
C      1  0.5273570000000  0.5829430000000  0.4444750000000 1.0
C      1  0.4442930000000  0.4728380000000  0.4174340000000 1.0
C      1  0.4442930000000  0.5275250000000  0.5829560000000 1.0
C      1  0.5557330000000  0.4728380000000  0.5829560000000 1.0
C      1  0.5827740000000  0.4444620000000  0.5275380000000 1.0
C      1  0.5827740000000  0.5559010000000  0.4728510000000 1.0
C      1  0.4172520000000  0.4444620000000  0.4728510000000 1.0
C      1  0.5273570000000  0.4174200000000  0.4444750000000 1.0
C      1  0.5557330000000  0.5275250000000  0.5829560000000 1.0
C      1  0.4172520000000  0.5559010000000  0.4728510000000 1.0
C      1  0.4726700000000  0.5829430000000  0.4444750000000 1.0
C      1  0.4726700000000  0.4174210000000  0.5559140000000 1.0
C      1  0.5273570000000  0.5829420000000  0.5559150000000 1.0
C      1  0.4442930000000  0.4728380000000  0.5829560000000 1.0
C      1  0.4442930000000  0.5275250000000  0.4174340000000 1.0
C      1  0.5557330000000  0.4728380000000  0.4174330000000 1.0
C      1  0.5827740000000  0.4444620000000  0.4728510000000 1.0
C      1  0.5827740000000  0.5559010000000  0.5275380000000 1.0
C      1  0.4172520000000  0.4444620000000  0.5275380000000 1.0
C      1  0.4499210000000  0.5157890000000  0.5792270000000 1.0
C      1  0.5790460000000  0.4500890000000  0.5158020000000 1.0
C      1  0.5156210000000  0.5792140000000  0.4501030000000 1.0
C      1  0.5501050000000  0.4845740000000  0.5792270000000 1.0
C      1  0.5501050000000  0.5157890000000  0.4211620000000 1.0
C      1  0.4499210000000  0.4845740000000  0.4211620000000 1.0
C      1  0.4209810000000  0.5502740000000  0.5158020000000 1.0
C      1  0.4209810000000  0.4500890000000  0.4845870000000 1.0
C      1  0.5790460000000  0.5502740000000  0.4845870000000 1.0
C      1  0.4844050000000  0.4211490000000  0.4501030000000 1.0
C      1  0.4844050000000  0.5792140000000  0.5502870000000 1.0
C      1  0.5156210000000  0.4211490000000  0.5502870000000 1.0
C      1  0.4499210000000  0.5157890000000  0.4211620000000 1.0
C      1  0.5790460000000  0.4500890000000  0.4845870000000 1.0
C      1  0.5156210000000  0.5792140000000  0.5502870000000 1.0
C      1  0.5501050000000  0.4845740000000  0.4211620000000 1.0
C      1  0.5501050000000  0.5157890000000  0.5792270000000 1.0
C      1  0.4499210000000  0.4845740000000  0.5792270000000 1.0
C      1  0.4209810000000  0.5502740000000  0.4845870000000 1.0
C      1  0.4209810000000  0.4500890000000  0.5158020000000 1.0
C      1  0.5790460000000  0.5502740000000  0.5158020000000 1.0
C      1  0.4844050000000  0.4211490000000  0.5502870000000 1.0
C      1  0.4844050000000  0.5792140000000  0.4501030000000 1.0
C      1  0.5156210000000  0.4211490000000  0.4501030000000 1.0
C      1  0.4612410000000  0.4619860000000  0.4306150000000 1.0
C      1  0.4304330000000  0.4614100000000  0.4619990000000 1.0
C      1  0.4618170000000  0.4306010000000  0.4614230000000 1.0
C      1  0.5387850000000  0.5383770000000  0.4306140000000 1.0
C      1  0.5387850000000  0.4619860000000  0.5697750000000 1.0
C      1  0.4612410000000  0.5383770000000  0.5697750000000 1.0
C      1  0.5695930000000  0.5389530000000  0.4619990000000 1.0
C      1  0.5695930000000  0.4614100000000  0.5383900000000 1.0
C      1  0.4304330000000  0.5389530000000  0.5383900000000 1.0
C      1  0.5382090000000  0.5697620000000  0.4614230000000 1.0
C      1  0.5382090000000  0.4306020000000  0.5389660000000 1.0
C      1  0.4618170000000  0.5697610000000  0.5389660000000 1.0
C      1  0.4612410000000  0.4619860000000  0.5697750000000 1.0
C      1  0.4304330000000  0.4614100000000  0.5383900000000 1.0
C      1  0.4618170000000  0.4306020000000  0.5389660000000 1.0
C      1  0.5387850000000  0.5383770000000  0.5697750000000 1.0
C      1  0.5387850000000  0.4619860000000  0.4306140000000 1.0
C      1  0.4612410000000  0.5383770000000  0.4306150000000 1.0
C      1  0.5695930000000  0.5389530000000  0.5383900000000 1.0
C      1  0.5695930000000  0.4614100000000  0.4619990000000 1.0
C      1  0.4304330000000  0.5389530000000  0.4619990000000 1.0
C      1  0.5382090000000  0.5697610000000  0.5389660000000 1.0
C      1  0.5382090000000  0.4306010000000  0.4614230000000 1.0
C      1  0.4618170000000  0.5697620000000  0.4614230000000 1.0
C      1  0.5392760000000  0.5758320000000  0.4931490000000 1.0
C      1  0.4929680000000  0.5394440000000  0.5758450000000 1.0
C      1  0.5756640000000  0.4931360000000  0.5394570000000 1.0
C      1  0.4607510000000  0.4245310000000  0.4931490000000 1.0
C      1  0.4607510000000  0.5758320000000  0.5072400000000 1.0
C      1  0.5392760000000  0.4245310000000  0.5072400000000 1.0
C      1  0.5070580000000  0.4609190000000  0.5758450000000 1.0
C      1  0.5070580000000  0.5394440000000  0.4245440000000 1.0
C      1  0.4929680000000  0.4609190000000  0.4245440000000 1.0
C      1  0.4243620000000  0.5072270000000  0.5394570000000 1.0
C      1  0.4243630000000  0.4931360000000  0.4609320000000 1.0
C      1  0.5756640000000  0.5072270000000  0.4609320000000 1.0
C      1  0.5392760000000  0.5758320000000  0.5072400000000 1.0
C      1  0.4929680000000  0.5394440000000  0.4245440000000 1.0
C      1  0.5756640000000  0.4931360000000  0.4609320000000 1.0
C      1  0.4607510000000  0.4245310000000  0.5072400000000 1.0
C      1  0.4607510000000  0.5758320000000  0.4931490000000 1.0
C      1  0.5392760000000  0.4245310000000  0.4931490000000 1.0
C      1  0.5070580000000  0.4609190000000  0.4245440000000 1.0
C      1  0.5070580000000  0.5394440000000  0.5758450000000 1.0
C      1  0.4929680000000  0.4609190000000  0.5758450000000 1.0
C      1  0.4243630000000  0.5072270000000  0.4609320000000 1.0
C      1  0.4243620000000  0.4931360000000  0.5394570000000 1.0
C      1  0.5756640000000  0.5072270000000  0.5394570000000 1.0
C      1  0.4479190000000  0.4714240000000  0.4878710000000 1.0
C      1  0.4876900000000  0.4480870000000  0.4714370000000 1.0
C      1  0.4712560000000  0.4878580000000  0.4481010000000 1.0
C      1  0.5521070000000  0.5289390000000  0.4878710000000 1.0
C      1  0.5521070000000  0.4714240000000  0.5125180000000 1.0
C      1  0.4479190000000  0.5289390000000  0.5125180000000 1.0
C      1  0.5123370000000  0.5522760000000  0.4714370000000 1.0
C      1  0.5123370000000  0.4480880000000  0.5289520000000 1.0
C      1  0.4876900000000  0.5522760000000  0.5289520000000 1.0
C      1  0.5287710000000  0.5125050000000  0.4481000000000 1.0
C      1  0.5287710000000  0.4878580000000  0.5522890000000 1.0
C      1  0.4712550000000  0.5125050000000  0.5522890000000 1.0
C      1  0.4479190000000  0.4714240000000  0.5125180000000 1.0
C      1  0.4876900000000  0.4480870000000  0.5289520000000 1.0
C      1  0.4712550000000  0.4878580000000  0.5522890000000 1.0
C      1  0.5521070000000  0.5289390000000  0.5125180000000 1.0
C      1  0.5521070000000  0.4714240000000  0.4878710000000 1.0
C      1  0.4479190000000  0.5289390000000  0.4878710000000 1.0
C      1  0.5123370000000  0.5522750000000  0.5289520000000 1.0
C      1  0.5123370000000  0.4480870000000  0.4714370000000 1.0
C      1  0.4876900000000  0.5522760000000  0.4714370000000 1.0
C      1  0.5287710000000  0.5125050000000  0.5522890000000 1.0
C      1  0.5287710000000  0.4878580000000  0.4481000000000 1.0
C      1  0.4712560000000  0.5125050000000  0.4481010000000 1.0
C      1  0.4706840000000  0.4235540000000  0.4705630000000 1.0
C      1  0.4703820000000  0.4708520000000  0.4235670000000 1.0
C      1  0.4233860000000  0.4705500000000  0.4708650000000 1.0
C      1  0.5293420000000  0.5768090000000  0.4705630000000 1.0
C      1  0.5293420000000  0.4235540000000  0.5298260000000 1.0
C      1  0.4706840000000  0.5768090000000  0.5298260000000 1.0
C      1  0.5296440000000  0.5295110000000  0.4235670000000 1.0
C      1  0.5296450000000  0.4708520000000  0.5768220000000 1.0
C      1  0.4703810000000  0.5295110000000  0.5768220000000 1.0
C      1  0.5766400000000  0.5298130000000  0.4708650000000 1.0
C      1  0.5766410000000  0.4705500000000  0.5295240000000 1.0
C      1  0.4233860000000  0.5298130000000  0.5295240000000 1.0
C      1  0.4706840000000  0.4235540000000  0.5298260000000 1.0
C      1  0.4703810000000  0.4708520000000  0.5768220000000 1.0
C      1  0.4233860000000  0.4705500000000  0.5295240000000 1.0
C      1  0.5293420000000  0.5768090000000  0.5298260000000 1.0
C      1  0.5293420000000  0.4235540000000  0.4705630000000 1.0
C      1  0.4706840000000  0.5768090000000  0.4705630000000 1.0
C      1  0.5296450000000  0.5295110000000  0.5768220000000 1.0
C      1  0.5296440000000  0.4708520000000  0.4235670000000 1.0
C      1  0.4703820000000  0.5295110000000  0.4235670000000 1.0
C      1  0.5766410000000  0.5298130000000  0.5295240000000 1.0
C      1  0.5766400000000  0.4705500000000  0.4708650000000 1.0
C      1  0.4233860000000  0.5298130000000  0.4708650000000 1.0
C      1  0.4554310000000  0.5615390000000  0.4924210000000 1.0
C      1  0.4922400000000  0.4556000000000  0.5615520000000 1.0
C      1  0.5613710000000  0.4924080000000  0.4556120000000 1.0
C      1  0.5445950000000  0.4388240000000  0.4924210000000 1.0
C      1  0.5445950000000  0.5615390000000  0.5079680000000 1.0
C      1  0.4554310000000  0.4388240000000  0.5079680000000 1.0
C      1  0.5077860000000  0.5447630000000  0.5615520000000 1.0
C      1  0.5077860000000  0.4555990000000  0.4388370000000 1.0
C      1  0.4922400000000  0.5447640000000  0.4388370000000 1.0
C      1  0.4386560000000  0.5079550000000  0.4556130000000 1.0
C      1  0.4386550000000  0.4924080000000  0.5447770000000 1.0
C      1  0.5613710000000  0.5079550000000  0.5447770000000 1.0
C      1  0.4554310000000  0.5615390000000  0.5079680000000 1.0
C      1  0.4922400000000  0.4555990000000  0.4388370000000 1.0
C      1  0.5613710000000  0.4924080000000  0.5447770000000 1.0
C      1  0.5445950000000  0.4388240000000  0.5079680000000 1.0
C      1  0.5445950000000  0.5615390000000  0.4924210000000 1.0
C      1  0.4554310000000  0.4388240000000  0.4924210000000 1.0
C      1  0.5077860000000  0.5447640000000  0.4388370000000 1.0
C      1  0.5077860000000  0.4556000000000  0.5615520000000 1.0
C      1  0.4922400000000  0.5447630000000  0.5615520000000 1.0
C      1  0.4386550000000  0.5079550000000  0.5447770000000 1.0
C      1  0.4386560000000  0.4924080000000  0.4556130000000 1.0
C      1  0.5613710000000  0.5079550000000  0.4556120000000 1.0
C      1  0.4914880000000  0.5528640000000  0.4859240000000 1.0
C      1  0.4857420000000  0.4916560000000  0.5528770000000 1.0
C      1  0.5526960000000  0.4859110000000  0.4916690000000 1.0
C      1  0.5085390000000  0.4474990000000  0.4859230000000 1.0
C      1  0.5085390000000  0.5528640000000  0.5144660000000 1.0
C      1  0.4914880000000  0.4474990000000  0.5144660000000 1.0
C      1  0.5142840000000  0.5087070000000  0.5528780000000 1.0
C      1  0.5142840000000  0.4916560000000  0.4475120000000 1.0
C      1  0.4857420000000  0.5087070000000  0.4475120000000 1.0
C      1  0.4473300000000  0.5144530000000  0.4916690000000 1.0
C      1  0.4473300000000  0.4859100000000  0.5087200000000 1.0
C      1  0.5526960000000  0.5144520000000  0.5087200000000 1.0
C      1  0.4914880000000  0.5528640000000  0.5144660000000 1.0
C      1  0.4857420000000  0.4916560000000  0.4475120000000 1.0
C      1  0.5526960000000  0.4859110000000  0.5087200000000 1.0
C      1  0.5085390000000  0.4474990000000  0.5144660000000 1.0
C      1  0.5085390000000  0.5528640000000  0.4859240000000 1.0
C      1  0.4914880000000  0.4474990000000  0.4859240000000 1.0
C      1  0.5142840000000  0.5087070000000  0.4475120000000 1.0
C      1  0.5142840000000  0.4916560000000  0.5528780000000 1.0
C      1  0.4857420000000  0.5087070000000  0.5528770000000 1.0
C      1  0.4473300000000  0.5144530000000  0.5087200000000 1.0
C      1  0.4473300000000  0.4859100000000  0.4916690000000 1.0
C      1  0.5526960000000  0.5144520000000  0.4916690000000 1.0
C      1  0.4931170000000  0.4307070000000  0.5574760000000 1.0
C      1  0.5572950000000  0.4932850000000  0.4307190000000 1.0
C      1  0.4305380000000  0.5574630000000  0.4932980000000 1.0
C      1  0.5069090000000  0.5696560000000  0.5574760000000 1.0
C      1  0.5069090000000  0.4307060000000  0.4429130000000 1.0
C      1  0.4931170000000  0.5696570000000  0.4429130000000 1.0
C      1  0.4427310000000  0.5070780000000  0.4307200000000 1.0
C      1  0.4427310000000  0.4932850000000  0.5696690000000 1.0
C      1  0.5572950000000  0.5070780000000  0.5696700000000 1.0
C      1  0.5694880000000  0.4429000000000  0.4932980000000 1.0
C      1  0.5694880000000  0.5574630000000  0.5070910000000 1.0
C      1  0.4305380000000  0.4429000000000  0.5070910000000 1.0
C      1  0.4931170000000  0.4307060000000  0.4429130000000 1.0
C      1  0.5572950000000  0.4932850000000  0.5696700000000 1.0
C      1  0.4305380000000  0.5574630000000  0.5070910000000 1.0
C      1  0.5069090000000  0.5696570000000  0.4429130000000 1.0
C      1  0.5069090000000  0.4307070000000  0.5574760000000 1.0
C      1  0.4931170000000  0.5696560000000  0.5574760000000 1.0
C      1  0.4427310000000  0.5070780000000  0.5696690000000 1.0
C      1  0.4427310000000  0.4932850000000  0.4307200000000 1.0
C      1  0.5572950000000  0.5070780000000  0.4307190000000 1.0
C      1  0.5694880000000  0.4429000000000  0.5070910000000 1.0
C      1  0.5694880000000  0.5574630000000  0.4932980000000 1.0
C      1  0.4305380000000  0.4429000000000  0.4932980000000 1.0
C      1  0.5447360000000  0.5335120000000  0.5239030000000 1.0
C      1  0.5237220000000  0.5449040000000  0.5335250000000 1.0
C      1  0.5333440000000  0.5238900000000  0.5449180000000 1.0
C      1  0.4552900000000  0.4668510000000  0.5239030000000 1.0
C      1  0.4552900000000  0.5335120000000  0.4764860000000 1.0
C      1  0.5447360000000  0.4668510000000  0.4764860000000 1.0
C      1  0.4763050000000  0.4554580000000  0.5335250000000 1.0
C      1  0.4763050000000  0.5449050000000  0.4668640000000 1.0
C      1  0.5237220000000  0.4554580000000  0.4668640000000 1.0
C      1  0.4666820000000  0.4764730000000  0.5449180000000 1.0
C      1  0.4666830000000  0.5238900000000  0.4554720000000 1.0
C      1  0.5333440000000  0.4764730000000  0.4554710000000 1.0
C      1  0.5447360000000  0.5335120000000  0.4764860000000 1.0
C      1  0.5237220000000  0.5449050000000  0.4668640000000 1.0
C      1  0.5333440000000  0.5238900000000  0.4554710000000 1.0
C      1  0.4552900000000  0.4668510000000  0.4764860000000 1.0
C      1  0.4552900000000  0.5335120000000  0.5239030000000 1.0
C      1  0.5447360000000  0.4668510000000  0.5239030000000 1.0
C      1  0.4763050000000  0.4554580000000  0.4668640000000 1.0
C      1  0.4763050000000  0.5449050000000  0.5335250000000 1.0
C      1  0.5237220000000  0.4554590000000  0.5335250000000 1.0
C      1  0.4666820000000  0.4764730000000  0.4554720000000 1.0
C      1  0.4666820000000  0.5238900000000  0.5449180000000 1.0
C      1  0.5333440000000  0.4764730000000  0.5449180000000 1.0
C      1  0.4422700000000  0.5601580000000  0.5145410000000 1.0
C      1  0.5143600000000  0.4424390000000  0.5601710000000 1.0
C      1  0.5599900000000  0.5145280000000  0.4424510000000 1.0
C      1  0.5577560000000  0.4402050000000  0.5145410000000 1.0
C      1  0.5577560000000  0.5601580000000  0.4858480000000 1.0
C      1  0.4422700000000  0.4402050000000  0.4858480000000 1.0
C      1  0.4856660000000  0.5579250000000  0.5601710000000 1.0
C      1  0.4856660000000  0.4424380000000  0.4402180000000 1.0
C      1  0.5143600000000  0.5579250000000  0.4402180000000 1.0
C      1  0.4400370000000  0.4858350000000  0.4424520000000 1.0
C      1  0.4400360000000  0.5145280000000  0.5579380000000 1.0
C      1  0.5599900000000  0.4858350000000  0.5579380000000 1.0
C      1  0.4422700000000  0.5601580000000  0.4858480000000 1.0
C      1  0.5143600000000  0.4424380000000  0.4402180000000 1.0
C      1  0.5599900000000  0.5145280000000  0.5579380000000 1.0
C      1  0.5577560000000  0.4402050000000  0.4858480000000 1.0
C      1  0.5577560000000  0.5601580000000  0.5145410000000 1.0
C      1  0.4422700000000  0.4402050000000  0.5145410000000 1.0
C      1  0.4856660000000  0.5579250000000  0.4402180000000 1.0
C      1  0.4856660000000  0.4424380000000  0.5601710000000 1.0
C      1  0.5143600000000  0.5579250000000  0.5601710000000 1.0
C      1  0.4400360000000  0.4858350000000  0.5579380000000 1.0
C      1  0.4400370000000  0.5145280000000  0.4424520000000 1.0
C      1  0.5599900000000  0.4858350000000  0.4424510000000 1.0
C      1  0.4294710000000  0.4479260000000  0.4672550000000 1.0
C      1  0.4670730000000  0.4296390000000  0.4479400000000 1.0
C      1  0.4477580000000  0.4672410000000  0.4296520000000 1.0
C      1  0.5705550000000  0.5524370000000  0.4672540000000 1.0
C      1  0.5705550000000  0.4479270000000  0.5331350000000 1.0
C      1  0.4294710000000  0.5524370000000  0.5331350000000 1.0
C      1  0.5329530000000  0.5707240000000  0.4479400000000 1.0
C      1  0.5329530000000  0.4296400000000  0.5524500000000 1.0
C      1  0.4670730000000  0.5707240000000  0.5524500000000 1.0
C      1  0.5522680000000  0.5331220000000  0.4296520000000 1.0
C      1  0.5522680000000  0.4672410000000  0.5707370000000 1.0
C      1  0.4477580000000  0.5331220000000  0.5707370000000 1.0
C      1  0.4294710000000  0.4479260000000  0.5331350000000 1.0
C      1  0.4670730000000  0.4296390000000  0.5524500000000 1.0
C      1  0.4477580000000  0.4672410000000  0.5707370000000 1.0
C      1  0.5705550000000  0.5524360000000  0.5331350000000 1.0
C      1  0.5705550000000  0.4479260000000  0.4672540000000 1.0
C      1  0.4294710000000  0.5524370000000  0.4672550000000 1.0
C      1  0.5329530000000  0.5707240000000  0.5524500000000 1.0
C      1  0.5329530000000  0.4296390000000  0.4479400000000 1.0
C      1  0.4670730000000  0.5707240000000  0.4479400000000 1.0
C      1  0.5522680000000  0.5331220000000  0.5707370000000 1.0
C      1  0.5522680000000  0.4672410000000  0.4296520000000 1.0
C      1  0.4477580000000  0.5331220000000  0.4296530000000 1.0
C      1  0.4838190000000  0.4229570000000  0.5359940000000 1.0
C      1  0.5358120000000  0.4839870000000  0.4229700000000 1.0
C      1  0.4227880000000  0.5359810000000  0.4840000000000 1.0
C      1  0.5162070000000  0.5774060000000  0.5359940000000 1.0
C      1  0.5162070000000  0.4229570000000  0.4643950000000 1.0
C      1  0.4838190000000  0.5774060000000  0.4643950000000 1.0
C      1  0.4642140000000  0.5163760000000  0.4229700000000 1.0
C      1  0.4642130000000  0.4839870000000  0.5774190000000 1.0
C      1  0.5358130000000  0.5163760000000  0.5774200000000 1.0
C      1  0.5772380000000  0.4643820000000  0.4840000000000 1.0
C      1  0.5772380000000  0.5359810000000  0.5163890000000 1.0
C      1  0.4227880000000  0.4643820000000  0.5163890000000 1.0
C      1  0.4838190000000  0.4229570000000  0.4643950000000 1.0
C      1  0.5358130000000  0.4839870000000  0.5774200000000 1.0
C      1  0.4227880000000  0.5359810000000  0.5163890000000 1.0
C      1  0.5162070000000  0.5774060000000  0.4643950000000 1.0
C      1  0.5162070000000  0.4229570000000  0.5359940000000 1.0
C      1  0.4838190000000  0.5774060000000  0.5359940000000 1.0
C      1  0.4642130000000  0.5163760000000  0.5774190000000 1.0
C      1  0.4642140000000  0.4839870000000  0.4229700000000 1.0
C      1  0.5358120000000  0.5163760000000  0.4229700000000 1.0
C      1  0.5772380000000  0.4643820000000  0.5163890000000 1.0
C      1  0.5772380000000  0.5359810000000  0.4840000000000 1.0
C      1  0.4227880000000  0.4643820000000  0.4840000000000 1.0
C      1  0.4417400000000  0.4719670000000  0.4417470000000 1.0
C      1  0.4415650000000  0.4419080000000  0.4719800000000 1.0
C      1  0.4717990000000  0.4417330000000  0.4419220000000 1.0
C      1  0.5582860000000  0.5283960000000  0.4417460000000 1.0
C      1  0.5582860000000  0.4719670000000  0.5586430000000 1.0
C      1  0.4417400000000  0.5283960000000  0.5586430000000 1.0
C      1  0.5584610000000  0.5584550000000  0.4719800000000 1.0
C      1  0.5584610000000  0.4419090000000  0.5284090000000 1.0
C      1  0.4415650000000  0.5584550000000  0.5284090000000 1.0
C      1  0.5282280000000  0.5586300000000  0.4419210000000 1.0
C      1  0.5282280000000  0.4417340000000  0.5584680000000 1.0
C      1  0.4717990000000  0.5586290000000  0.5584680000000 1.0
C      1  0.4417400000000  0.4719670000000  0.5586430000000 1.0
C      1  0.4415650000000  0.4419080000000  0.5284090000000 1.0
C      1  0.4717990000000  0.4417340000000  0.5584680000000 1.0
C      1  0.5582860000000  0.5283960000000  0.5586430000000 1.0
C      1  0.5582860000000  0.4719670000000  0.4417460000000 1.0
C      1  0.4417400000000  0.5283960000000  0.4417470000000 1.0
C      1  0.5584610000000  0.5584540000000  0.5284090000000 1.0
C      1  0.5584610000000  0.4419080000000  0.4719800000000 1.0
C      1  0.4415650000000  0.5584550000000  0.4719800000000 1.0
C      1  0.5282280000000  0.5586290000000  0.5584680000000 1.0
C      1  0.5282280000000  0.4417330000000  0.4419210000000 1.0
C      1  0.4717990000000  0.5586300000000  0.4419220000000 1.0
C      1  0.4507860000000  0.5070900000000  0.5212060000000 1.0
C      1  0.5210250000000  0.4509550000000  0.5071030000000 1.0
C      1  0.5069210000000  0.5211940000000  0.4509670000000 1.0
C      1  0.5492410000000  0.4932730000000  0.5212070000000 1.0
C      1  0.5492400000000  0.5070900000000  0.4791820000000 1.0
C      1  0.4507860000000  0.4932730000000  0.4791830000000 1.0
C      1  0.4790010000000  0.5494090000000  0.5071030000000 1.0
C      1  0.4790010000000  0.4509540000000  0.4932870000000 1.0
C      1  0.5210250000000  0.5494080000000  0.4932870000000 1.0
C      1  0.4931050000000  0.4791690000000  0.4509670000000 1.0
C      1  0.4931050000000  0.5211930000000  0.5494220000000 1.0
C      1  0.5069210000000  0.4791700000000  0.5494220000000 1.0
C      1  0.4507860000000  0.5070900000000  0.4791830000000 1.0
C      1  0.5210250000000  0.4509550000000  0.4932870000000 1.0
C      1  0.5069210000000  0.5211930000000  0.5494220000000 1.0
C      1  0.5492400000000  0.4932730000000  0.4791820000000 1.0
C      1  0.5492410000000  0.5070900000000  0.5212070000000 1.0
C      1  0.4507860000000  0.4932730000000  0.5212060000000 1.0
C      1  0.4790010000000  0.5494090000000  0.4932870000000 1.0
C      1  0.4790010000000  0.4509540000000  0.5071030000000 1.0
C      1  0.5210250000000  0.5494080000000  0.5071030000000 1.0
C      1  0.4931050000000  0.4791700000000  0.5494220000000 1.0
C      1  0.4931050000000  0.5211940000000  0.4509670000000 1.0
C      1  0.5069210000000  0.4791690000000  0.4509670000000 1.0
C      1  0.4926820000000  0.5072450000000  0.4081550000000 1.0
C      1  0.4079730000000  0.4928510000000  0.5072580000000 1.0
C      1  0.5070770000000  0.4081420000000  0.4928640000000 1.0
C      1  0.5073430000000  0.4931180000000  0.4081550000000 1.0
C      1  0.5073430000000  0.5072450000000  0.5922350000000 1.0
C      1  0.4926820000000  0.4931180000000  0.5922340000000 1.0
C      1  0.5920530000000  0.5075120000000  0.5072580000000 1.0
C      1  0.5920530000000  0.4928510000000  0.4931310000000 1.0
C      1  0.4079730000000  0.5075120000000  0.4931310000000 1.0
C      1  0.4929500000000  0.5922210000000  0.4928640000000 1.0
C      1  0.4929500000000  0.4081420000000  0.5075250000000 1.0
C      1  0.5070770000000  0.5922210000000  0.5075250000000 1.0
C      1  0.4926820000000  0.5072450000000  0.5922350000000 1.0
C      1  0.4079730000000  0.4928510000000  0.4931310000000 1.0
C      1  0.5070770000000  0.4081420000000  0.5075250000000 1.0
C      1  0.5073430000000  0.4931180000000  0.5922350000000 1.0
C      1  0.5073430000000  0.5072450000000  0.4081550000000 1.0
C      1  0.4926820000000  0.4931180000000  0.4081550000000 1.0
C      1  0.5920530000000  0.5075120000000  0.4931310000000 1.0
C      1  0.5920530000000  0.4928510000000  0.5072580000000 1.0
C      1  0.4079730000000  0.5075120000000  0.5072580000000 1.0
C      1  0.4929500000000  0.5922210000000  0.5075250000000 1.0
C      1  0.4929500000000  0.4081420000000  0.4928640000000 1.0
C      1  0.5070770000000  0.5922210000000  0.4928640000000 1.0
C      1  0.4205550000000  0.5158650000000  0.5293740000000 1.0
C      1  0.5291930000000  0.4207240000000  0.5158780000000 1.0
C      1  0.5156960000000  0.5293610000000  0.4207370000000 1.0
C      1  0.5794710000000  0.4844980000000  0.5293740000000 1.0
C      1  0.5794710000000  0.5158650000000  0.4710150000000 1.0
C      1  0.4205550000000  0.4844980000000  0.4710150000000 1.0
C      1  0.4708340000000  0.5796390000000  0.5158780000000 1.0
C      1  0.4708340000000  0.4207240000000  0.4845110000000 1.0
C      1  0.5291930000000  0.5796390000000  0.4845110000000 1.0
C      1  0.4843290000000  0.4710020000000  0.4207370000000 1.0
C      1  0.4843290000000  0.5293610000000  0.5796530000000 1.0
C      1  0.5156970000000  0.4710020000000  0.5796530000000 1.0
C      1  0.4205550000000  0.5158650000000  0.4710150000000 1.0
C      1  0.5291930000000  0.4207240000000  0.4845110000000 1.0
C      1  0.5156970000000  0.5293610000000  0.5796530000000 1.0
C      1  0.5794710000000  0.4844980000000  0.4710150000000 1.0
C      1  0.5794710000000  0.5158650000000  0.5293740000000 1.0
C      1  0.4205550000000  0.4844980000000  0.5293740000000 1.0
C      1  0.4708340000000  0.5796400000000  0.4845110000000 1.0
C      1  0.4708340000000  0.4207240000000  0.5158780000000 1.0
C      1  0.5291930000000  0.5796390000000  0.5158780000000 1.0
C      1  0.4843290000000  0.4710020000000  0.5796520000000 1.0
C      1  0.4843290000000  0.5293610000000  0.4207370000000 1.0
C      1  0.5156960000000  0.4710020000000  0.4207370000000 1.0
C      1  0.4518390000000  0.5483560000000  0.4520200000000 1.0
C      1  0.5481880000000  0.4520070000000  0.4520200000000 1.0
C      1  0.4518390000000  0.4520070000000  0.5483690000000 1.0
C      1  0.5481880000000  0.5483560000000  0.4520200000000 1.0
C      1  0.4518390000000  0.5483560000000  0.5483690000000 1.0
C      1  0.5481880000000  0.4520070000000  0.5483690000000 1.0
C      1  0.5481880000000  0.5483560000000  0.5483690000000 1.0
C      1  0.4518390000000  0.4520070000000  0.4520200000000 1.0
END
