TITL C-1379265-1223-158 -1.91783955781309e-06 1000000 -4006.90127237804 0 0 560 (Th) n - 1
REM
REM in /nfs/bkarasulu/CARBON/AIRSS/Generating-Clusters/GAP-ML-2020/Higher-Symm/Selected-Sizes/TryA-Only_Ih-Symm/Larger-Clusters/Try2-MINAMP_6A
REM
REM
REM
REM
REM
REM ./C.cell (31579ac4e95a012ec27f3239692ae8a5)
REM
REM compiler GCC version 9.2.1 20190827 (Red Hat 9.2.1-1)
REM options -cpp -mtune=generic -march=x86-64 -g -O0 -fpre-include=/usr/include/finclude/math-vector-fortran.h
REM seed 544765336 853177684 1352913362 1033612738 -1561290822 -535347578 -98997670 -373908047 -1488056674 699855053 476350332 -1129694448 574048864 -2118895918 -926141254 -1688624241 1956610612 787354569 1363582103 -1499216757 35814748 380662155 2259328 -1563759445 1893707428 -1081911557 -346324987 1079264766 504014474 462929223 -678138235 136623832 -174762113
REM
CELL 1.54180  100.00000  100.00000  100.00000   90.00000   90.00000   90.00000
LATT -1
SFAC C  
C      1  0.5160840000000  0.4438970000000  0.4349980000000 1.0
C      1  0.4350910000000  0.5159700000000  0.4439170000000 1.0
C      1  0.4440110000000  0.4349770000000  0.5159900000000 1.0
C      1  0.4838760000000  0.4438970000000  0.5647750000000 1.0
C      1  0.5160840000000  0.5558350000000  0.5647750000000 1.0
C      1  0.4838760000000  0.5558350000000  0.4349980000000 1.0
C      1  0.5648690000000  0.5159700000000  0.5558550000000 1.0
C      1  0.4350910000000  0.4837620000000  0.5558550000000 1.0
C      1  0.5648690000000  0.4837620000000  0.4439170000000 1.0
C      1  0.5559490000000  0.4349770000000  0.4837820000000 1.0
C      1  0.4440110000000  0.5647550000000  0.4837820000000 1.0
C      1  0.5559490000000  0.5647550000000  0.5159900000000 1.0
C      1  0.5160840000000  0.5558350000000  0.4349980000000 1.0
C      1  0.4350910000000  0.4837620000000  0.4439170000000 1.0
C      1  0.4440110000000  0.5647550000000  0.5159900000000 1.0
C      1  0.4838760000000  0.5558350000000  0.5647750000000 1.0
C      1  0.5160840000000  0.4438970000000  0.5647750000000 1.0
C      1  0.4838760000000  0.4438970000000  0.4349980000000 1.0
C      1  0.5648690000000  0.4837620000000  0.5558550000000 1.0
C      1  0.4350910000000  0.5159700000000  0.5558550000000 1.0
C      1  0.5648690000000  0.5159700000000  0.4439170000000 1.0
C      1  0.5559490000000  0.5647550000000  0.4837820000000 1.0
C      1  0.4440110000000  0.4349770000000  0.4837820000000 1.0
C      1  0.5559490000000  0.4349770000000  0.5159900000000 1.0
C      1  0.5238430000000  0.4368770000000  0.5415840000000 1.0
C      1  0.5416780000000  0.5237290000000  0.4368970000000 1.0
C      1  0.4369910000000  0.5415640000000  0.5237490000000 1.0
C      1  0.4761170000000  0.4368770000000  0.4581880000000 1.0
C      1  0.5238430000000  0.5628550000000  0.4581880000000 1.0
C      1  0.4761170000000  0.5628550000000  0.5415840000000 1.0
C      1  0.4582820000000  0.5237290000000  0.5628750000000 1.0
C      1  0.5416780000000  0.4760030000000  0.5628750000000 1.0
C      1  0.4582820000000  0.4760030000000  0.4368970000000 1.0
C      1  0.5629690000000  0.5415640000000  0.4760230000000 1.0
C      1  0.4369910000000  0.4581680000000  0.4760230000000 1.0
C      1  0.5629690000000  0.4581680000000  0.5237490000000 1.0
C      1  0.5238430000000  0.5628550000000  0.5415840000000 1.0
C      1  0.5416780000000  0.4760030000000  0.4368970000000 1.0
C      1  0.4369910000000  0.4581680000000  0.5237490000000 1.0
C      1  0.4761170000000  0.5628550000000  0.4581880000000 1.0
C      1  0.5238430000000  0.4368770000000  0.4581880000000 1.0
C      1  0.4761170000000  0.4368770000000  0.5415840000000 1.0
C      1  0.4582820000000  0.4760030000000  0.5628750000000 1.0
C      1  0.5416780000000  0.5237290000000  0.5628750000000 1.0
C      1  0.4582820000000  0.5237290000000  0.4368970000000 1.0
C      1  0.5629690000000  0.4581680000000  0.4760230000000 1.0
C      1  0.4369910000000  0.5415640000000  0.4760230000000 1.0
C      1  0.5629690000000  0.5415640000000  0.5237490000000 1.0
C      1  0.4366190000000  0.5533520000000  0.5149210000000 1.0
C      1  0.5150150000000  0.4365060000000  0.5533720000000 1.0
C      1  0.5534660000000  0.5149010000000  0.4365260000000 1.0
C      1  0.5633400000000  0.5533520000000  0.4848510000000 1.0
C      1  0.4366190000000  0.4463800000000  0.4848510000000 1.0
C      1  0.5633400000000  0.4463800000000  0.5149210000000 1.0
C      1  0.4849450000000  0.4365060000000  0.4464000000000 1.0
C      1  0.5150150000000  0.5632270000000  0.4464000000000 1.0
C      1  0.4849450000000  0.5632270000000  0.5533720000000 1.0
C      1  0.4464940000000  0.5149010000000  0.5632470000000 1.0
C      1  0.5534660000000  0.4848310000000  0.5632470000000 1.0
C      1  0.4464940000000  0.4848310000000  0.4365260000000 1.0
C      1  0.4366190000000  0.4463800000000  0.5149210000000 1.0
C      1  0.5150150000000  0.5632270000000  0.5533720000000 1.0
C      1  0.5534660000000  0.4848310000000  0.4365260000000 1.0
C      1  0.5633400000000  0.4463800000000  0.4848510000000 1.0
C      1  0.4366190000000  0.5533520000000  0.4848510000000 1.0
C      1  0.5633400000000  0.5533520000000  0.5149210000000 1.0
C      1  0.4849450000000  0.5632270000000  0.4464000000000 1.0
C      1  0.5150150000000  0.4365060000000  0.4464000000000 1.0
C      1  0.4849450000000  0.4365060000000  0.5533720000000 1.0
C      1  0.4464940000000  0.4848310000000  0.5632470000000 1.0
C      1  0.5534660000000  0.5149010000000  0.5632470000000 1.0
C      1  0.4464940000000  0.5149010000000  0.4365260000000 1.0
C      1  0.4877350000000  0.5161200000000  0.4145950000000 1.0
C      1  0.4146880000000  0.4876210000000  0.5161400000000 1.0
C      1  0.5162340000000  0.4145740000000  0.4876420000000 1.0
C      1  0.5122240000000  0.5161200000000  0.5851780000000 1.0
C      1  0.4877350000000  0.4836120000000  0.5851780000000 1.0
C      1  0.5122240000000  0.4836120000000  0.4145950000000 1.0
C      1  0.5852710000000  0.4876210000000  0.4836320000000 1.0
C      1  0.4146880000000  0.5121110000000  0.4836320000000 1.0
C      1  0.5852710000000  0.5121110000000  0.5161400000000 1.0
C      1  0.4837260000000  0.4145740000000  0.5121310000000 1.0
C      1  0.5162340000000  0.5851580000000  0.5121310000000 1.0
C      1  0.4837260000000  0.5851580000000  0.4876420000000 1.0
C      1  0.4877350000000  0.4836120000000  0.4145950000000 1.0
C      1  0.4146880000000  0.5121110000000  0.5161400000000 1.0
C      1  0.5162340000000  0.5851580000000  0.4876420000000 1.0
C      1  0.5122240000000  0.4836120000000  0.5851780000000 1.0
C      1  0.4877350000000  0.5161200000000  0.5851780000000 1.0
C      1  0.5122240000000  0.5161200000000  0.4145950000000 1.0
C      1  0.5852710000000  0.5121110000000  0.4836320000000 1.0
C      1  0.4146880000000  0.4876210000000  0.4836320000000 1.0
C      1  0.5852710000000  0.4876210000000  0.5161400000000 1.0
C      1  0.4837260000000  0.5851580000000  0.5121310000000 1.0
C      1  0.5162340000000  0.4145740000000  0.5121310000000 1.0
C      1  0.4837260000000  0.4145740000000  0.4876420000000 1.0
C      1  0.4449080000000  0.4705050000000  0.5149710000000 1.0
C      1  0.5150650000000  0.4447940000000  0.4705250000000 1.0
C      1  0.4706180000000  0.5149510000000  0.4448140000000 1.0
C      1  0.5550520000000  0.4705050000000  0.4848010000000 1.0
C      1  0.4449080000000  0.5292270000000  0.4848010000000 1.0
C      1  0.5550520000000  0.5292270000000  0.5149710000000 1.0
C      1  0.4848950000000  0.4447940000000  0.5292480000000 1.0
C      1  0.5150650000000  0.5549380000000  0.5292480000000 1.0
C      1  0.4848950000000  0.5549380000000  0.4705250000000 1.0
C      1  0.5293410000000  0.5149510000000  0.5549580000000 1.0
C      1  0.4706180000000  0.4847810000000  0.5549580000000 1.0
C      1  0.5293410000000  0.4847810000000  0.4448140000000 1.0
C      1  0.4449080000000  0.5292270000000  0.5149710000000 1.0
C      1  0.5150650000000  0.5549380000000  0.4705250000000 1.0
C      1  0.4706180000000  0.4847810000000  0.4448140000000 1.0
C      1  0.5550520000000  0.5292270000000  0.4848010000000 1.0
C      1  0.4449080000000  0.4705050000000  0.4848010000000 1.0
C      1  0.5550520000000  0.4705050000000  0.5149710000000 1.0
C      1  0.4848950000000  0.5549380000000  0.5292480000000 1.0
C      1  0.5150650000000  0.4447940000000  0.5292480000000 1.0
C      1  0.4848950000000  0.4447940000000  0.4705250000000 1.0
C      1  0.5293410000000  0.4847810000000  0.5549580000000 1.0
C      1  0.4706180000000  0.5149510000000  0.5549580000000 1.0
C      1  0.5293410000000  0.5149510000000  0.4448140000000 1.0
C      1  0.4112890000000  0.4928060000000  0.4702820000000 1.0
C      1  0.4703750000000  0.4111750000000  0.4928270000000 1.0
C      1  0.4929200000000  0.4702620000000  0.4111950000000 1.0
C      1  0.5886710000000  0.4928060000000  0.5294910000000 1.0
C      1  0.4112890000000  0.5069260000000  0.5294910000000 1.0
C      1  0.5886710000000  0.5069260000000  0.4702820000000 1.0
C      1  0.5295840000000  0.4111750000000  0.5069460000000 1.0
C      1  0.4703750000000  0.5885570000000  0.5069460000000 1.0
C      1  0.5295840000000  0.5885570000000  0.4928270000000 1.0
C      1  0.5070390000000  0.4702620000000  0.5885770000000 1.0
C      1  0.4929200000000  0.5294710000000  0.5885770000000 1.0
C      1  0.5070390000000  0.5294710000000  0.4111950000000 1.0
C      1  0.4112890000000  0.5069260000000  0.4702820000000 1.0
C      1  0.4703750000000  0.5885570000000  0.4928270000000 1.0
C      1  0.4929200000000  0.5294710000000  0.4111950000000 1.0
C      1  0.5886710000000  0.5069260000000  0.5294910000000 1.0
C      1  0.4112890000000  0.4928060000000  0.5294910000000 1.0
C      1  0.5886710000000  0.4928060000000  0.4702820000000 1.0
C      1  0.5295840000000  0.5885570000000  0.5069460000000 1.0
C      1  0.4703750000000  0.4111750000000  0.5069460000000 1.0
C      1  0.5295840000000  0.4111750000000  0.4928270000000 1.0
C      1  0.5070390000000  0.5294710000000  0.5885770000000 1.0
C      1  0.4929200000000  0.4702620000000  0.5885770000000 1.0
C      1  0.5070390000000  0.4702620000000  0.4111950000000 1.0
C      1  0.4171920000000  0.4860160000000  0.4592750000000 1.0
C      1  0.4593690000000  0.4170780000000  0.4860370000000 1.0
C      1  0.4861300000000  0.4592550000000  0.4170980000000 1.0
C      1  0.5827680000000  0.4860160000000  0.5404970000000 1.0
C      1  0.4171920000000  0.5137160000000  0.5404970000000 1.0
C      1  0.5827680000000  0.5137160000000  0.4592750000000 1.0
C      1  0.5405910000000  0.4170780000000  0.5137360000000 1.0
C      1  0.4593690000000  0.5826540000000  0.5137360000000 1.0
C      1  0.5405910000000  0.5826540000000  0.4860370000000 1.0
C      1  0.5138290000000  0.4592550000000  0.5826740000000 1.0
C      1  0.4861300000000  0.5404770000000  0.5826740000000 1.0
C      1  0.5138290000000  0.5404770000000  0.4170980000000 1.0
C      1  0.4171920000000  0.5137160000000  0.4592750000000 1.0
C      1  0.4593690000000  0.5826540000000  0.4860370000000 1.0
C      1  0.4861300000000  0.5404770000000  0.4170980000000 1.0
C      1  0.5827680000000  0.5137160000000  0.5404970000000 1.0
C      1  0.4171920000000  0.4860160000000  0.5404970000000 1.0
C      1  0.5827680000000  0.4860160000000  0.4592750000000 1.0
C      1  0.5405910000000  0.5826540000000  0.5137360000000 1.0
C      1  0.4593690000000  0.4170780000000  0.5137360000000 1.0
C      1  0.5405910000000  0.4170780000000  0.4860370000000 1.0
C      1  0.5138290000000  0.5404770000000  0.5826740000000 1.0
C      1  0.4861300000000  0.4592550000000  0.5826740000000 1.0
C      1  0.5138290000000  0.4592550000000  0.4170980000000 1.0
C      1  0.4767140000000  0.5071550000000  0.4330280000000 1.0
C      1  0.4331220000000  0.4766010000000  0.5071750000000 1.0
C      1  0.5072690000000  0.4330080000000  0.4766210000000 1.0
C      1  0.5232450000000  0.5071550000000  0.5667440000000 1.0
C      1  0.4767140000000  0.4925770000000  0.5667440000000 1.0
C      1  0.5232450000000  0.4925770000000  0.4330280000000 1.0
C      1  0.5668380000000  0.4766010000000  0.4925970000000 1.0
C      1  0.4331220000000  0.5231310000000  0.4925970000000 1.0
C      1  0.5668380000000  0.5231310000000  0.5071750000000 1.0
C      1  0.4926910000000  0.4330080000000  0.5231520000000 1.0
C      1  0.5072690000000  0.5667240000000  0.5231520000000 1.0
C      1  0.4926910000000  0.5667240000000  0.4766210000000 1.0
C      1  0.4767140000000  0.4925770000000  0.4330280000000 1.0
C      1  0.4331220000000  0.5231310000000  0.5071750000000 1.0
C      1  0.5072690000000  0.5667240000000  0.4766210000000 1.0
C      1  0.5232450000000  0.4925770000000  0.5667440000000 1.0
C      1  0.4767140000000  0.5071550000000  0.5667440000000 1.0
C      1  0.5232450000000  0.5071550000000  0.4330280000000 1.0
C      1  0.5668380000000  0.5231310000000  0.4925970000000 1.0
C      1  0.4331220000000  0.4766010000000  0.4925970000000 1.0
C      1  0.5668380000000  0.4766010000000  0.5071750000000 1.0
C      1  0.4926910000000  0.5667240000000  0.5231520000000 1.0
C      1  0.5072690000000  0.4330080000000  0.5231520000000 1.0
C      1  0.4926910000000  0.4330080000000  0.4766210000000 1.0
C      1  0.5278850000000  0.5141460000000  0.5794040000000 1.0
C      1  0.5794980000000  0.5277710000000  0.5141660000000 1.0
C      1  0.5142600000000  0.5793840000000  0.5277910000000 1.0
C      1  0.4720750000000  0.5141460000000  0.4203680000000 1.0
C      1  0.5278850000000  0.4855860000000  0.4203680000000 1.0
C      1  0.4720750000000  0.4855860000000  0.5794040000000 1.0
C      1  0.4204620000000  0.5277710000000  0.4856060000000 1.0
C      1  0.5794980000000  0.4719610000000  0.4856060000000 1.0
C      1  0.4204620000000  0.4719610000000  0.5141660000000 1.0
C      1  0.4857000000000  0.5793840000000  0.4719810000000 1.0
C      1  0.5142600000000  0.4203480000000  0.4719810000000 1.0
C      1  0.4857000000000  0.4203480000000  0.5277910000000 1.0
C      1  0.5278850000000  0.4855860000000  0.5794040000000 1.0
C      1  0.5794980000000  0.4719610000000  0.5141660000000 1.0
C      1  0.5142600000000  0.4203480000000  0.5277910000000 1.0
C      1  0.4720750000000  0.4855860000000  0.4203680000000 1.0
C      1  0.5278850000000  0.5141460000000  0.4203680000000 1.0
C      1  0.4720750000000  0.5141460000000  0.5794040000000 1.0
C      1  0.4204620000000  0.4719610000000  0.4856060000000 1.0
C      1  0.5794980000000  0.5277710000000  0.4856060000000 1.0
C      1  0.4204620000000  0.5277710000000  0.5141660000000 1.0
C      1  0.4857000000000  0.4203480000000  0.4719810000000 1.0
C      1  0.5142600000000  0.5793840000000  0.4719810000000 1.0
C      1  0.4857000000000  0.5793840000000  0.5277910000000 1.0
C      1  0.5458330000000  0.5363250000000  0.4436990000000 1.0
C      1  0.4437930000000  0.5457190000000  0.5363460000000 1.0
C      1  0.5364390000000  0.4436790000000  0.5457390000000 1.0
C      1  0.4541270000000  0.5363250000000  0.5560730000000 1.0
C      1  0.5458330000000  0.4634070000000  0.5560730000000 1.0
C      1  0.4541270000000  0.4634070000000  0.4436990000000 1.0
C      1  0.5561670000000  0.5457190000000  0.4634270000000 1.0
C      1  0.4437930000000  0.4540130000000  0.4634270000000 1.0
C      1  0.5561670000000  0.4540130000000  0.5363460000000 1.0
C      1  0.4635200000000  0.4436790000000  0.4540330000000 1.0
C      1  0.5364390000000  0.5560530000000  0.4540330000000 1.0
C      1  0.4635200000000  0.5560530000000  0.5457390000000 1.0
C      1  0.5458330000000  0.4634070000000  0.4436990000000 1.0
C      1  0.4437930000000  0.4540130000000  0.5363460000000 1.0
C      1  0.5364390000000  0.5560530000000  0.5457390000000 1.0
C      1  0.4541270000000  0.4634070000000  0.5560730000000 1.0
C      1  0.5458330000000  0.5363250000000  0.5560730000000 1.0
C      1  0.4541270000000  0.5363250000000  0.4436990000000 1.0
C      1  0.5561670000000  0.4540130000000  0.4634270000000 1.0
C      1  0.4437930000000  0.5457190000000  0.4634270000000 1.0
C      1  0.5561670000000  0.5457190000000  0.5363460000000 1.0
C      1  0.4635200000000  0.5560530000000  0.4540330000000 1.0
C      1  0.5364390000000  0.4436790000000  0.4540330000000 1.0
C      1  0.4635200000000  0.4436790000000  0.5457390000000 1.0
C      1  0.4690990000000  0.5070490000000  0.4790200000000 1.0
C      1  0.4791140000000  0.4689850000000  0.5070690000000 1.0
C      1  0.5071630000000  0.4790000000000  0.4690050000000 1.0
C      1  0.5308610000000  0.5070490000000  0.5207520000000 1.0
C      1  0.4690990000000  0.4926830000000  0.5207520000000 1.0
C      1  0.5308610000000  0.4926830000000  0.4790200000000 1.0
C      1  0.5208460000000  0.4689850000000  0.4927030000000 1.0
C      1  0.4791140000000  0.5307470000000  0.4927030000000 1.0
C      1  0.5208460000000  0.5307470000000  0.5070690000000 1.0
C      1  0.4927970000000  0.4790000000000  0.5307670000000 1.0
C      1  0.5071630000000  0.5207320000000  0.5307670000000 1.0
C      1  0.4927970000000  0.5207320000000  0.4690050000000 1.0
C      1  0.4690990000000  0.4926830000000  0.4790200000000 1.0
C      1  0.4791140000000  0.5307470000000  0.5070690000000 1.0
C      1  0.5071630000000  0.5207320000000  0.4690050000000 1.0
C      1  0.5308610000000  0.4926830000000  0.5207520000000 1.0
C      1  0.4690990000000  0.5070490000000  0.5207520000000 1.0
C      1  0.5308610000000  0.5070490000000  0.4790200000000 1.0
C      1  0.5208460000000  0.5307470000000  0.4927030000000 1.0
C      1  0.4791140000000  0.4689850000000  0.4927030000000 1.0
C      1  0.5208460000000  0.4689850000000  0.5070690000000 1.0
C      1  0.4927970000000  0.5207320000000  0.5307670000000 1.0
C      1  0.5071630000000  0.4790000000000  0.5307670000000 1.0
C      1  0.4927970000000  0.4790000000000  0.4690050000000 1.0
C      1  0.4498380000000  0.4830270000000  0.4764050000000 1.0
C      1  0.4764980000000  0.4497250000000  0.4830470000000 1.0
C      1  0.4831410000000  0.4763840000000  0.4497450000000 1.0
C      1  0.5501210000000  0.4830270000000  0.5233680000000 1.0
C      1  0.4498380000000  0.5167050000000  0.5233680000000 1.0
C      1  0.5501210000000  0.5167050000000  0.4764050000000 1.0
C      1  0.5234620000000  0.4497250000000  0.5167250000000 1.0
C      1  0.4764980000000  0.5500070000000  0.5167250000000 1.0
C      1  0.5234620000000  0.5500070000000  0.4830470000000 1.0
C      1  0.5168190000000  0.4763840000000  0.5500280000000 1.0
C      1  0.4831410000000  0.5233480000000  0.5500280000000 1.0
C      1  0.5168190000000  0.5233480000000  0.4497450000000 1.0
C      1  0.4498380000000  0.5167050000000  0.4764050000000 1.0
C      1  0.4764980000000  0.5500070000000  0.4830470000000 1.0
C      1  0.4831410000000  0.5233480000000  0.4497450000000 1.0
C      1  0.5501210000000  0.5167050000000  0.5233680000000 1.0
C      1  0.4498380000000  0.4830270000000  0.5233680000000 1.0
C      1  0.5501210000000  0.4830270000000  0.4764050000000 1.0
C      1  0.5234620000000  0.5500070000000  0.5167250000000 1.0
C      1  0.4764980000000  0.4497250000000  0.5167250000000 1.0
C      1  0.5234620000000  0.4497250000000  0.4830470000000 1.0
C      1  0.5168190000000  0.5233480000000  0.5500280000000 1.0
C      1  0.4831410000000  0.4763840000000  0.5500280000000 1.0
C      1  0.5168190000000  0.4763840000000  0.4497450000000 1.0
C      1  0.5071430000000  0.5244750000000  0.5603800000000 1.0
C      1  0.5604740000000  0.5070290000000  0.5244950000000 1.0
C      1  0.5245890000000  0.5603600000000  0.5070490000000 1.0
C      1  0.4928170000000  0.5244750000000  0.4393920000000 1.0
C      1  0.5071430000000  0.4752570000000  0.4393920000000 1.0
C      1  0.4928170000000  0.4752570000000  0.5603800000000 1.0
C      1  0.4394860000000  0.5070290000000  0.4752770000000 1.0
C      1  0.5604740000000  0.4927030000000  0.4752770000000 1.0
C      1  0.4394860000000  0.4927030000000  0.5244950000000 1.0
C      1  0.4753710000000  0.5603600000000  0.4927230000000 1.0
C      1  0.5245890000000  0.4393720000000  0.4927230000000 1.0
C      1  0.4753710000000  0.4393720000000  0.5070490000000 1.0
C      1  0.5071430000000  0.4752570000000  0.5603800000000 1.0
C      1  0.5604740000000  0.4927030000000  0.5244950000000 1.0
C      1  0.5245890000000  0.4393720000000  0.5070490000000 1.0
C      1  0.4928170000000  0.4752570000000  0.4393920000000 1.0
C      1  0.5071430000000  0.5244750000000  0.4393920000000 1.0
C      1  0.4928170000000  0.5244750000000  0.5603800000000 1.0
C      1  0.4394860000000  0.4927030000000  0.4752770000000 1.0
C      1  0.5604740000000  0.5070290000000  0.4752770000000 1.0
C      1  0.4394860000000  0.5070290000000  0.5244950000000 1.0
C      1  0.4753710000000  0.4393720000000  0.4927230000000 1.0
C      1  0.5245890000000  0.5603600000000  0.4927230000000 1.0
C      1  0.4753710000000  0.5603600000000  0.5070490000000 1.0
C      1  0.4867140000000  0.4290640000000  0.4917900000000 1.0
C      1  0.4918840000000  0.4866000000000  0.4290840000000 1.0
C      1  0.4291780000000  0.4917700000000  0.4866200000000 1.0
C      1  0.5132460000000  0.4290640000000  0.5079820000000 1.0
C      1  0.4867140000000  0.5706680000000  0.5079820000000 1.0
C      1  0.5132460000000  0.5706680000000  0.4917900000000 1.0
C      1  0.5080760000000  0.4866000000000  0.5706880000000 1.0
C      1  0.4918840000000  0.5131320000000  0.5706880000000 1.0
C      1  0.5080760000000  0.5131320000000  0.4290840000000 1.0
C      1  0.5707820000000  0.4917700000000  0.5131520000000 1.0
C      1  0.4291780000000  0.5079620000000  0.5131520000000 1.0
C      1  0.5707820000000  0.5079620000000  0.4866200000000 1.0
C      1  0.4867140000000  0.5706680000000  0.4917900000000 1.0
C      1  0.4918840000000  0.5131320000000  0.4290840000000 1.0
C      1  0.4291780000000  0.5079620000000  0.4866200000000 1.0
C      1  0.5132460000000  0.5706680000000  0.5079820000000 1.0
C      1  0.4867140000000  0.4290640000000  0.5079820000000 1.0
C      1  0.5132460000000  0.4290640000000  0.4917900000000 1.0
C      1  0.5080760000000  0.5131320000000  0.5706880000000 1.0
C      1  0.4918840000000  0.4866000000000  0.5706880000000 1.0
C      1  0.5080760000000  0.4866000000000  0.4290840000000 1.0
C      1  0.5707820000000  0.5079620000000  0.5131520000000 1.0
C      1  0.4291780000000  0.4917700000000  0.5131520000000 1.0
C      1  0.5707820000000  0.4917700000000  0.4866200000000 1.0
C      1  0.5371580000000  0.4526190000000  0.4434280000000 1.0
C      1  0.4435220000000  0.5370440000000  0.4526390000000 1.0
C      1  0.4527330000000  0.4434080000000  0.5370640000000 1.0
C      1  0.4628020000000  0.4526190000000  0.5563440000000 1.0
C      1  0.5371580000000  0.5471130000000  0.5563440000000 1.0
C      1  0.4628020000000  0.5471130000000  0.4434280000000 1.0
C      1  0.5564380000000  0.5370440000000  0.5471330000000 1.0
C      1  0.4435220000000  0.4626880000000  0.5471330000000 1.0
C      1  0.5564380000000  0.4626880000000  0.4526390000000 1.0
C      1  0.5472270000000  0.4434080000000  0.4627080000000 1.0
C      1  0.4527330000000  0.5563240000000  0.4627080000000 1.0
C      1  0.5472270000000  0.5563240000000  0.5370640000000 1.0
C      1  0.5371580000000  0.5471130000000  0.4434280000000 1.0
C      1  0.4435220000000  0.4626880000000  0.4526390000000 1.0
C      1  0.4527330000000  0.5563240000000  0.5370640000000 1.0
C      1  0.4628020000000  0.5471130000000  0.5563440000000 1.0
C      1  0.5371580000000  0.4526190000000  0.5563440000000 1.0
C      1  0.4628020000000  0.4526190000000  0.4434280000000 1.0
C      1  0.5564380000000  0.4626880000000  0.5471330000000 1.0
C      1  0.4435220000000  0.5370440000000  0.5471330000000 1.0
C      1  0.5564380000000  0.5370440000000  0.4526390000000 1.0
C      1  0.5472270000000  0.5563240000000  0.4627080000000 1.0
C      1  0.4527330000000  0.4434080000000  0.4627080000000 1.0
C      1  0.5472270000000  0.4434080000000  0.5370640000000 1.0
C      1  0.4683310000000  0.4630400000000  0.4833770000000 1.0
C      1  0.4834700000000  0.4682170000000  0.4630600000000 1.0
C      1  0.4631530000000  0.4833570000000  0.4682370000000 1.0
C      1  0.5316290000000  0.4630400000000  0.5163960000000 1.0
C      1  0.4683310000000  0.5366920000000  0.5163960000000 1.0
C      1  0.5316290000000  0.5366920000000  0.4833770000000 1.0
C      1  0.5164890000000  0.4682170000000  0.5367130000000 1.0
C      1  0.4834700000000  0.5315150000000  0.5367130000000 1.0
C      1  0.5164890000000  0.5315150000000  0.4630600000000 1.0
C      1  0.5368060000000  0.4833570000000  0.5315360000000 1.0
C      1  0.4631530000000  0.5163750000000  0.5315360000000 1.0
C      1  0.5368060000000  0.5163750000000  0.4682370000000 1.0
C      1  0.4683310000000  0.5366920000000  0.4833770000000 1.0
C      1  0.4834700000000  0.5315150000000  0.4630600000000 1.0
C      1  0.4631530000000  0.5163750000000  0.4682370000000 1.0
C      1  0.5316290000000  0.5366920000000  0.5163960000000 1.0
C      1  0.4683310000000  0.4630400000000  0.5163960000000 1.0
C      1  0.5316290000000  0.4630400000000  0.4833770000000 1.0
C      1  0.5164890000000  0.5315150000000  0.5367130000000 1.0
C      1  0.4834700000000  0.4682170000000  0.5367130000000 1.0
C      1  0.5164890000000  0.4682170000000  0.4630600000000 1.0
C      1  0.5368060000000  0.5163750000000  0.5315360000000 1.0
C      1  0.4631530000000  0.4833570000000  0.5315360000000 1.0
C      1  0.5368060000000  0.4833570000000  0.4682370000000 1.0
C      1  0.4230220000000  0.5267580000000  0.4611220000000 1.0
C      1  0.4612160000000  0.4229080000000  0.5267790000000 1.0
C      1  0.5268720000000  0.4611020000000  0.4229280000000 1.0
C      1  0.5769380000000  0.5267580000000  0.5386500000000 1.0
C      1  0.4230220000000  0.4729740000000  0.5386500000000 1.0
C      1  0.5769380000000  0.4729740000000  0.4611220000000 1.0
C      1  0.5387440000000  0.4229080000000  0.4729940000000 1.0
C      1  0.4612160000000  0.5768240000000  0.4729940000000 1.0
C      1  0.5387440000000  0.5768240000000  0.5267790000000 1.0
C      1  0.4730880000000  0.4611020000000  0.5768440000000 1.0
C      1  0.5268720000000  0.5386300000000  0.5768440000000 1.0
C      1  0.4730880000000  0.5386300000000  0.4229280000000 1.0
C      1  0.4230220000000  0.4729740000000  0.4611220000000 1.0
C      1  0.4612160000000  0.5768240000000  0.5267790000000 1.0
C      1  0.5268720000000  0.5386300000000  0.4229280000000 1.0
C      1  0.5769380000000  0.4729740000000  0.5386500000000 1.0
C      1  0.4230220000000  0.5267580000000  0.5386500000000 1.0
C      1  0.5769380000000  0.5267580000000  0.4611220000000 1.0
C      1  0.5387440000000  0.5768240000000  0.4729940000000 1.0
C      1  0.4612160000000  0.4229080000000  0.4729940000000 1.0
C      1  0.5387440000000  0.4229080000000  0.5267790000000 1.0
C      1  0.4730880000000  0.5386300000000  0.5768440000000 1.0
C      1  0.5268720000000  0.4611020000000  0.5768440000000 1.0
C      1  0.4730880000000  0.4611020000000  0.4229280000000 1.0
C      1  0.5338610000000  0.5264220000000  0.5756700000000 1.0
C      1  0.5757630000000  0.5337470000000  0.5264420000000 1.0
C      1  0.5265360000000  0.5756490000000  0.5337670000000 1.0
C      1  0.4660990000000  0.5264220000000  0.4241030000000 1.0
C      1  0.5338610000000  0.4733100000000  0.4241030000000 1.0
C      1  0.4660990000000  0.4733100000000  0.5756700000000 1.0
C      1  0.4241960000000  0.5337470000000  0.4733300000000 1.0
C      1  0.5757630000000  0.4659850000000  0.4733300000000 1.0
C      1  0.4241960000000  0.4659850000000  0.5264420000000 1.0
C      1  0.4734240000000  0.5756490000000  0.4660050000000 1.0
C      1  0.5265360000000  0.4240830000000  0.4660050000000 1.0
C      1  0.4734240000000  0.4240830000000  0.5337670000000 1.0
C      1  0.5338610000000  0.4733100000000  0.5756700000000 1.0
C      1  0.5757630000000  0.4659850000000  0.5264420000000 1.0
C      1  0.5265360000000  0.4240830000000  0.5337670000000 1.0
C      1  0.4660990000000  0.4733100000000  0.4241030000000 1.0
C      1  0.5338610000000  0.5264220000000  0.4241030000000 1.0
C      1  0.4660990000000  0.5264220000000  0.5756700000000 1.0
C      1  0.4241960000000  0.4659850000000  0.4733300000000 1.0
C      1  0.5757630000000  0.5337470000000  0.4733300000000 1.0
C      1  0.4241960000000  0.5337470000000  0.5264420000000 1.0
C      1  0.4734240000000  0.4240830000000  0.4660050000000 1.0
C      1  0.5265360000000  0.5756490000000  0.4660050000000 1.0
C      1  0.4734240000000  0.5756490000000  0.5337670000000 1.0
C      1  0.4333000000000  0.5278940000000  0.4516380000000 1.0
C      1  0.4517320000000  0.4331860000000  0.5279140000000 1.0
C      1  0.5280080000000  0.4516180000000  0.4332060000000 1.0
C      1  0.5666600000000  0.5278940000000  0.5481340000000 1.0
C      1  0.4333000000000  0.4718380000000  0.5481340000000 1.0
C      1  0.5666600000000  0.4718380000000  0.4516380000000 1.0
C      1  0.5482280000000  0.4331860000000  0.4718580000000 1.0
C      1  0.4517320000000  0.5665460000000  0.4718580000000 1.0
C      1  0.5482280000000  0.5665460000000  0.5279140000000 1.0
C      1  0.4719520000000  0.4516180000000  0.5665660000000 1.0
C      1  0.5280080000000  0.5481140000000  0.5665660000000 1.0
C      1  0.4719520000000  0.5481140000000  0.4332060000000 1.0
C      1  0.4333000000000  0.4718380000000  0.4516380000000 1.0
C      1  0.4517320000000  0.5665460000000  0.5279140000000 1.0
C      1  0.5280080000000  0.5481140000000  0.4332060000000 1.0
C      1  0.5666600000000  0.4718380000000  0.5481340000000 1.0
C      1  0.4333000000000  0.5278940000000  0.5481340000000 1.0
C      1  0.5666600000000  0.5278940000000  0.4516380000000 1.0
C      1  0.5482280000000  0.5665460000000  0.4718580000000 1.0
C      1  0.4517320000000  0.4331860000000  0.4718580000000 1.0
C      1  0.5482280000000  0.4331860000000  0.5279140000000 1.0
C      1  0.4719520000000  0.5481140000000  0.5665660000000 1.0
C      1  0.5280080000000  0.4516180000000  0.5665660000000 1.0
C      1  0.4719520000000  0.4516180000000  0.4332060000000 1.0
C      1  0.4244730000000  0.5068590000000  0.4488260000000 1.0
C      1  0.4489200000000  0.4243590000000  0.5068790000000 1.0
C      1  0.5069730000000  0.4488060000000  0.4243790000000 1.0
C      1  0.5754870000000  0.5068590000000  0.5509460000000 1.0
C      1  0.4244730000000  0.4928730000000  0.5509460000000 1.0
C      1  0.5754870000000  0.4928730000000  0.4488260000000 1.0
C      1  0.5510400000000  0.4243590000000  0.4928930000000 1.0
C      1  0.4489200000000  0.5753730000000  0.4928930000000 1.0
C      1  0.5510400000000  0.5753730000000  0.5068790000000 1.0
C      1  0.4929870000000  0.4488060000000  0.5753930000000 1.0
C      1  0.5069730000000  0.5509260000000  0.5753930000000 1.0
C      1  0.4929870000000  0.5509260000000  0.4243790000000 1.0
C      1  0.4244730000000  0.4928730000000  0.4488260000000 1.0
C      1  0.4489200000000  0.5753730000000  0.5068790000000 1.0
C      1  0.5069730000000  0.5509260000000  0.4243790000000 1.0
C      1  0.5754870000000  0.4928730000000  0.5509460000000 1.0
C      1  0.4244730000000  0.5068590000000  0.5509460000000 1.0
C      1  0.5754870000000  0.5068590000000  0.4488260000000 1.0
C      1  0.5510400000000  0.5753730000000  0.4928930000000 1.0
C      1  0.4489200000000  0.4243590000000  0.4928930000000 1.0
C      1  0.5510400000000  0.4243590000000  0.5068790000000 1.0
C      1  0.4929870000000  0.5509260000000  0.5753930000000 1.0
C      1  0.5069730000000  0.4488060000000  0.5753930000000 1.0
C      1  0.4929870000000  0.4488060000000  0.4243790000000 1.0
C      1  0.4931580000000  0.5902790000000  0.5217870000000 1.0
C      1  0.5218810000000  0.4930450000000  0.5902990000000 1.0
C      1  0.5903930000000  0.5217670000000  0.4930650000000 1.0
C      1  0.5068010000000  0.5902790000000  0.4779850000000 1.0
C      1  0.4931580000000  0.4094530000000  0.4779850000000 1.0
C      1  0.5068010000000  0.4094530000000  0.5217870000000 1.0
C      1  0.4780790000000  0.4930450000000  0.4094730000000 1.0
C      1  0.5218810000000  0.5066880000000  0.4094730000000 1.0
C      1  0.4780790000000  0.5066880000000  0.5902990000000 1.0
C      1  0.4095670000000  0.5217670000000  0.5067080000000 1.0
C      1  0.5903930000000  0.4779650000000  0.5067080000000 1.0
C      1  0.4095670000000  0.4779650000000  0.4930650000000 1.0
C      1  0.4931580000000  0.4094530000000  0.5217870000000 1.0
C      1  0.5218810000000  0.5066880000000  0.5902990000000 1.0
C      1  0.5903930000000  0.4779650000000  0.4930650000000 1.0
C      1  0.5068010000000  0.4094530000000  0.4779850000000 1.0
C      1  0.4931580000000  0.5902790000000  0.4779850000000 1.0
C      1  0.5068010000000  0.5902790000000  0.5217870000000 1.0
C      1  0.4780790000000  0.5066880000000  0.4094730000000 1.0
C      1  0.5218810000000  0.4930450000000  0.4094730000000 1.0
C      1  0.4780790000000  0.4930450000000  0.5902990000000 1.0
C      1  0.4095670000000  0.4779650000000  0.5067080000000 1.0
C      1  0.5903930000000  0.5217670000000  0.5067080000000 1.0
C      1  0.4095670000000  0.5217670000000  0.4930650000000 1.0
C      1  0.4565000000000  0.4649070000000  0.5069770000000 1.0
C      1  0.5070710000000  0.4563860000000  0.4649280000000 1.0
C      1  0.4650210000000  0.5069570000000  0.4564060000000 1.0
C      1  0.5434600000000  0.4649070000000  0.4927950000000 1.0
C      1  0.4565000000000  0.5348250000000  0.4927950000000 1.0
C      1  0.5434600000000  0.5348250000000  0.5069770000000 1.0
C      1  0.4928890000000  0.4563860000000  0.5348450000000 1.0
C      1  0.5070710000000  0.5433460000000  0.5348450000000 1.0
C      1  0.4928890000000  0.5433460000000  0.4649280000000 1.0
C      1  0.5349380000000  0.5069570000000  0.5433660000000 1.0
C      1  0.4650210000000  0.4927750000000  0.5433660000000 1.0
C      1  0.5349380000000  0.4927750000000  0.4564060000000 1.0
C      1  0.4565000000000  0.5348250000000  0.5069770000000 1.0
C      1  0.5070710000000  0.5433460000000  0.4649280000000 1.0
C      1  0.4650210000000  0.4927750000000  0.4564060000000 1.0
C      1  0.5434600000000  0.5348250000000  0.4927950000000 1.0
C      1  0.4565000000000  0.4649070000000  0.4927950000000 1.0
C      1  0.5434600000000  0.4649070000000  0.5069770000000 1.0
C      1  0.4928890000000  0.5433460000000  0.5348450000000 1.0
C      1  0.5070710000000  0.4563860000000  0.5348450000000 1.0
C      1  0.4928890000000  0.4563860000000  0.4649280000000 1.0
C      1  0.5349380000000  0.4927750000000  0.5433660000000 1.0
C      1  0.4650210000000  0.5069570000000  0.5433660000000 1.0
C      1  0.5349380000000  0.5069570000000  0.4564060000000 1.0
C      1  0.4925400000000  0.4864140000000  0.4562360000000 1.0
C      1  0.4563290000000  0.4924260000000  0.4864340000000 1.0
C      1  0.4865280000000  0.4562160000000  0.4924460000000 1.0
C      1  0.5074200000000  0.4864140000000  0.5435370000000 1.0
C      1  0.4925400000000  0.5133180000000  0.5435370000000 1.0
C      1  0.5074200000000  0.5133180000000  0.4562360000000 1.0
C      1  0.5436300000000  0.4924260000000  0.5133380000000 1.0
C      1  0.4563290000000  0.5073060000000  0.5133380000000 1.0
C      1  0.5436300000000  0.5073060000000  0.4864340000000 1.0
C      1  0.5134320000000  0.4562160000000  0.5073260000000 1.0
C      1  0.4865280000000  0.5435170000000  0.5073260000000 1.0
C      1  0.5134320000000  0.5435170000000  0.4924460000000 1.0
C      1  0.4925400000000  0.5133180000000  0.4562360000000 1.0
C      1  0.4563290000000  0.5073060000000  0.4864340000000 1.0
C      1  0.4865280000000  0.5435170000000  0.4924460000000 1.0
C      1  0.5074200000000  0.5133180000000  0.5435370000000 1.0
C      1  0.4925400000000  0.4864140000000  0.5435370000000 1.0
C      1  0.5074200000000  0.4864140000000  0.4562360000000 1.0
C      1  0.5436300000000  0.5073060000000  0.5133380000000 1.0
C      1  0.4563290000000  0.4924260000000  0.5133380000000 1.0
C      1  0.5436300000000  0.4924260000000  0.4864340000000 1.0
C      1  0.5134320000000  0.5435170000000  0.5073260000000 1.0
C      1  0.4865280000000  0.4562160000000  0.5073260000000 1.0
C      1  0.5134320000000  0.4562160000000  0.4924460000000 1.0
C      1  0.4699450000000  0.4698310000000  0.5299210000000 1.0
C      1  0.5300150000000  0.4698310000000  0.4698510000000 1.0
C      1  0.4699450000000  0.5299010000000  0.4698510000000 1.0
C      1  0.5300150000000  0.5299010000000  0.5299210000000 1.0
C      1  0.5300150000000  0.5299010000000  0.4698510000000 1.0
C      1  0.4699450000000  0.5299010000000  0.5299210000000 1.0
C      1  0.5300150000000  0.4698310000000  0.5299210000000 1.0
C      1  0.4699450000000  0.4698310000000  0.4698510000000 1.0
END
