TITL C-1379268-1316-125 -7.48962515742666e-08 1000000 -1277.4058430547 0 0 180 (C1) n - 1
REM
REM in /nfs/bkarasulu/CARBON/AIRSS/Generating-Clusters/GAP-ML-2020/Higher-Symm/Selected-Sizes/TryA-Only_Ih-Symm/Larger-Clusters/Try2-MINAMP_6A
REM
REM
REM
REM
REM
REM ./C.cell (31579ac4e95a012ec27f3239692ae8a5)
REM
REM compiler GCC version 9.2.1 20190827 (Red Hat 9.2.1-1)
REM options -cpp -mtune=generic -march=x86-64 -g -O0 -fpre-include=/usr/include/finclude/math-vector-fortran.h
REM seed -1395531512 -586012963 1454684002 -822223592 -1433540922 -2080301075 -1502712308 -216368228 -2009704614 -1226579732 -911147203 -1145308456 217708193 -1236267698 -2084947302 1009527101 -546373053 -517047441 396289664 -686191304 1929896623 1907272884 1594383722 -1917591767 -44207588 -2047632386 -801737866 1421615639 -2140320724 -1076694178 302460827 1409289259 -1629843745
REM
CELL 1.54180  100.00000  100.00000  100.00000   90.00000   90.00000   90.00000
LATT -1
SFAC C  
C      1  0.4645270000000  0.4536080000000  0.4735660000000 1.0
C      1  0.4540230000000  0.4745620000000  0.4640300000000 1.0
C      1  0.4737880000000  0.4637290000000  0.4527750000000 1.0
C      1  0.5358680000000  0.4534650000000  0.5269140000000 1.0
C      1  0.5359940000000  0.5464870000000  0.4736860000000 1.0
C      1  0.4641780000000  0.5467090000000  0.5262660000000 1.0
C      1  0.5451270000000  0.4746120000000  0.5368050000000 1.0
C      1  0.5458240000000  0.5256560000000  0.4631010000000 1.0
C      1  0.4541200000000  0.5265950000000  0.5370190000000 1.0
C      1  0.5253610000000  0.4631150000000  0.5473220000000 1.0
C      1  0.5255800000000  0.5361860000000  0.4531120000000 1.0
C      1  0.4753310000000  0.5360260000000  0.5462970000000 1.0
C      1  0.4746100000000  0.4536660000000  0.4631690000000 1.0
C      1  0.4636850000000  0.4737860000000  0.4531670000000 1.0
C      1  0.4544010000000  0.4641330000000  0.4744170000000 1.0
C      1  0.5258020000000  0.4529930000000  0.5370160000000 1.0
C      1  0.4747300000000  0.5463790000000  0.5360810000000 1.0
C      1  0.5253260000000  0.5462890000000  0.4636130000000 1.0
C      1  0.5353940000000  0.4734320000000  0.5476290000000 1.0
C      1  0.4647920000000  0.5259250000000  0.5468350000000 1.0
C      1  0.5356100000000  0.5259520000000  0.4528460000000 1.0
C      1  0.5455930000000  0.4642480000000  0.5264660000000 1.0
C      1  0.4538150000000  0.5366570000000  0.5269420000000 1.0
C      1  0.5461370000000  0.5359870000000  0.4731530000000 1.0
C      1  0.5077080000000  0.4836700000000  0.4285790000000 1.0
C      1  0.4846190000000  0.4293830000000  0.5074770000000 1.0
C      1  0.4332760000000  0.5073540000000  0.4827100000000 1.0
C      1  0.4925080000000  0.4832500000000  0.5682920000000 1.0
C      1  0.4921550000000  0.5172260000000  0.4293770000000 1.0
C      1  0.5073180000000  0.5183280000000  0.5693730000000 1.0
C      1  0.5153590000000  0.4316830000000  0.4917480000000 1.0
C      1  0.5182730000000  0.5678800000000  0.5060480000000 1.0
C      1  0.4834780000000  0.5680450000000  0.4927910000000 1.0
C      1  0.5635490000000  0.5078380000000  0.5188400000000 1.0
C      1  0.5673150000000  0.4925970000000  0.4838240000000 1.0
C      1  0.4323570000000  0.4920520000000  0.5158030000000 1.0
C      1  0.4335870000000  0.4824130000000  0.5075580000000 1.0
C      1  0.5076100000000  0.4326710000000  0.4816940000000 1.0
C      1  0.4833900000000  0.5079310000000  0.4288240000000 1.0
C      1  0.5671050000000  0.4843030000000  0.4933670000000 1.0
C      1  0.4321020000000  0.5155380000000  0.4924070000000 1.0
C      1  0.5654280000000  0.5147340000000  0.5082680000000 1.0
C      1  0.4928930000000  0.4296260000000  0.5171840000000 1.0
C      1  0.5084630000000  0.5680840000000  0.5142120000000 1.0
C      1  0.4927180000000  0.5677210000000  0.4841230000000 1.0
C      1  0.5144780000000  0.5079590000000  0.5713650000000 1.0
C      1  0.4841600000000  0.4927990000000  0.5681530000000 1.0
C      1  0.5169350000000  0.4925050000000  0.4291910000000 1.0
C      1  0.5187290000000  0.4573100000000  0.4499710000000 1.0
C      1  0.4577710000000  0.4502210000000  0.5187740000000 1.0
C      1  0.4514550000000  0.5277170000000  0.4586490000000 1.0
C      1  0.4711420000000  0.4607250000000  0.5491640000000 1.0
C      1  0.4795740000000  0.5420960000000  0.4526510000000 1.0
C      1  0.5298620000000  0.5368380000000  0.5457110000000 1.0
C      1  0.5431030000000  0.4518080000000  0.4813140000000 1.0
C      1  0.5444600000000  0.5530840000000  0.5266540000000 1.0
C      1  0.4597850000000  0.5495760000000  0.4721960000000 1.0
C      1  0.5425030000000  0.5283430000000  0.5422660000000 1.0
C      1  0.5484940000000  0.4712690000000  0.4611020000000 1.0
C      1  0.4519000000000  0.4810670000000  0.5436740000000 1.0
C      1  0.4519900000000  0.4583330000000  0.5277230000000 1.0
C      1  0.5276460000000  0.4516630000000  0.4582240000000 1.0
C      1  0.4571040000000  0.5188340000000  0.4503670000000 1.0
C      1  0.5490820000000  0.4602630000000  0.4721980000000 1.0
C      1  0.4515190000000  0.5435420000000  0.4815030000000 1.0
C      1  0.5511030000000  0.5459470000000  0.5176400000000 1.0
C      1  0.4799460000000  0.4522290000000  0.5424420000000 1.0
C      1  0.5209170000000  0.5466440000000  0.5406740000000 1.0
C      1  0.4708950000000  0.5488030000000  0.4612320000000 1.0
C      1  0.5425980000000  0.5180950000000  0.5520150000000 1.0
C      1  0.4601950000000  0.4718400000000  0.5497230000000 1.0
C      1  0.5418330000000  0.4800060000000  0.4525040000000 1.0
C      1  0.4447710000000  0.5025470000000  0.5370810000000 1.0
C      1  0.5011600000000  0.5367130000000  0.4443320000000 1.0
C      1  0.5362760000000  0.4444680000000  0.5026490000000 1.0
C      1  0.5539490000000  0.5007230000000  0.4623230000000 1.0
C      1  0.5517400000000  0.5000210000000  0.5390320000000 1.0
C      1  0.4461590000000  0.4996860000000  0.4619350000000 1.0
C      1  0.5007380000000  0.5372950000000  0.5534380000000 1.0
C      1  0.4975350000000  0.4636380000000  0.4426230000000 1.0
C      1  0.5004370000000  0.4618230000000  0.5550970000000 1.0
C      1  0.4643560000000  0.4433770000000  0.4975200000000 1.0
C      1  0.4621850000000  0.5552280000000  0.5015760000000 1.0
C      1  0.5393550000000  0.5559180000000  0.4982280000000 1.0
C      1  0.5362950000000  0.5015510000000  0.4441540000000 1.0
C      1  0.4444060000000  0.5368060000000  0.5029620000000 1.0
C      1  0.5015970000000  0.4439600000000  0.5371870000000 1.0
C      1  0.4627150000000  0.5010970000000  0.5552950000000 1.0
C      1  0.5359220000000  0.4967500000000  0.5590990000000 1.0
C      1  0.4634950000000  0.4976360000000  0.4430720000000 1.0
C      1  0.5560690000000  0.5367530000000  0.4970790000000 1.0
C      1  0.4467240000000  0.4618290000000  0.4996650000000 1.0
C      1  0.5542600000000  0.4626550000000  0.5016110000000 1.0
C      1  0.4996430000000  0.4459120000000  0.4611920000000 1.0
C      1  0.5002140000000  0.5542590000000  0.4625480000000 1.0
C      1  0.4992210000000  0.5547690000000  0.5352510000000 1.0
C      1  0.5234830000000  0.4436360000000  0.4685170000000 1.0
C      1  0.4440720000000  0.4687340000000  0.5235620000000 1.0
C      1  0.4687960000000  0.5205620000000  0.4423570000000 1.0
C      1  0.4789560000000  0.4433310000000  0.5308130000000 1.0
C      1  0.4775620000000  0.5595870000000  0.4683790000000 1.0
C      1  0.5217870000000  0.5566890000000  0.5302840000000 1.0
C      1  0.5594850000000  0.4681130000000  0.4786030000000 1.0
C      1  0.5554320000000  0.5327450000000  0.5201260000000 1.0
C      1  0.4432740000000  0.5320630000000  0.4802340000000 1.0
C      1  0.5319690000000  0.5193390000000  0.5610790000000 1.0
C      1  0.5304770000000  0.4787760000000  0.4433410000000 1.0
C      1  0.4678240000000  0.4780140000000  0.5604310000000 1.0
C      1  0.4695550000000  0.4423170000000  0.5204410000000 1.0
C      1  0.5204100000000  0.4690940000000  0.4420800000000 1.0
C      1  0.4436230000000  0.5235070000000  0.4690780000000 1.0
C      1  0.5318390000000  0.4433280000000  0.4798350000000 1.0
C      1  0.4674900000000  0.5602300000000  0.4783580000000 1.0
C      1  0.5329840000000  0.5591680000000  0.5222180000000 1.0
C      1  0.4776440000000  0.4677750000000  0.5600960000000 1.0
C      1  0.5237750000000  0.5299350000000  0.5570700000000 1.0
C      1  0.4784130000000  0.5307020000000  0.4435320000000 1.0
C      1  0.5515500000000  0.5248270000000  0.5312440000000 1.0
C      1  0.4436450000000  0.4798250000000  0.5321980000000 1.0
C      1  0.5591300000000  0.4779690000000  0.4684080000000 1.0
C      1  0.4649780000000  0.5544610000000  0.5149410000000 1.0
C      1  0.5533390000000  0.5142280000000  0.4641670000000 1.0
C      1  0.5139230000000  0.4638760000000  0.5548390000000 1.0
C      1  0.5358370000000  0.5542960000000  0.4850210000000 1.0
C      1  0.5345350000000  0.4453430000000  0.5158320000000 1.0
C      1  0.4658770000000  0.4451830000000  0.4843700000000 1.0
C      1  0.4457540000000  0.5157250000000  0.5353960000000 1.0
C      1  0.4467150000000  0.4861920000000  0.4649420000000 1.0
C      1  0.5518180000000  0.4866250000000  0.5356180000000 1.0
C      1  0.4843660000000  0.4655110000000  0.4440210000000 1.0
C      1  0.4871040000000  0.5351780000000  0.5533760000000 1.0
C      1  0.5144410000000  0.5350590000000  0.4450430000000 1.0
C      1  0.5137440000000  0.5535520000000  0.4644560000000 1.0
C      1  0.4654970000000  0.5144760000000  0.5543720000000 1.0
C      1  0.5531220000000  0.4651060000000  0.5150280000000 1.0
C      1  0.4859290000000  0.5541600000000  0.5343840000000 1.0
C      1  0.5148910000000  0.4446730000000  0.5355070000000 1.0
C      1  0.4861420000000  0.4461580000000  0.4641000000000 1.0
C      1  0.5343170000000  0.5148260000000  0.4447430000000 1.0
C      1  0.4652110000000  0.4844760000000  0.4445110000000 1.0
C      1  0.5341120000000  0.4838080000000  0.5565950000000 1.0
C      1  0.4472650000000  0.4647600000000  0.4861760000000 1.0
C      1  0.5543280000000  0.5344860000000  0.4840740000000 1.0
C      1  0.4453800000000  0.5349200000000  0.5161350000000 1.0
C      1  0.5561300000000  0.5108170000000  0.5302820000000 1.0
C      1  0.5101500000000  0.5292740000000  0.5608610000000 1.0
C      1  0.5308190000000  0.5622130000000  0.5082190000000 1.0
C      1  0.4400790000000  0.5095710000000  0.4706940000000 1.0
C      1  0.4387190000000  0.4923050000000  0.5282120000000 1.0
C      1  0.5611160000000  0.4914930000000  0.4709720000000 1.0
C      1  0.4912120000000  0.5282510000000  0.4376220000000 1.0
C      1  0.4911610000000  0.4704010000000  0.5621890000000 1.0
C      1  0.5078420000000  0.4721910000000  0.4362370000000 1.0
C      1  0.4704590000000  0.5622290000000  0.4918730000000 1.0
C      1  0.4729640000000  0.4368890000000  0.5077330000000 1.0
C      1  0.5276570000000  0.4383210000000  0.4922420000000 1.0
C      1  0.5274160000000  0.5069940000000  0.5658090000000 1.0
C      1  0.5604160000000  0.5277220000000  0.5079220000000 1.0
C      1  0.5090360000000  0.5611810000000  0.5264460000000 1.0
C      1  0.4719560000000  0.5079850000000  0.4365600000000 1.0
C      1  0.5279480000000  0.4915660000000  0.4374460000000 1.0
C      1  0.4710440000000  0.4915230000000  0.5623180000000 1.0
C      1  0.4383950000000  0.5279780000000  0.4927000000000 1.0
C      1  0.5612640000000  0.4711850000000  0.4921450000000 1.0
C      1  0.4405230000000  0.4704470000000  0.5096310000000 1.0
C      1  0.4911120000000  0.5614910000000  0.4711990000000 1.0
C      1  0.5096330000000  0.4397880000000  0.4698560000000 1.0
C      1  0.4917560000000  0.4374650000000  0.5284760000000 1.0
C      1  0.5458520000000  0.4527730000000  0.4954510000000 1.0
C      1  0.4524570000000  0.5464980000000  0.4956030000000 1.0
C      1  0.4543210000000  0.5049540000000  0.4515170000000 1.0
C      1  0.5048680000000  0.4543740000000  0.4509830000000 1.0
C      1  0.5452320000000  0.5044450000000  0.5506800000000 1.0
C      1  0.5451330000000  0.4942120000000  0.4529410000000 1.0
C      1  0.4528850000000  0.4951470000000  0.5466710000000 1.0
C      1  0.4940760000000  0.4525680000000  0.5460390000000 1.0
C      1  0.4937510000000  0.5454790000000  0.4531110000000 1.0
C      1  0.5068880000000  0.5461820000000  0.5441430000000 1.0
C      1  0.4550300000000  0.4515220000000  0.5048900000000 1.0
C      1  0.5496740000000  0.5477730000000  0.5036450000000 1.0
END
