TITL C-1379267-1329-249 6.0982169759888e-07 1000000 -2373.7949351606 0 0 340 (D2d) n - 1
REM
REM in /nfs/bkarasulu/CARBON/AIRSS/Generating-Clusters/GAP-ML-2020/Higher-Symm/Selected-Sizes/TryA-Only_Ih-Symm/Larger-Clusters/Try2-MINAMP_6A
REM
REM
REM
REM
REM
REM ./C.cell (31579ac4e95a012ec27f3239692ae8a5)
REM
REM compiler GCC version 9.2.1 20190827 (Red Hat 9.2.1-1)
REM options -cpp -mtune=generic -march=x86-64 -g -O0 -fpre-include=/usr/include/finclude/math-vector-fortran.h
REM seed -67524356 796827137 -792454230 -1295162123 1968432459 -83316098 -1083525699 -1979820109 -1726439225 -1698829504 -1488028500 -887177547 -1875361910 -193121702 572342022 -1460936353 1484010029 1083747235 -1863147083 1933963816 1206330785 1808690813 1247800149 203180015 1558363881 -760049683 -1472707913 -616283075 276404945 -1776884356 1812793257 -1585512531 -459080211
REM
CELL 1.54180  100.00000  100.00000  100.00000   90.00000   90.00000   90.00000
LATT -1
SFAC C  
C      1  0.5144690000000  0.5049820000000  0.5772230000000 1.0
C      1  0.5669620000000  0.5136270000000  0.5035060000000 1.0
C      1  0.5035900000000  0.5773010000000  0.5145760000000 1.0
C      1  0.5144690000000  0.4944810000000  0.4225260000000 1.0
C      1  0.4847380000000  0.4944760000000  0.5772230000000 1.0
C      1  0.4847320000000  0.5049940000000  0.4225130000000 1.0
C      1  0.5669670000000  0.4858170000000  0.4962320000000 1.0
C      1  0.4322410000000  0.4858130000000  0.5035120000000 1.0
C      1  0.4322400000000  0.5136240000000  0.4962360000000 1.0
C      1  0.5035990000000  0.4221430000000  0.4851740000000 1.0
C      1  0.4956110000000  0.4221370000000  0.5145900000000 1.0
C      1  0.4956090000000  0.5773040000000  0.4851720000000 1.0
C      1  0.5144630000000  0.5770710000000  0.5051240000000 1.0
C      1  0.5669620000000  0.5033590000000  0.5137740000000 1.0
C      1  0.5035950000000  0.5144320000000  0.5774520000000 1.0
C      1  0.5144750000000  0.4223740000000  0.4946240000000 1.0
C      1  0.4847360000000  0.5770720000000  0.4946240000000 1.0
C      1  0.4847350000000  0.4223630000000  0.5051420000000 1.0
C      1  0.5669670000000  0.4960860000000  0.4859650000000 1.0
C      1  0.4322420000000  0.5033570000000  0.4859680000000 1.0
C      1  0.4322400000000  0.4960820000000  0.5137780000000 1.0
C      1  0.5035950000000  0.4850300000000  0.4222940000000 1.0
C      1  0.4956070000000  0.5144430000000  0.4222870000000 1.0
C      1  0.4956120000000  0.4850250000000  0.5774540000000 1.0
C      1  0.5178820000000  0.5123300000000  0.5501370000000 1.0
C      1  0.5421360000000  0.5222040000000  0.5119490000000 1.0
C      1  0.5061460000000  0.5494810000000  0.5218560000000 1.0
C      1  0.5178570000000  0.4871380000000  0.4496250000000 1.0
C      1  0.4813280000000  0.4871220000000  0.5501360000000 1.0
C      1  0.4813130000000  0.5123420000000  0.4495970000000 1.0
C      1  0.5421470000000  0.4772290000000  0.4877790000000 1.0
C      1  0.4570640000000  0.4772320000000  0.5119580000000 1.0
C      1  0.4570660000000  0.5222030000000  0.4877930000000 1.0
C      1  0.5061190000000  0.4499770000000  0.4779090000000 1.0
C      1  0.4930590000000  0.4499590000000  0.5218640000000 1.0
C      1  0.4930500000000  0.5494860000000  0.4778860000000 1.0
C      1  0.5178780000000  0.5499860000000  0.5124750000000 1.0
C      1  0.5421370000000  0.5118020000000  0.5223530000000 1.0
C      1  0.5061490000000  0.5217100000000  0.5496320000000 1.0
C      1  0.5178600000000  0.4494730000000  0.4872830000000 1.0
C      1  0.4813190000000  0.5499900000000  0.4872670000000 1.0
C      1  0.4813230000000  0.4494500000000  0.5124870000000 1.0
C      1  0.5421460000000  0.4876310000000  0.4773770000000 1.0
C      1  0.4570660000000  0.5118010000000  0.4773880000000 1.0
C      1  0.4570650000000  0.4876360000000  0.5223590000000 1.0
C      1  0.5061160000000  0.4777630000000  0.4501270000000 1.0
C      1  0.4930470000000  0.5217210000000  0.4501050000000 1.0
C      1  0.4930630000000  0.4777430000000  0.5496320000000 1.0
C      1  0.4424280000000  0.5145210000000  0.4321220000000 1.0
C      1  0.4341090000000  0.4426670000000  0.5148720000000 1.0
C      1  0.5146780000000  0.4326170000000  0.4423860000000 1.0
C      1  0.4424350000000  0.4849470000000  0.5676200000000 1.0
C      1  0.5567730000000  0.4849460000000  0.4321340000000 1.0
C      1  0.5567720000000  0.5145100000000  0.5676160000000 1.0
C      1  0.4341140000000  0.5567700000000  0.4848960000000 1.0
C      1  0.5650890000000  0.5567720000000  0.5148520000000 1.0
C      1  0.5651140000000  0.4426710000000  0.4848810000000 1.0
C      1  0.5146560000000  0.5668490000000  0.5573640000000 1.0
C      1  0.4845470000000  0.5668590000000  0.4423830000000 1.0
C      1  0.4845470000000  0.4326050000000  0.5573790000000 1.0
C      1  0.4424310000000  0.4319710000000  0.5146740000000 1.0
C      1  0.4341120000000  0.5147180000000  0.4428220000000 1.0
C      1  0.5146770000000  0.4422430000000  0.4327610000000 1.0
C      1  0.4424320000000  0.5674690000000  0.4851000000000 1.0
C      1  0.5567770000000  0.4319860000000  0.4850850000000 1.0
C      1  0.5567680000000  0.5674680000000  0.5146500000000 1.0
C      1  0.4341120000000  0.4847420000000  0.5569250000000 1.0
C      1  0.5650920000000  0.5147110000000  0.5569190000000 1.0
C      1  0.5651110000000  0.4847400000000  0.4428170000000 1.0
C      1  0.5146570000000  0.5572200000000  0.5669940000000 1.0
C      1  0.4845470000000  0.4422350000000  0.5670050000000 1.0
C      1  0.4845470000000  0.5572310000000  0.4327510000000 1.0
C      1  0.4287810000000  0.4947130000000  0.5470960000000 1.0
C      1  0.5470500000000  0.4249800000000  0.4942320000000 1.0
C      1  0.4952260000000  0.5499180000000  0.4252860000000 1.0
C      1  0.4287790000000  0.5047430000000  0.4526460000000 1.0
C      1  0.5704230000000  0.5047370000000  0.5470920000000 1.0
C      1  0.5704340000000  0.4947170000000  0.4526490000000 1.0
C      1  0.5470340000000  0.5744650000000  0.5055020000000 1.0
C      1  0.4521670000000  0.5744640000000  0.4942480000000 1.0
C      1  0.4521630000000  0.4249710000000  0.5055270000000 1.0
C      1  0.4952270000000  0.4495510000000  0.5744670000000 1.0
C      1  0.5039960000000  0.4495530000000  0.4252930000000 1.0
C      1  0.5039780000000  0.5499060000000  0.5744590000000 1.0
C      1  0.4287820000000  0.5469410000000  0.4948670000000 1.0
C      1  0.5470440000000  0.4940930000000  0.4251300000000 1.0
C      1  0.4952270000000  0.4251390000000  0.5500660000000 1.0
C      1  0.4287780000000  0.4524920000000  0.5048960000000 1.0
C      1  0.5704200000000  0.5469440000000  0.5048790000000 1.0
C      1  0.5704370000000  0.4525010000000  0.4948590000000 1.0
C      1  0.5470400000000  0.5053630000000  0.5746140000000 1.0
C      1  0.4521680000000  0.4940950000000  0.5746170000000 1.0
C      1  0.4521610000000  0.5053750000000  0.4251230000000 1.0
C      1  0.4952270000000  0.5743200000000  0.4496990000000 1.0
C      1  0.5039980000000  0.4251470000000  0.4496970000000 1.0
C      1  0.5039770000000  0.5743120000000  0.5500490000000 1.0
C      1  0.4837940000000  0.4323010000000  0.4950060000000 1.0
C      1  0.4926980000000  0.4845750000000  0.4314070000000 1.0
C      1  0.4428470000000  0.4937660000000  0.4842120000000 1.0
C      1  0.4837960000000  0.5671280000000  0.5047550000000 1.0
C      1  0.5154030000000  0.5671280000000  0.4949910000000 1.0
C      1  0.5154090000000  0.4323120000000  0.5047600000000 1.0
C      1  0.4927050000000  0.5148910000000  0.5683290000000 1.0
C      1  0.5064950000000  0.5148990000000  0.4314130000000 1.0
C      1  0.5065020000000  0.4845640000000  0.5683320000000 1.0
C      1  0.4428460000000  0.5056700000000  0.5155340000000 1.0
C      1  0.5563580000000  0.5056700000000  0.4842070000000 1.0
C      1  0.5563570000000  0.4937680000000  0.5155290000000 1.0
C      1  0.4837910000000  0.4948590000000  0.4324520000000 1.0
C      1  0.4927010000000  0.4312560000000  0.4847220000000 1.0
C      1  0.4428470000000  0.4840570000000  0.4939220000000 1.0
C      1  0.4837990000000  0.5046080000000  0.5672790000000 1.0
C      1  0.5154080000000  0.4948480000000  0.5672820000000 1.0
C      1  0.5154030000000  0.5046170000000  0.4324650000000 1.0
C      1  0.4927020000000  0.5681780000000  0.5150390000000 1.0
C      1  0.5065010000000  0.4312600000000  0.5150430000000 1.0
C      1  0.5064970000000  0.5681800000000  0.4847090000000 1.0
C      1  0.4428470000000  0.5153790000000  0.5058260000000 1.0
C      1  0.5563590000000  0.4840590000000  0.5058180000000 1.0
C      1  0.5563550000000  0.5153810000000  0.4939160000000 1.0
C      1  0.4451480000000  0.5459230000000  0.4642480000000 1.0
C      1  0.4660800000000  0.4406270000000  0.5420950000000 1.0
C      1  0.5451070000000  0.4652050000000  0.4421340000000 1.0
C      1  0.4451470000000  0.4535280000000  0.5355110000000 1.0
C      1  0.5540730000000  0.4535380000000  0.4642460000000 1.0
C      1  0.5540550000000  0.5459180000000  0.5354970000000 1.0
C      1  0.4660710000000  0.5588430000000  0.4576620000000 1.0
C      1  0.5331260000000  0.5588280000000  0.5420810000000 1.0
C      1  0.5331130000000  0.4406760000000  0.4576840000000 1.0
C      1  0.5451050000000  0.5342530000000  0.5576240000000 1.0
C      1  0.4540950000000  0.5342620000000  0.4421160000000 1.0
C      1  0.4541010000000  0.4652010000000  0.5576320000000 1.0
C      1  0.4451470000000  0.4640960000000  0.5460740000000 1.0
C      1  0.4660700000000  0.5419520000000  0.4407620000000 1.0
C      1  0.5451080000000  0.4419890000000  0.4653470000000 1.0
C      1  0.4451470000000  0.5353600000000  0.4536800000000 1.0
C      1  0.5540720000000  0.4641030000000  0.4536820000000 1.0
C      1  0.5540560000000  0.5353540000000  0.5460630000000 1.0
C      1  0.4660810000000  0.4575180000000  0.5589780000000 1.0
C      1  0.5331270000000  0.5419390000000  0.5589730000000 1.0
C      1  0.5331120000000  0.4575420000000  0.4408210000000 1.0
C      1  0.5451030000000  0.5574780000000  0.5343950000000 1.0
C      1  0.4540990000000  0.4419690000000  0.5344130000000 1.0
C      1  0.4540970000000  0.5574850000000  0.4653520000000 1.0
C      1  0.5237500000000  0.5460430000000  0.5687800000000 1.0
C      1  0.5634830000000  0.5246890000000  0.5463260000000 1.0
C      1  0.5469050000000  0.5675580000000  0.5250250000000 1.0
C      1  0.5237600000000  0.4534290000000  0.4309960000000 1.0
C      1  0.4754560000000  0.4534140000000  0.5687870000000 1.0
C      1  0.4754530000000  0.5460550000000  0.4309600000000 1.0
C      1  0.5635080000000  0.4747620000000  0.4534100000000 1.0
C      1  0.4357180000000  0.4747610000000  0.5463360000000 1.0
C      1  0.4357220000000  0.5246930000000  0.4534170000000 1.0
C      1  0.5469090000000  0.4319040000000  0.4747130000000 1.0
C      1  0.4522970000000  0.4318850000000  0.5250480000000 1.0
C      1  0.4522940000000  0.5675620000000  0.4747230000000 1.0
C      1  0.5237480000000  0.5686340000000  0.5461860000000 1.0
C      1  0.5634820000000  0.5461810000000  0.5248310000000 1.0
C      1  0.5469080000000  0.5248850000000  0.5677050000000 1.0
C      1  0.5237620000000  0.4308510000000  0.4535720000000 1.0
C      1  0.4754530000000  0.5686460000000  0.4535600000000 1.0
C      1  0.4754560000000  0.4308190000000  0.5462000000000 1.0
C      1  0.5635090000000  0.4532650000000  0.4749040000000 1.0
C      1  0.4357220000000  0.5461820000000  0.4749150000000 1.0
C      1  0.4357180000000  0.4532620000000  0.5248470000000 1.0
C      1  0.5469060000000  0.4745730000000  0.4320510000000 1.0
C      1  0.4522920000000  0.5248960000000  0.4320340000000 1.0
C      1  0.4522980000000  0.4745710000000  0.5677110000000 1.0
C      1  0.5241530000000  0.5201430000000  0.5399310000000 1.0
C      1  0.5343450000000  0.5307670000000  0.5205240000000 1.0
C      1  0.5123340000000  0.5385620000000  0.5289410000000 1.0
C      1  0.5241120000000  0.4793290000000  0.4598410000000 1.0
C      1  0.4750590000000  0.4793070000000  0.5399310000000 1.0
C      1  0.4750420000000  0.5201530000000  0.4598050000000 1.0
C      1  0.5343340000000  0.4686750000000  0.4792130000000 1.0
C      1  0.4648590000000  0.4686730000000  0.5205330000000 1.0
C      1  0.4648540000000  0.5307680000000  0.4792190000000 1.0
C      1  0.5122910000000  0.4609090000000  0.4708290000000 1.0
C      1  0.4868760000000  0.4608840000000  0.5289450000000 1.0
C      1  0.4868610000000  0.5385690000000  0.4707990000000 1.0
C      1  0.5241510000000  0.5397820000000  0.5202890000000 1.0
C      1  0.5343460000000  0.5203760000000  0.5309150000000 1.0
C      1  0.5123350000000  0.5287930000000  0.5387110000000 1.0
C      1  0.5241130000000  0.4596920000000  0.4794750000000 1.0
C      1  0.4750440000000  0.5397870000000  0.4794510000000 1.0
C      1  0.4750570000000  0.4596620000000  0.5202970000000 1.0
C      1  0.5343330000000  0.4790660000000  0.4688240000000 1.0
C      1  0.4648530000000  0.5203790000000  0.4688260000000 1.0
C      1  0.4648600000000  0.4790660000000  0.5309210000000 1.0
C      1  0.5122900000000  0.4706810000000  0.4610570000000 1.0
C      1  0.4868600000000  0.5288020000000  0.4610270000000 1.0
C      1  0.4868780000000  0.4706570000000  0.5387120000000 1.0
C      1  0.5431990000000  0.4614880000000  0.5060810000000 1.0
C      1  0.5115970000000  0.5554140000000  0.4633290000000 1.0
C      1  0.4652660000000  0.5053660000000  0.5493730000000 1.0
C      1  0.5431900000000  0.5379500000000  0.4936500000000 1.0
C      1  0.4560110000000  0.5379470000000  0.5060950000000 1.0
C      1  0.4560060000000  0.4614820000000  0.4936630000000 1.0
C      1  0.5116080000000  0.4440290000000  0.5364210000000 1.0
C      1  0.4875850000000  0.4440160000000  0.4633440000000 1.0
C      1  0.4876020000000  0.5554100000000  0.5364170000000 1.0
C      1  0.4652550000000  0.4940930000000  0.4503600000000 1.0
C      1  0.5339420000000  0.4940840000000  0.5493740000000 1.0
C      1  0.5339340000000  0.5053700000000  0.4503720000000 1.0
C      1  0.5431950000000  0.5059360000000  0.4616390000000 1.0
C      1  0.5116070000000  0.4631850000000  0.5555690000000 1.0
C      1  0.4652630000000  0.5492200000000  0.5055180000000 1.0
C      1  0.5431950000000  0.4935050000000  0.5381010000000 1.0
C      1  0.4560110000000  0.5059400000000  0.5381010000000 1.0
C      1  0.4560060000000  0.4935080000000  0.4616360000000 1.0
C      1  0.5115980000000  0.5362770000000  0.4441840000000 1.0
C      1  0.4875840000000  0.4631970000000  0.4441650000000 1.0
C      1  0.4876030000000  0.5362690000000  0.5555600000000 1.0
C      1  0.4652580000000  0.4502080000000  0.4942440000000 1.0
C      1  0.5339360000000  0.5492220000000  0.4942270000000 1.0
C      1  0.5339400000000  0.4502200000000  0.5055130000000 1.0
C      1  0.4531970000000  0.5008460000000  0.5251710000000 1.0
C      1  0.5223050000000  0.4447440000000  0.4997890000000 1.0
C      1  0.5045630000000  0.5250360000000  0.4423440000000 1.0
C      1  0.4531960000000  0.4985930000000  0.4745720000000 1.0
C      1  0.5460060000000  0.4985920000000  0.5251670000000 1.0
C      1  0.5460110000000  0.5008420000000  0.4745690000000 1.0
C      1  0.5223060000000  0.5547020000000  0.4999600000000 1.0
C      1  0.4768920000000  0.5547030000000  0.4997850000000 1.0
C      1  0.4768890000000  0.4447280000000  0.4999760000000 1.0
C      1  0.5045750000000  0.4744280000000  0.5574010000000 1.0
C      1  0.4946130000000  0.4744440000000  0.4423440000000 1.0
C      1  0.4946350000000  0.5250260000000  0.5573970000000 1.0
C      1  0.4531980000000  0.5250150000000  0.5010030000000 1.0
C      1  0.5223000000000  0.4996450000000  0.4448970000000 1.0
C      1  0.5045740000000  0.4421930000000  0.5251790000000 1.0
C      1  0.4531950000000  0.4744170000000  0.4987490000000 1.0
C      1  0.5460040000000  0.5250170000000  0.4987400000000 1.0
C      1  0.5460130000000  0.4744190000000  0.5009890000000 1.0
C      1  0.5223120000000  0.4998160000000  0.5548550000000 1.0
C      1  0.4768970000000  0.4996360000000  0.5548530000000 1.0
C      1  0.4768850000000  0.4998270000000  0.4448790000000 1.0
C      1  0.5045640000000  0.5572510000000  0.4745710000000 1.0
C      1  0.4946150000000  0.4421940000000  0.4745910000000 1.0
C      1  0.4946330000000  0.5572470000000  0.5251730000000 1.0
C      1  0.4283620000000  0.5369860000000  0.4841030000000 1.0
C      1  0.4851600000000  0.4222130000000  0.5392060000000 1.0
C      1  0.5378430000000  0.4827240000000  0.4234020000000 1.0
C      1  0.4283600000000  0.4624540000000  0.5156530000000 1.0
C      1  0.5708620000000  0.4624600000000  0.4841000000000 1.0
C      1  0.5708420000000  0.5369870000000  0.5156410000000 1.0
C      1  0.4851580000000  0.5772470000000  0.4605590000000 1.0
C      1  0.5140440000000  0.5772380000000  0.5391890000000 1.0
C      1  0.5140600000000  0.4222340000000  0.4605610000000 1.0
C      1  0.5378420000000  0.5167320000000  0.5763510000000 1.0
C      1  0.4613590000000  0.5167440000000  0.4233870000000 1.0
C      1  0.4613650000000  0.4827250000000  0.5763550000000 1.0
C      1  0.4283590000000  0.4839500000000  0.5371400000000 1.0
C      1  0.4851580000000  0.5390590000000  0.4223570000000 1.0
C      1  0.5378470000000  0.4232540000000  0.4828640000000 1.0
C      1  0.4283630000000  0.5155000000000  0.4626090000000 1.0
C      1  0.5708610000000  0.4839560000000  0.4626060000000 1.0
C      1  0.5708430000000  0.5154970000000  0.5371330000000 1.0
C      1  0.4851600000000  0.4604120000000  0.5773900000000 1.0
C      1  0.5140460000000  0.5390470000000  0.5773850000000 1.0
C      1  0.5140580000000  0.4604190000000  0.4223810000000 1.0
C      1  0.5378380000000  0.5762030000000  0.5168730000000 1.0
C      1  0.4613630000000  0.4232380000000  0.5168960000000 1.0
C      1  0.4613620000000  0.5762060000000  0.4828770000000 1.0
C      1  0.4273380000000  0.4760560000000  0.5134870000000 1.0
C      1  0.5134540000000  0.4197110000000  0.4741760000000 1.0
C      1  0.4749190000000  0.5158910000000  0.4206940000000 1.0
C      1  0.4273380000000  0.5233840000000  0.4862630000000 1.0
C      1  0.5718650000000  0.5233850000000  0.5134800000000 1.0
C      1  0.5718780000000  0.4760620000000  0.4862600000000 1.0
C      1  0.5134450000000  0.5797500000000  0.5255700000000 1.0
C      1  0.4857550000000  0.5797560000000  0.4741790000000 1.0
C      1  0.4857590000000  0.4196950000000  0.5255890000000 1.0
C      1  0.4749250000000  0.4835800000000  0.5790440000000 1.0
C      1  0.5242840000000  0.4835840000000  0.4207170000000 1.0
C      1  0.5242820000000  0.5158780000000  0.5790420000000 1.0
C      1  0.4273400000000  0.5133340000000  0.4762100000000 1.0
C      1  0.5134510000000  0.4740340000000  0.4198600000000 1.0
C      1  0.4749230000000  0.4205470000000  0.5160400000000 1.0
C      1  0.4273360000000  0.4861090000000  0.5235380000000 1.0
C      1  0.5718650000000  0.5133340000000  0.5235320000000 1.0
C      1  0.5718780000000  0.4861140000000  0.4762080000000 1.0
C      1  0.5134480000000  0.5254280000000  0.5798990000000 1.0
C      1  0.4857590000000  0.4740300000000  0.5799020000000 1.0
C      1  0.4857550000000  0.5254410000000  0.4198410000000 1.0
C      1  0.4749220000000  0.5788970000000  0.4837300000000 1.0
C      1  0.5242880000000  0.4205670000000  0.4837250000000 1.0
C      1  0.5242780000000  0.5788930000000  0.5160190000000 1.0
C      1  0.5139100000000  0.5490030000000  0.4402330000000 1.0
C      1  0.4454770000000  0.5118430000000  0.5470580000000 1.0
C      1  0.5443860000000  0.4412840000000  0.5115560000000 1.0
C      1  0.5139120000000  0.4504580000000  0.5595180000000 1.0
C      1  0.4853040000000  0.4504590000000  0.4402360000000 1.0
C      1  0.4852920000000  0.5489950000000  0.5595130000000 1.0
C      1  0.4454690000000  0.4876090000000  0.4526790000000 1.0
C      1  0.5537310000000  0.4876050000000  0.5470580000000 1.0
C      1  0.5537270000000  0.5118390000000  0.4526800000000 1.0
C      1  0.5443830000000  0.5581550000000  0.4881810000000 1.0
C      1  0.4548160000000  0.5581520000000  0.5115670000000 1.0
C      1  0.4548110000000  0.4412740000000  0.4882000000000 1.0
C      1  0.5139120000000  0.4400850000000  0.5491500000000 1.0
C      1  0.4454760000000  0.5469020000000  0.5119980000000 1.0
C      1  0.5443800000000  0.5114140000000  0.4414360000000 1.0
C      1  0.5139110000000  0.5593710000000  0.4506050000000 1.0
C      1  0.4853050000000  0.4400880000000  0.4506060000000 1.0
C      1  0.4852920000000  0.5593650000000  0.5491420000000 1.0
C      1  0.4454700000000  0.4525240000000  0.4877640000000 1.0
C      1  0.5537250000000  0.5469070000000  0.4877480000000 1.0
C      1  0.5537320000000  0.4525290000000  0.5119830000000 1.0
C      1  0.5443900000000  0.4880390000000  0.5583070000000 1.0
C      1  0.4548200000000  0.5114140000000  0.5583050000000 1.0
C      1  0.4548070000000  0.4880480000000  0.4414280000000 1.0
C      1  0.5082980000000  0.4271800000000  0.5518840000000 1.0
C      1  0.5453290000000  0.5069570000000  0.4286500000000 1.0
C      1  0.4325760000000  0.5457430000000  0.5078260000000 1.0
C      1  0.5082980000000  0.5722780000000  0.4478810000000 1.0
C      1  0.4909050000000  0.5722710000000  0.5518680000000 1.0
C      1  0.4909290000000  0.4271850000000  0.4478730000000 1.0
C      1  0.5453430000000  0.4924980000000  0.5710910000000 1.0
C      1  0.4538520000000  0.4925100000000  0.4286450000000 1.0
C      1  0.4538690000000  0.5069590000000  0.5710910000000 1.0
C      1  0.4325700000000  0.4536830000000  0.4919350000000 1.0
C      1  0.5666330000000  0.4536870000000  0.5078150000000 1.0
C      1  0.5666250000000  0.5457480000000  0.4919200000000 1.0
C      1  0.5082980000000  0.5517350000000  0.4273270000000 1.0
C      1  0.5453370000000  0.4284990000000  0.5070960000000 1.0
C      1  0.4325770000000  0.5076720000000  0.5458990000000 1.0
C      1  0.5082980000000  0.4477320000000  0.5724250000000 1.0
C      1  0.4909070000000  0.5517240000000  0.5724190000000 1.0
C      1  0.4909270000000  0.4477290000000  0.4273330000000 1.0
C      1  0.5453350000000  0.5709400000000  0.4926380000000 1.0
C      1  0.4538570000000  0.4284910000000  0.4926620000000 1.0
C      1  0.4538640000000  0.5709370000000  0.5071110000000 1.0
C      1  0.4325690000000  0.4917810000000  0.4538400000000 1.0
C      1  0.5666280000000  0.5076720000000  0.4538370000000 1.0
C      1  0.5666310000000  0.4917780000000  0.5458980000000 1.0
C      1  0.5298850000000  0.4526360000000  0.4527810000000 1.0
C      1  0.4692840000000  0.4525590000000  0.5470480000000 1.0
C      1  0.4692660000000  0.5469230000000  0.4526840000000 1.0
C      1  0.5299260000000  0.5469010000000  0.5470460000000 1.0
END
