TITL C-1379268-1316-42 1.85344445679284e-06 1000000 -3430.40775336557 0 0 480 (Th) n - 1
REM
REM in /nfs/bkarasulu/CARBON/AIRSS/Generating-Clusters/GAP-ML-2020/Higher-Symm/Selected-Sizes/TryA-Only_Ih-Symm/Larger-Clusters/Try2-MINAMP_6A
REM
REM
REM
REM
REM
REM ./C.cell (31579ac4e95a012ec27f3239692ae8a5)
REM
REM compiler GCC version 9.2.1 20190827 (Red Hat 9.2.1-1)
REM options -cpp -mtune=generic -march=x86-64 -g -O0 -fpre-include=/usr/include/finclude/math-vector-fortran.h
REM seed -28070159 -209488887 1297936993 1277544217 -966806147 -2054685715 833637299 -1103326884 -712824132 -1144636230 -1890917446 1199057619 1156421527 -595548136 1814829391 1519364686 -703378176 1982708919 448434679 241128764 455377354 1196486920 -2143584086 -1947898025 248989779 -66621090 1086519196 -1065551582 -1176025512 1972760786 -182916796 1942853788 -861919665
REM
CELL 1.54180  100.00000  100.00000  100.00000   90.00000   90.00000   90.00000
LATT -1
SFAC C  
C      1  0.5068740000000  0.5262010000000  0.5558700000000 1.0
C      1  0.5558700000000  0.5068740000000  0.5262010000000 1.0
C      1  0.5262010000000  0.5558700000000  0.5068740000000 1.0
C      1  0.4931260000000  0.5262010000000  0.4441300000000 1.0
C      1  0.5068740000000  0.4737990000000  0.4441300000000 1.0
C      1  0.4931260000000  0.4737990000000  0.5558700000000 1.0
C      1  0.4441300000000  0.5068740000000  0.4737990000000 1.0
C      1  0.5558700000000  0.4931260000000  0.4737990000000 1.0
C      1  0.4441300000000  0.4931260000000  0.5262010000000 1.0
C      1  0.4737990000000  0.5558700000000  0.4931260000000 1.0
C      1  0.5262010000000  0.4441300000000  0.4931260000000 1.0
C      1  0.4737990000000  0.4441300000000  0.5068740000000 1.0
C      1  0.5068740000000  0.4737990000000  0.5558700000000 1.0
C      1  0.5558700000000  0.4931260000000  0.5262010000000 1.0
C      1  0.5262010000000  0.4441300000000  0.5068740000000 1.0
C      1  0.4931260000000  0.4737990000000  0.4441300000000 1.0
C      1  0.5068740000000  0.5262010000000  0.4441300000000 1.0
C      1  0.4931260000000  0.5262010000000  0.5558700000000 1.0
C      1  0.4441300000000  0.4931260000000  0.4737990000000 1.0
C      1  0.5558700000000  0.5068740000000  0.4737990000000 1.0
C      1  0.4441300000000  0.5068740000000  0.5262010000000 1.0
C      1  0.4737990000000  0.4441300000000  0.4931260000000 1.0
C      1  0.5262010000000  0.5558700000000  0.4931260000000 1.0
C      1  0.4737990000000  0.5558700000000  0.5068740000000 1.0
C      1  0.4855890000000  0.4352630000000  0.5086340000000 1.0
C      1  0.5086340000000  0.4855890000000  0.4352630000000 1.0
C      1  0.4352630000000  0.5086340000000  0.4855890000000 1.0
C      1  0.5144110000000  0.4352630000000  0.4913660000000 1.0
C      1  0.4855890000000  0.5647370000000  0.4913660000000 1.0
C      1  0.5144110000000  0.5647370000000  0.5086340000000 1.0
C      1  0.4913660000000  0.4855890000000  0.5647370000000 1.0
C      1  0.5086340000000  0.5144110000000  0.5647370000000 1.0
C      1  0.4913660000000  0.5144110000000  0.4352630000000 1.0
C      1  0.5647370000000  0.5086340000000  0.5144110000000 1.0
C      1  0.4352630000000  0.4913660000000  0.5144110000000 1.0
C      1  0.5647370000000  0.4913660000000  0.4855890000000 1.0
C      1  0.4855890000000  0.5647370000000  0.5086340000000 1.0
C      1  0.5086340000000  0.5144110000000  0.4352630000000 1.0
C      1  0.4352630000000  0.4913660000000  0.4855890000000 1.0
C      1  0.5144110000000  0.5647370000000  0.4913660000000 1.0
C      1  0.4855890000000  0.4352630000000  0.4913660000000 1.0
C      1  0.5144110000000  0.4352630000000  0.5086340000000 1.0
C      1  0.4913660000000  0.5144110000000  0.5647370000000 1.0
C      1  0.5086340000000  0.4855890000000  0.5647370000000 1.0
C      1  0.4913660000000  0.4855890000000  0.4352630000000 1.0
C      1  0.5647370000000  0.4913660000000  0.5144110000000 1.0
C      1  0.4352630000000  0.5086340000000  0.5144110000000 1.0
C      1  0.5647370000000  0.5086340000000  0.4855890000000 1.0
C      1  0.5540170000000  0.4719390000000  0.4454450000000 1.0
C      1  0.4454450000000  0.5540170000000  0.4719390000000 1.0
C      1  0.4719390000000  0.4454450000000  0.5540170000000 1.0
C      1  0.4459830000000  0.4719390000000  0.5545550000000 1.0
C      1  0.5540170000000  0.5280610000000  0.5545550000000 1.0
C      1  0.4459830000000  0.5280610000000  0.4454450000000 1.0
C      1  0.5545550000000  0.5540170000000  0.5280610000000 1.0
C      1  0.4454450000000  0.4459830000000  0.5280610000000 1.0
C      1  0.5545550000000  0.4459830000000  0.4719390000000 1.0
C      1  0.5280610000000  0.4454450000000  0.4459830000000 1.0
C      1  0.4719390000000  0.5545550000000  0.4459830000000 1.0
C      1  0.5280610000000  0.5545550000000  0.5540170000000 1.0
C      1  0.5540170000000  0.5280610000000  0.4454450000000 1.0
C      1  0.4454450000000  0.4459830000000  0.4719390000000 1.0
C      1  0.4719390000000  0.5545550000000  0.5540170000000 1.0
C      1  0.4459830000000  0.5280610000000  0.5545550000000 1.0
C      1  0.5540170000000  0.4719390000000  0.5545550000000 1.0
C      1  0.4459830000000  0.4719390000000  0.4454450000000 1.0
C      1  0.5545550000000  0.4459830000000  0.5280610000000 1.0
C      1  0.4454450000000  0.5540170000000  0.5280610000000 1.0
C      1  0.5545550000000  0.5540170000000  0.4719390000000 1.0
C      1  0.5280610000000  0.5545550000000  0.4459830000000 1.0
C      1  0.4719390000000  0.4454450000000  0.4459830000000 1.0
C      1  0.5280610000000  0.4454450000000  0.5540170000000 1.0
C      1  0.5071650000000  0.5528720000000  0.5689460000000 1.0
C      1  0.5689460000000  0.5071650000000  0.5528720000000 1.0
C      1  0.5528720000000  0.5689460000000  0.5071650000000 1.0
C      1  0.4928350000000  0.5528720000000  0.4310540000000 1.0
C      1  0.5071650000000  0.4471280000000  0.4310540000000 1.0
C      1  0.4928350000000  0.4471280000000  0.5689460000000 1.0
C      1  0.4310540000000  0.5071650000000  0.4471280000000 1.0
C      1  0.5689460000000  0.4928350000000  0.4471280000000 1.0
C      1  0.4310540000000  0.4928350000000  0.5528720000000 1.0
C      1  0.4471280000000  0.5689460000000  0.4928350000000 1.0
C      1  0.5528720000000  0.4310540000000  0.4928350000000 1.0
C      1  0.4471280000000  0.4310540000000  0.5071650000000 1.0
C      1  0.5071650000000  0.4471280000000  0.5689460000000 1.0
C      1  0.5689460000000  0.4928350000000  0.5528720000000 1.0
C      1  0.5528720000000  0.4310540000000  0.5071650000000 1.0
C      1  0.4928350000000  0.4471280000000  0.4310540000000 1.0
C      1  0.5071650000000  0.5528720000000  0.4310540000000 1.0
C      1  0.4928350000000  0.5528720000000  0.5689460000000 1.0
C      1  0.4310540000000  0.4928350000000  0.4471280000000 1.0
C      1  0.5689460000000  0.5071650000000  0.4471280000000 1.0
C      1  0.4310540000000  0.5071650000000  0.5528720000000 1.0
C      1  0.4471280000000  0.4310540000000  0.4928350000000 1.0
C      1  0.5528720000000  0.5689460000000  0.4928350000000 1.0
C      1  0.4471280000000  0.5689460000000  0.5071650000000 1.0
C      1  0.5469380000000  0.4852360000000  0.5327370000000 1.0
C      1  0.5327370000000  0.5469380000000  0.4852360000000 1.0
C      1  0.4852360000000  0.5327370000000  0.5469380000000 1.0
C      1  0.4530620000000  0.4852360000000  0.4672630000000 1.0
C      1  0.5469380000000  0.5147640000000  0.4672630000000 1.0
C      1  0.4530620000000  0.5147640000000  0.5327370000000 1.0
C      1  0.4672630000000  0.5469380000000  0.5147640000000 1.0
C      1  0.5327370000000  0.4530620000000  0.5147640000000 1.0
C      1  0.4672630000000  0.4530620000000  0.4852360000000 1.0
C      1  0.5147640000000  0.5327370000000  0.4530620000000 1.0
C      1  0.4852360000000  0.4672630000000  0.4530620000000 1.0
C      1  0.5147640000000  0.4672630000000  0.5469380000000 1.0
C      1  0.5469380000000  0.5147640000000  0.5327370000000 1.0
C      1  0.5327370000000  0.4530620000000  0.4852360000000 1.0
C      1  0.4852360000000  0.4672630000000  0.5469380000000 1.0
C      1  0.4530620000000  0.5147640000000  0.4672630000000 1.0
C      1  0.5469380000000  0.4852360000000  0.4672630000000 1.0
C      1  0.4530620000000  0.4852360000000  0.5327370000000 1.0
C      1  0.4672630000000  0.4530620000000  0.5147640000000 1.0
C      1  0.5327370000000  0.5469380000000  0.5147640000000 1.0
C      1  0.4672630000000  0.5469380000000  0.4852360000000 1.0
C      1  0.5147640000000  0.4672630000000  0.4530620000000 1.0
C      1  0.4852360000000  0.5327370000000  0.4530620000000 1.0
C      1  0.5147640000000  0.5327370000000  0.5469380000000 1.0
C      1  0.4731260000000  0.5388830000000  0.5733270000000 1.0
C      1  0.5733270000000  0.4731260000000  0.5388830000000 1.0
C      1  0.5388830000000  0.5733270000000  0.4731260000000 1.0
C      1  0.5268740000000  0.5388830000000  0.4266730000000 1.0
C      1  0.4731260000000  0.4611170000000  0.4266730000000 1.0
C      1  0.5268740000000  0.4611170000000  0.5733270000000 1.0
C      1  0.4266730000000  0.4731260000000  0.4611170000000 1.0
C      1  0.5733270000000  0.5268740000000  0.4611170000000 1.0
C      1  0.4266730000000  0.5268740000000  0.5388830000000 1.0
C      1  0.4611170000000  0.5733270000000  0.5268740000000 1.0
C      1  0.5388830000000  0.4266730000000  0.5268740000000 1.0
C      1  0.4611170000000  0.4266730000000  0.4731260000000 1.0
C      1  0.4731260000000  0.4611170000000  0.5733270000000 1.0
C      1  0.5733270000000  0.5268740000000  0.5388830000000 1.0
C      1  0.5388830000000  0.4266730000000  0.4731260000000 1.0
C      1  0.5268740000000  0.4611170000000  0.4266730000000 1.0
C      1  0.4731260000000  0.5388830000000  0.4266730000000 1.0
C      1  0.5268740000000  0.5388830000000  0.5733270000000 1.0
C      1  0.4266730000000  0.5268740000000  0.4611170000000 1.0
C      1  0.5733270000000  0.4731260000000  0.4611170000000 1.0
C      1  0.4266730000000  0.4731260000000  0.5388830000000 1.0
C      1  0.4611170000000  0.4266730000000  0.5268740000000 1.0
C      1  0.5388830000000  0.5733270000000  0.5268740000000 1.0
C      1  0.4611170000000  0.5733270000000  0.4731260000000 1.0
C      1  0.5144710000000  0.4814280000000  0.5795580000000 1.0
C      1  0.5795580000000  0.5144710000000  0.4814280000000 1.0
C      1  0.4814280000000  0.5795580000000  0.5144710000000 1.0
C      1  0.4855290000000  0.4814280000000  0.4204420000000 1.0
C      1  0.5144710000000  0.5185720000000  0.4204420000000 1.0
C      1  0.4855290000000  0.5185720000000  0.5795580000000 1.0
C      1  0.4204420000000  0.5144710000000  0.5185720000000 1.0
C      1  0.5795580000000  0.4855290000000  0.5185720000000 1.0
C      1  0.4204420000000  0.4855290000000  0.4814280000000 1.0
C      1  0.5185720000000  0.5795580000000  0.4855290000000 1.0
C      1  0.4814280000000  0.4204420000000  0.4855290000000 1.0
C      1  0.5185720000000  0.4204420000000  0.5144710000000 1.0
C      1  0.5144710000000  0.5185720000000  0.5795580000000 1.0
C      1  0.5795580000000  0.4855290000000  0.4814280000000 1.0
C      1  0.4814280000000  0.4204420000000  0.5144710000000 1.0
C      1  0.4855290000000  0.5185720000000  0.4204420000000 1.0
C      1  0.5144710000000  0.4814280000000  0.4204420000000 1.0
C      1  0.4855290000000  0.4814280000000  0.5795580000000 1.0
C      1  0.4204420000000  0.4855290000000  0.5185720000000 1.0
C      1  0.5795580000000  0.5144710000000  0.5185720000000 1.0
C      1  0.4204420000000  0.5144710000000  0.4814280000000 1.0
C      1  0.5185720000000  0.4204420000000  0.4855290000000 1.0
C      1  0.4814280000000  0.5795580000000  0.4855290000000 1.0
C      1  0.5185720000000  0.5795580000000  0.5144710000000 1.0
C      1  0.5071050000000  0.5407590000000  0.4621970000000 1.0
C      1  0.4621970000000  0.5071050000000  0.5407590000000 1.0
C      1  0.5407590000000  0.4621970000000  0.5071050000000 1.0
C      1  0.4928950000000  0.5407590000000  0.5378030000000 1.0
C      1  0.5071050000000  0.4592410000000  0.5378030000000 1.0
C      1  0.4928950000000  0.4592410000000  0.4621970000000 1.0
C      1  0.5378030000000  0.5071050000000  0.4592410000000 1.0
C      1  0.4621970000000  0.4928950000000  0.4592410000000 1.0
C      1  0.5378030000000  0.4928950000000  0.5407590000000 1.0
C      1  0.4592410000000  0.4621970000000  0.4928950000000 1.0
C      1  0.5407590000000  0.5378030000000  0.4928950000000 1.0
C      1  0.4592410000000  0.5378030000000  0.5071050000000 1.0
C      1  0.5071050000000  0.4592410000000  0.4621970000000 1.0
C      1  0.4621970000000  0.4928950000000  0.5407590000000 1.0
C      1  0.5407590000000  0.5378030000000  0.5071050000000 1.0
C      1  0.4928950000000  0.4592410000000  0.5378030000000 1.0
C      1  0.5071050000000  0.5407590000000  0.5378030000000 1.0
C      1  0.4928950000000  0.5407590000000  0.4621970000000 1.0
C      1  0.5378030000000  0.4928950000000  0.4592410000000 1.0
C      1  0.4621970000000  0.5071050000000  0.4592410000000 1.0
C      1  0.5378030000000  0.5071050000000  0.5407590000000 1.0
C      1  0.4592410000000  0.5378030000000  0.4928950000000 1.0
C      1  0.5407590000000  0.4621970000000  0.4928950000000 1.0
C      1  0.4592410000000  0.4621970000000  0.5071050000000 1.0
C      1  0.5075490000000  0.3977290000000  0.4928450000000 1.0
C      1  0.4928450000000  0.5075490000000  0.3977290000000 1.0
C      1  0.3977290000000  0.4928450000000  0.5075490000000 1.0
C      1  0.4924510000000  0.3977290000000  0.5071550000000 1.0
C      1  0.5075490000000  0.6022710000000  0.5071550000000 1.0
C      1  0.4924510000000  0.6022710000000  0.4928450000000 1.0
C      1  0.5071550000000  0.5075490000000  0.6022710000000 1.0
C      1  0.4928450000000  0.4924510000000  0.6022710000000 1.0
C      1  0.5071550000000  0.4924510000000  0.3977290000000 1.0
C      1  0.6022710000000  0.4928450000000  0.4924510000000 1.0
C      1  0.3977290000000  0.5071550000000  0.4924510000000 1.0
C      1  0.6022710000000  0.5071550000000  0.5075490000000 1.0
C      1  0.5075490000000  0.6022710000000  0.4928450000000 1.0
C      1  0.4928450000000  0.4924510000000  0.3977290000000 1.0
C      1  0.3977290000000  0.5071550000000  0.5075490000000 1.0
C      1  0.4924510000000  0.6022710000000  0.5071550000000 1.0
C      1  0.5075490000000  0.3977290000000  0.5071550000000 1.0
C      1  0.4924510000000  0.3977290000000  0.4928450000000 1.0
C      1  0.5071550000000  0.4924510000000  0.6022710000000 1.0
C      1  0.4928450000000  0.5075490000000  0.6022710000000 1.0
C      1  0.5071550000000  0.5075490000000  0.3977290000000 1.0
C      1  0.6022710000000  0.5071550000000  0.4924510000000 1.0
C      1  0.3977290000000  0.4928450000000  0.4924510000000 1.0
C      1  0.6022710000000  0.4928450000000  0.5075490000000 1.0
C      1  0.4857520000000  0.5072760000000  0.4109480000000 1.0
C      1  0.4109480000000  0.4857520000000  0.5072760000000 1.0
C      1  0.5072760000000  0.4109480000000  0.4857520000000 1.0
C      1  0.5142480000000  0.5072760000000  0.5890520000000 1.0
C      1  0.4857520000000  0.4927240000000  0.5890520000000 1.0
C      1  0.5142480000000  0.4927240000000  0.4109480000000 1.0
C      1  0.5890520000000  0.4857520000000  0.4927240000000 1.0
C      1  0.4109480000000  0.5142480000000  0.4927240000000 1.0
C      1  0.5890520000000  0.5142480000000  0.5072760000000 1.0
C      1  0.4927240000000  0.4109480000000  0.5142480000000 1.0
C      1  0.5072760000000  0.5890520000000  0.5142480000000 1.0
C      1  0.4927240000000  0.5890520000000  0.4857520000000 1.0
C      1  0.4857520000000  0.4927240000000  0.4109480000000 1.0
C      1  0.4109480000000  0.5142480000000  0.5072760000000 1.0
C      1  0.5072760000000  0.5890520000000  0.4857520000000 1.0
C      1  0.5142480000000  0.4927240000000  0.5890520000000 1.0
C      1  0.4857520000000  0.5072760000000  0.5890520000000 1.0
C      1  0.5142480000000  0.5072760000000  0.4109480000000 1.0
C      1  0.5890520000000  0.5142480000000  0.4927240000000 1.0
C      1  0.4109480000000  0.4857520000000  0.4927240000000 1.0
C      1  0.5890520000000  0.4857520000000  0.5072760000000 1.0
C      1  0.4927240000000  0.5890520000000  0.5142480000000 1.0
C      1  0.5072760000000  0.4109480000000  0.5142480000000 1.0
C      1  0.4927240000000  0.4109480000000  0.4857520000000 1.0
C      1  0.4376310000000  0.4658280000000  0.4554320000000 1.0
C      1  0.4554320000000  0.4376310000000  0.4658280000000 1.0
C      1  0.4658280000000  0.4554320000000  0.4376310000000 1.0
C      1  0.5623690000000  0.4658280000000  0.5445680000000 1.0
C      1  0.4376310000000  0.5341720000000  0.5445680000000 1.0
C      1  0.5623690000000  0.5341720000000  0.4554320000000 1.0
C      1  0.5445680000000  0.4376310000000  0.5341720000000 1.0
C      1  0.4554320000000  0.5623690000000  0.5341720000000 1.0
C      1  0.5445680000000  0.5623690000000  0.4658280000000 1.0
C      1  0.5341720000000  0.4554320000000  0.5623690000000 1.0
C      1  0.4658280000000  0.5445680000000  0.5623690000000 1.0
C      1  0.5341720000000  0.5445680000000  0.4376310000000 1.0
C      1  0.4376310000000  0.5341720000000  0.4554320000000 1.0
C      1  0.4554320000000  0.5623690000000  0.4658280000000 1.0
C      1  0.4658280000000  0.5445680000000  0.4376310000000 1.0
C      1  0.5623690000000  0.5341720000000  0.5445680000000 1.0
C      1  0.4376310000000  0.4658280000000  0.5445680000000 1.0
C      1  0.5623690000000  0.4658280000000  0.4554320000000 1.0
C      1  0.5445680000000  0.5623690000000  0.5341720000000 1.0
C      1  0.4554320000000  0.4376310000000  0.5341720000000 1.0
C      1  0.5445680000000  0.4376310000000  0.4658280000000 1.0
C      1  0.5341720000000  0.5445680000000  0.5623690000000 1.0
C      1  0.4658280000000  0.4554320000000  0.5623690000000 1.0
C      1  0.5341720000000  0.4554320000000  0.4376310000000 1.0
C      1  0.5270590000000  0.4746080000000  0.5755740000000 1.0
C      1  0.5755740000000  0.5270590000000  0.4746080000000 1.0
C      1  0.4746080000000  0.5755740000000  0.5270590000000 1.0
C      1  0.4729410000000  0.4746080000000  0.4244260000000 1.0
C      1  0.5270590000000  0.5253920000000  0.4244260000000 1.0
C      1  0.4729410000000  0.5253920000000  0.5755740000000 1.0
C      1  0.4244260000000  0.5270590000000  0.5253920000000 1.0
C      1  0.5755740000000  0.4729410000000  0.5253920000000 1.0
C      1  0.4244260000000  0.4729410000000  0.4746080000000 1.0
C      1  0.5253920000000  0.5755740000000  0.4729410000000 1.0
C      1  0.4746080000000  0.4244260000000  0.4729410000000 1.0
C      1  0.5253920000000  0.4244260000000  0.5270590000000 1.0
C      1  0.5270590000000  0.5253920000000  0.5755740000000 1.0
C      1  0.5755740000000  0.4729410000000  0.4746080000000 1.0
C      1  0.4746080000000  0.4244260000000  0.5270590000000 1.0
C      1  0.4729410000000  0.5253920000000  0.4244260000000 1.0
C      1  0.5270590000000  0.4746080000000  0.4244260000000 1.0
C      1  0.4729410000000  0.4746080000000  0.5755740000000 1.0
C      1  0.4244260000000  0.4729410000000  0.5253920000000 1.0
C      1  0.5755740000000  0.5270590000000  0.5253920000000 1.0
C      1  0.4244260000000  0.5270590000000  0.4746080000000 1.0
C      1  0.5253920000000  0.4244260000000  0.4729410000000 1.0
C      1  0.4746080000000  0.5755740000000  0.4729410000000 1.0
C      1  0.5253920000000  0.5755740000000  0.5270590000000 1.0
C      1  0.4521030000000  0.4714520000000  0.5276830000000 1.0
C      1  0.5276830000000  0.4521030000000  0.4714520000000 1.0
C      1  0.4714520000000  0.5276830000000  0.4521030000000 1.0
C      1  0.5478970000000  0.4714520000000  0.4723170000000 1.0
C      1  0.4521030000000  0.5285480000000  0.4723170000000 1.0
C      1  0.5478970000000  0.5285480000000  0.5276830000000 1.0
C      1  0.4723170000000  0.4521030000000  0.5285480000000 1.0
C      1  0.5276830000000  0.5478970000000  0.5285480000000 1.0
C      1  0.4723170000000  0.5478970000000  0.4714520000000 1.0
C      1  0.5285480000000  0.5276830000000  0.5478970000000 1.0
C      1  0.4714520000000  0.4723170000000  0.5478970000000 1.0
C      1  0.5285480000000  0.4723170000000  0.4521030000000 1.0
C      1  0.4521030000000  0.5285480000000  0.5276830000000 1.0
C      1  0.5276830000000  0.5478970000000  0.4714520000000 1.0
C      1  0.4714520000000  0.4723170000000  0.4521030000000 1.0
C      1  0.5478970000000  0.5285480000000  0.4723170000000 1.0
C      1  0.4521030000000  0.4714520000000  0.4723170000000 1.0
C      1  0.5478970000000  0.4714520000000  0.5276830000000 1.0
C      1  0.4723170000000  0.5478970000000  0.5285480000000 1.0
C      1  0.5276830000000  0.4521030000000  0.5285480000000 1.0
C      1  0.4723170000000  0.4521030000000  0.4714520000000 1.0
C      1  0.5285480000000  0.4723170000000  0.5478970000000 1.0
C      1  0.4714520000000  0.5276830000000  0.5478970000000 1.0
C      1  0.5285480000000  0.5276830000000  0.4521030000000 1.0
C      1  0.4229790000000  0.5135080000000  0.5430130000000 1.0
C      1  0.5430130000000  0.4229790000000  0.5135080000000 1.0
C      1  0.5135080000000  0.5430130000000  0.4229790000000 1.0
C      1  0.5770210000000  0.5135080000000  0.4569870000000 1.0
C      1  0.4229790000000  0.4864920000000  0.4569870000000 1.0
C      1  0.5770210000000  0.4864920000000  0.5430130000000 1.0
C      1  0.4569870000000  0.4229790000000  0.4864920000000 1.0
C      1  0.5430130000000  0.5770210000000  0.4864920000000 1.0
C      1  0.4569870000000  0.5770210000000  0.5135080000000 1.0
C      1  0.4864920000000  0.5430130000000  0.5770210000000 1.0
C      1  0.5135080000000  0.4569870000000  0.5770210000000 1.0
C      1  0.4864920000000  0.4569870000000  0.4229790000000 1.0
C      1  0.4229790000000  0.4864920000000  0.5430130000000 1.0
C      1  0.5430130000000  0.5770210000000  0.5135080000000 1.0
C      1  0.5135080000000  0.4569870000000  0.4229790000000 1.0
C      1  0.5770210000000  0.4864920000000  0.4569870000000 1.0
C      1  0.4229790000000  0.5135080000000  0.4569870000000 1.0
C      1  0.5770210000000  0.5135080000000  0.5430130000000 1.0
C      1  0.4569870000000  0.5770210000000  0.4864920000000 1.0
C      1  0.5430130000000  0.4229790000000  0.4864920000000 1.0
C      1  0.4569870000000  0.4229790000000  0.5135080000000 1.0
C      1  0.4864920000000  0.4569870000000  0.5770210000000 1.0
C      1  0.5135080000000  0.5430130000000  0.5770210000000 1.0
C      1  0.4864920000000  0.5430130000000  0.4229790000000 1.0
C      1  0.4316300000000  0.4490970000000  0.5064470000000 1.0
C      1  0.5064470000000  0.4316300000000  0.4490970000000 1.0
C      1  0.4490970000000  0.5064470000000  0.4316300000000 1.0
C      1  0.5683700000000  0.4490970000000  0.4935530000000 1.0
C      1  0.4316300000000  0.5509030000000  0.4935530000000 1.0
C      1  0.5683700000000  0.5509030000000  0.5064470000000 1.0
C      1  0.4935530000000  0.4316300000000  0.5509030000000 1.0
C      1  0.5064470000000  0.5683700000000  0.5509030000000 1.0
C      1  0.4935530000000  0.5683700000000  0.4490970000000 1.0
C      1  0.5509030000000  0.5064470000000  0.5683700000000 1.0
C      1  0.4490970000000  0.4935530000000  0.5683700000000 1.0
C      1  0.5509030000000  0.4935530000000  0.4316300000000 1.0
C      1  0.4316300000000  0.5509030000000  0.5064470000000 1.0
C      1  0.5064470000000  0.5683700000000  0.4490970000000 1.0
C      1  0.4490970000000  0.4935530000000  0.4316300000000 1.0
C      1  0.5683700000000  0.5509030000000  0.4935530000000 1.0
C      1  0.4316300000000  0.4490970000000  0.4935530000000 1.0
C      1  0.5683700000000  0.4490970000000  0.5064470000000 1.0
C      1  0.4935530000000  0.5683700000000  0.5509030000000 1.0
C      1  0.5064470000000  0.4316300000000  0.5509030000000 1.0
C      1  0.4935530000000  0.4316300000000  0.4490970000000 1.0
C      1  0.5509030000000  0.4935530000000  0.5683700000000 1.0
C      1  0.4490970000000  0.5064470000000  0.5683700000000 1.0
C      1  0.5509030000000  0.5064470000000  0.4316300000000 1.0
C      1  0.5831160000000  0.5067840000000  0.4680490000000 1.0
C      1  0.4680490000000  0.5831160000000  0.5067840000000 1.0
C      1  0.5067840000000  0.4680490000000  0.5831160000000 1.0
C      1  0.4168840000000  0.5067840000000  0.5319510000000 1.0
C      1  0.5831160000000  0.4932160000000  0.5319510000000 1.0
C      1  0.4168840000000  0.4932160000000  0.4680490000000 1.0
C      1  0.5319510000000  0.5831160000000  0.4932160000000 1.0
C      1  0.4680490000000  0.4168840000000  0.4932160000000 1.0
C      1  0.5319510000000  0.4168840000000  0.5067840000000 1.0
C      1  0.4932160000000  0.4680490000000  0.4168840000000 1.0
C      1  0.5067840000000  0.5319510000000  0.4168840000000 1.0
C      1  0.4932160000000  0.5319510000000  0.5831160000000 1.0
C      1  0.5831160000000  0.4932160000000  0.4680490000000 1.0
C      1  0.4680490000000  0.4168840000000  0.5067840000000 1.0
C      1  0.5067840000000  0.5319510000000  0.5831160000000 1.0
C      1  0.4168840000000  0.4932160000000  0.5319510000000 1.0
C      1  0.5831160000000  0.5067840000000  0.5319510000000 1.0
C      1  0.4168840000000  0.5067840000000  0.4680490000000 1.0
C      1  0.5319510000000  0.4168840000000  0.4932160000000 1.0
C      1  0.4680490000000  0.5831160000000  0.4932160000000 1.0
C      1  0.5319510000000  0.5831160000000  0.5067840000000 1.0
C      1  0.4932160000000  0.5319510000000  0.4168840000000 1.0
C      1  0.5067840000000  0.4680490000000  0.4168840000000 1.0
C      1  0.4932160000000  0.4680490000000  0.5831160000000 1.0
C      1  0.4595950000000  0.5335650000000  0.4450610000000 1.0
C      1  0.4450610000000  0.4595950000000  0.5335650000000 1.0
C      1  0.5335650000000  0.4450610000000  0.4595950000000 1.0
C      1  0.5404050000000  0.5335650000000  0.5549390000000 1.0
C      1  0.4595950000000  0.4664350000000  0.5549390000000 1.0
C      1  0.5404050000000  0.4664350000000  0.4450610000000 1.0
C      1  0.5549390000000  0.4595950000000  0.4664350000000 1.0
C      1  0.4450610000000  0.5404050000000  0.4664350000000 1.0
C      1  0.5549390000000  0.5404050000000  0.5335650000000 1.0
C      1  0.4664350000000  0.4450610000000  0.5404050000000 1.0
C      1  0.5335650000000  0.5549390000000  0.5404050000000 1.0
C      1  0.4664350000000  0.5549390000000  0.4595950000000 1.0
C      1  0.4595950000000  0.4664350000000  0.4450610000000 1.0
C      1  0.4450610000000  0.5404050000000  0.5335650000000 1.0
C      1  0.5335650000000  0.5549390000000  0.4595950000000 1.0
C      1  0.5404050000000  0.4664350000000  0.5549390000000 1.0
C      1  0.4595950000000  0.5335650000000  0.5549390000000 1.0
C      1  0.5404050000000  0.5335650000000  0.4450610000000 1.0
C      1  0.5549390000000  0.5404050000000  0.4664350000000 1.0
C      1  0.4450610000000  0.4595950000000  0.4664350000000 1.0
C      1  0.5549390000000  0.4595950000000  0.5335650000000 1.0
C      1  0.4664350000000  0.5549390000000  0.5404050000000 1.0
C      1  0.5335650000000  0.4450610000000  0.5404050000000 1.0
C      1  0.4664350000000  0.4450610000000  0.4595950000000 1.0
C      1  0.5134950000000  0.4515080000000  0.4719800000000 1.0
C      1  0.4719800000000  0.5134950000000  0.4515080000000 1.0
C      1  0.4515080000000  0.4719800000000  0.5134950000000 1.0
C      1  0.4865050000000  0.4515080000000  0.5280200000000 1.0
C      1  0.5134950000000  0.5484920000000  0.5280200000000 1.0
C      1  0.4865050000000  0.5484920000000  0.4719800000000 1.0
C      1  0.5280200000000  0.5134950000000  0.5484920000000 1.0
C      1  0.4719800000000  0.4865050000000  0.5484920000000 1.0
C      1  0.5280200000000  0.4865050000000  0.4515080000000 1.0
C      1  0.5484920000000  0.4719800000000  0.4865050000000 1.0
C      1  0.4515080000000  0.5280200000000  0.4865050000000 1.0
C      1  0.5484920000000  0.5280200000000  0.5134950000000 1.0
C      1  0.5134950000000  0.5484920000000  0.4719800000000 1.0
C      1  0.4719800000000  0.4865050000000  0.4515080000000 1.0
C      1  0.4515080000000  0.5280200000000  0.5134950000000 1.0
C      1  0.4865050000000  0.5484920000000  0.5280200000000 1.0
C      1  0.5134950000000  0.4515080000000  0.5280200000000 1.0
C      1  0.4865050000000  0.4515080000000  0.4719800000000 1.0
C      1  0.5280200000000  0.4865050000000  0.5484920000000 1.0
C      1  0.4719800000000  0.5134950000000  0.5484920000000 1.0
C      1  0.5280200000000  0.5134950000000  0.4515080000000 1.0
C      1  0.5484920000000  0.5280200000000  0.4865050000000 1.0
C      1  0.4515080000000  0.4719800000000  0.4865050000000 1.0
C      1  0.5484920000000  0.4719800000000  0.5134950000000 1.0
C      1  0.4400940000000  0.5583260000000  0.4851180000000 1.0
C      1  0.4851180000000  0.4400940000000  0.5583260000000 1.0
C      1  0.5583260000000  0.4851180000000  0.4400940000000 1.0
C      1  0.5599060000000  0.5583260000000  0.5148820000000 1.0
C      1  0.4400940000000  0.4416740000000  0.5148820000000 1.0
C      1  0.5599060000000  0.4416740000000  0.4851180000000 1.0
C      1  0.5148820000000  0.4400940000000  0.4416740000000 1.0
C      1  0.4851180000000  0.5599060000000  0.4416740000000 1.0
C      1  0.5148820000000  0.5599060000000  0.5583260000000 1.0
C      1  0.4416740000000  0.4851180000000  0.5599060000000 1.0
C      1  0.5583260000000  0.5148820000000  0.5599060000000 1.0
C      1  0.4416740000000  0.5148820000000  0.4400940000000 1.0
C      1  0.4400940000000  0.4416740000000  0.4851180000000 1.0
C      1  0.4851180000000  0.5599060000000  0.5583260000000 1.0
C      1  0.5583260000000  0.5148820000000  0.4400940000000 1.0
C      1  0.5599060000000  0.4416740000000  0.5148820000000 1.0
C      1  0.4400940000000  0.5583260000000  0.5148820000000 1.0
C      1  0.5599060000000  0.5583260000000  0.4851180000000 1.0
C      1  0.5148820000000  0.5599060000000  0.4416740000000 1.0
C      1  0.4851180000000  0.4400940000000  0.4416740000000 1.0
C      1  0.5148820000000  0.4400940000000  0.5583260000000 1.0
C      1  0.4416740000000  0.5148820000000  0.5599060000000 1.0
C      1  0.5583260000000  0.4851180000000  0.5599060000000 1.0
C      1  0.4416740000000  0.4851180000000  0.4400940000000 1.0
C      1  0.5068330000000  0.5562480000000  0.5179190000000 1.0
C      1  0.5179190000000  0.5068330000000  0.5562480000000 1.0
C      1  0.5562480000000  0.5179190000000  0.5068330000000 1.0
C      1  0.4931670000000  0.5562480000000  0.4820810000000 1.0
C      1  0.5068330000000  0.4437520000000  0.4820810000000 1.0
C      1  0.4931670000000  0.4437520000000  0.5179190000000 1.0
C      1  0.4820810000000  0.5068330000000  0.4437520000000 1.0
C      1  0.5179190000000  0.4931670000000  0.4437520000000 1.0
C      1  0.4820810000000  0.4931670000000  0.5562480000000 1.0
C      1  0.4437520000000  0.5179190000000  0.4931670000000 1.0
C      1  0.5562480000000  0.4820810000000  0.4931670000000 1.0
C      1  0.4437520000000  0.4820810000000  0.5068330000000 1.0
C      1  0.5068330000000  0.4437520000000  0.5179190000000 1.0
C      1  0.5179190000000  0.4931670000000  0.5562480000000 1.0
C      1  0.5562480000000  0.4820810000000  0.5068330000000 1.0
C      1  0.4931670000000  0.4437520000000  0.4820810000000 1.0
C      1  0.5068330000000  0.5562480000000  0.4820810000000 1.0
C      1  0.4931670000000  0.5562480000000  0.5179190000000 1.0
C      1  0.4820810000000  0.4931670000000  0.4437520000000 1.0
C      1  0.5179190000000  0.5068330000000  0.4437520000000 1.0
C      1  0.4820810000000  0.5068330000000  0.5562480000000 1.0
C      1  0.4437520000000  0.4820810000000  0.4931670000000 1.0
C      1  0.5562480000000  0.5179190000000  0.4931670000000 1.0
C      1  0.4437520000000  0.5179190000000  0.5068330000000 1.0
END
