TITL C-1379265-1223-263 -1.43516964156125e-07 1000000 -3881.89197691341 0 0 540 (C1) n - 1
REM
REM in /nfs/bkarasulu/CARBON/AIRSS/Generating-Clusters/GAP-ML-2020/Higher-Symm/Selected-Sizes/TryA-Only_Ih-Symm/Larger-Clusters/Try2-MINAMP_6A
REM
REM
REM
REM
REM
REM ./C.cell (31579ac4e95a012ec27f3239692ae8a5)
REM
REM compiler GCC version 9.2.1 20190827 (Red Hat 9.2.1-1)
REM options -cpp -mtune=generic -march=x86-64 -g -O0 -fpre-include=/usr/include/finclude/math-vector-fortran.h
REM seed 319980204 -118273987 -805875975 1061442287 -990614497 -1788318644 1499176471 -1285190814 1371154126 921420766 1388878016 -1209421288 1628822661 1228004081 2115043179 1051329389 -1312827083 967713389 -974272111 1088317904 -1626622502 2092613103 -2022563019 -1172167720 -1791369840 -2132288493 -5785326 73122882 1499548283 -1921401375 160835465 -1895406134 137094484
REM
CELL 1.54180  100.00000  100.00000  100.00000   90.00000   90.00000   90.00000
LATT -1
SFAC C  
C      1  0.4342040000000  0.5068530000000  0.4445650000000 1.0
C      1  0.4444400000000  0.4343150000000  0.5074010000000 1.0
C      1  0.5071240000000  0.4449660000000  0.4343670000000 1.0
C      1  0.5650030000000  0.4925210000000  0.4448420000000 1.0
C      1  0.5652210000000  0.5068910000000  0.5547670000000 1.0
C      1  0.4348500000000  0.4932790000000  0.5548370000000 1.0
C      1  0.5547600000000  0.5655330000000  0.5077050000000 1.0
C      1  0.5544930000000  0.4347170000000  0.4927420000000 1.0
C      1  0.4446080000000  0.5641140000000  0.4927630000000 1.0
C      1  0.4922660000000  0.5547580000000  0.4347700000000 1.0
C      1  0.4926010000000  0.4457120000000  0.5646450000000 1.0
C      1  0.5075910000000  0.5547160000000  0.5656130000000 1.0
C      1  0.4347900000000  0.5080000000000  0.5551470000000 1.0
C      1  0.4438780000000  0.4332330000000  0.4925640000000 1.0
C      1  0.5073290000000  0.4450250000000  0.5652040000000 1.0
C      1  0.5655340000000  0.4921020000000  0.5550560000000 1.0
C      1  0.5649760000000  0.5073750000000  0.4450650000000 1.0
C      1  0.4337900000000  0.4918230000000  0.4444240000000 1.0
C      1  0.5543280000000  0.5654020000000  0.4929050000000 1.0
C      1  0.5548070000000  0.4344000000000  0.5075060000000 1.0
C      1  0.4450400000000  0.5642210000000  0.5074860000000 1.0
C      1  0.4928430000000  0.5551020000000  0.5657540000000 1.0
C      1  0.4923000000000  0.4445600000000  0.4338810000000 1.0
C      1  0.5070700000000  0.5548960000000  0.4347060000000 1.0
C      1  0.4718510000000  0.4609910000000  0.5631610000000 1.0
C      1  0.5636440000000  0.4711630000000  0.4598730000000 1.0
C      1  0.4595140000000  0.5634710000000  0.4714450000000 1.0
C      1  0.5284050000000  0.5394640000000  0.5639860000000 1.0
C      1  0.5281500000000  0.4602430000000  0.4362790000000 1.0
C      1  0.4712130000000  0.5396940000000  0.4361440000000 1.0
C      1  0.4360850000000  0.5277230000000  0.4600550000000 1.0
C      1  0.4363170000000  0.4722760000000  0.5393620000000 1.0
C      1  0.5636440000000  0.5281790000000  0.5397920000000 1.0
C      1  0.5392850000000  0.4362600000000  0.4717470000000 1.0
C      1  0.5400950000000  0.5640710000000  0.5289520000000 1.0
C      1  0.4600790000000  0.4367790000000  0.5279260000000 1.0
C      1  0.4714500000000  0.4602810000000  0.4362040000000 1.0
C      1  0.5639550000000  0.4709730000000  0.5400170000000 1.0
C      1  0.4606040000000  0.5637180000000  0.5285290000000 1.0
C      1  0.5283290000000  0.5401460000000  0.4361120000000 1.0
C      1  0.5286140000000  0.4598470000000  0.5639800000000 1.0
C      1  0.4716670000000  0.5404240000000  0.5644610000000 1.0
C      1  0.4368600000000  0.5288940000000  0.5406940000000 1.0
C      1  0.4357650000000  0.4708720000000  0.4603650000000 1.0
C      1  0.5636740000000  0.5286940000000  0.4601780000000 1.0
C      1  0.5397610000000  0.4358650000000  0.5286110000000 1.0
C      1  0.5392820000000  0.5638910000000  0.4718870000000 1.0
C      1  0.4598420000000  0.4349380000000  0.4710530000000 1.0
C      1  0.5238720000000  0.4564000000000  0.5498650000000 1.0
C      1  0.5493130000000  0.5247090000000  0.4565160000000 1.0
C      1  0.4570200000000  0.5492900000000  0.5247930000000 1.0
C      1  0.4762560000000  0.5436500000000  0.5500910000000 1.0
C      1  0.4757580000000  0.4559960000000  0.4499190000000 1.0
C      1  0.5237320000000  0.5435400000000  0.4504410000000 1.0
C      1  0.4498810000000  0.4763500000000  0.4588620000000 1.0
C      1  0.4511130000000  0.5250620000000  0.5442110000000 1.0
C      1  0.5498780000000  0.4757420000000  0.5435350000000 1.0
C      1  0.5434240000000  0.4499700000000  0.5239680000000 1.0
C      1  0.5431830000000  0.5494210000000  0.4756680000000 1.0
C      1  0.4561610000000  0.4479420000000  0.4771260000000 1.0
C      1  0.5240030000000  0.4567570000000  0.4506400000000 1.0
C      1  0.5491680000000  0.5242590000000  0.5433490000000 1.0
C      1  0.4565100000000  0.5491210000000  0.4760370000000 1.0
C      1  0.4750700000000  0.5433860000000  0.4507180000000 1.0
C      1  0.4755890000000  0.4575230000000  0.5485540000000 1.0
C      1  0.5245270000000  0.5434340000000  0.5495910000000 1.0
C      1  0.4505760000000  0.4766420000000  0.5427910000000 1.0
C      1  0.4507670000000  0.5249580000000  0.4563910000000 1.0
C      1  0.5494910000000  0.4758610000000  0.4565720000000 1.0
C      1  0.5432070000000  0.4506240000000  0.4755770000000 1.0
C      1  0.5434440000000  0.5497980000000  0.5242470000000 1.0
C      1  0.4565650000000  0.4512600000000  0.5243710000000 1.0
C      1  0.5279750000000  0.5074070000000  0.4149710000000 1.0
C      1  0.4100310000000  0.5249530000000  0.5031210000000 1.0
C      1  0.5069460000000  0.4150690000000  0.5281130000000 1.0
C      1  0.4709670000000  0.4920290000000  0.4154690000000 1.0
C      1  0.4711800000000  0.5086540000000  0.5856410000000 1.0
C      1  0.5289790000000  0.4912670000000  0.5853330000000 1.0
C      1  0.5847050000000  0.4713470000000  0.5070900000000 1.0
C      1  0.5853500000000  0.5295890000000  0.4923370000000 1.0
C      1  0.4156450000000  0.4716810000000  0.4927720000000 1.0
C      1  0.4939420000000  0.5851300000000  0.5290170000000 1.0
C      1  0.4922060000000  0.4147150000000  0.4707040000000 1.0
C      1  0.5055080000000  0.5851300000000  0.4711620000000 1.0
C      1  0.5289700000000  0.5058340000000  0.5851350000000 1.0
C      1  0.4148200000000  0.5251200000000  0.4906240000000 1.0
C      1  0.5068670000000  0.4149020000000  0.4707920000000 1.0
C      1  0.4712320000000  0.4940800000000  0.5850690000000 1.0
C      1  0.4703740000000  0.5066290000000  0.4148940000000 1.0
C      1  0.5274210000000  0.4929710000000  0.4155190000000 1.0
C      1  0.5846650000000  0.4713520000000  0.4927830000000 1.0
C      1  0.5853750000000  0.5296800000000  0.5070880000000 1.0
C      1  0.4154230000000  0.4719920000000  0.5072650000000 1.0
C      1  0.4908810000000  0.5853350000000  0.4710890000000 1.0
C      1  0.4925710000000  0.4162300000000  0.5271650000000 1.0
C      1  0.5085410000000  0.5853300000000  0.5291000000000 1.0
C      1  0.4910510000000  0.5108950000000  0.5746520000000 1.0
C      1  0.5742670000000  0.4923150000000  0.5078280000000 1.0
C      1  0.5147350000000  0.5681600000000  0.4968720000000 1.0
C      1  0.5091480000000  0.4892160000000  0.5742630000000 1.0
C      1  0.5086710000000  0.5114170000000  0.4262330000000 1.0
C      1  0.4955230000000  0.4841830000000  0.4333320000000 1.0
C      1  0.4310990000000  0.5049170000000  0.5141280000000 1.0
C      1  0.4358230000000  0.4949490000000  0.4811650000000 1.0
C      1  0.5691590000000  0.5042280000000  0.4854240000000 1.0
C      1  0.4822140000000  0.4330970000000  0.4950030000000 1.0
C      1  0.4850570000000  0.5682340000000  0.5033850000000 1.0
C      1  0.5110570000000  0.4261560000000  0.5090830000000 1.0
C      1  0.4961120000000  0.5150260000000  0.4314720000000 1.0
C      1  0.5742580000000  0.4924360000000  0.4923470000000 1.0
C      1  0.5107980000000  0.5745240000000  0.5091190000000 1.0
C      1  0.5077490000000  0.4884500000000  0.4276220000000 1.0
C      1  0.5033050000000  0.5149230000000  0.5683680000000 1.0
C      1  0.4968410000000  0.4853690000000  0.5679400000000 1.0
C      1  0.4293970000000  0.5066550000000  0.4866910000000 1.0
C      1  0.4266750000000  0.4928760000000  0.5071020000000 1.0
C      1  0.5688590000000  0.5041320000000  0.5145550000000 1.0
C      1  0.4873530000000  0.4282610000000  0.5072140000000 1.0
C      1  0.4890790000000  0.5745610000000  0.4911410000000 1.0
C      1  0.5144330000000  0.4316490000000  0.4965170000000 1.0
C      1  0.5156160000000  0.5552880000000  0.5242440000000 1.0
C      1  0.5232260000000  0.5156220000000  0.5541500000000 1.0
C      1  0.5547240000000  0.5238230000000  0.5154810000000 1.0
C      1  0.4841000000000  0.4469520000000  0.5223140000000 1.0
C      1  0.4843220000000  0.5553130000000  0.4759850000000 1.0
C      1  0.5148970000000  0.4454460000000  0.4767330000000 1.0
C      1  0.4767570000000  0.4849330000000  0.5538240000000 1.0
C      1  0.4763800000000  0.5157520000000  0.4451690000000 1.0
C      1  0.5238040000000  0.4844740000000  0.4461310000000 1.0
C      1  0.4448630000000  0.4771040000000  0.5143420000000 1.0
C      1  0.4466020000000  0.5228580000000  0.4843990000000 1.0
C      1  0.5546930000000  0.4758880000000  0.4838080000000 1.0
C      1  0.5153910000000  0.5541870000000  0.4768060000000 1.0
C      1  0.5239570000000  0.5160330000000  0.4455700000000 1.0
C      1  0.5548570000000  0.5238830000000  0.4845160000000 1.0
C      1  0.4846940000000  0.4453320000000  0.4746650000000 1.0
C      1  0.4845130000000  0.5542880000000  0.5235420000000 1.0
C      1  0.5155920000000  0.4455460000000  0.5241460000000 1.0
C      1  0.4753160000000  0.4850160000000  0.4470340000000 1.0
C      1  0.4758930000000  0.5158520000000  0.5554760000000 1.0
C      1  0.5243780000000  0.4845280000000  0.5550300000000 1.0
C      1  0.4477510000000  0.4730420000000  0.4834520000000 1.0
C      1  0.4458700000000  0.5240130000000  0.5159720000000 1.0
C      1  0.5546080000000  0.4756100000000  0.5162500000000 1.0
C      1  0.5406270000000  0.5150220000000  0.5359630000000 1.0
C      1  0.5362790000000  0.5417770000000  0.5145710000000 1.0
C      1  0.5150580000000  0.5365700000000  0.5409470000000 1.0
C      1  0.4583170000000  0.4863730000000  0.5354210000000 1.0
C      1  0.4601500000000  0.5163240000000  0.4635460000000 1.0
C      1  0.5418390000000  0.4857790000000  0.4640660000000 1.0
C      1  0.4637430000000  0.4599860000000  0.5152530000000 1.0
C      1  0.4642900000000  0.5413520000000  0.4855950000000 1.0
C      1  0.5360360000000  0.4591130000000  0.4850040000000 1.0
C      1  0.4849510000000  0.4646770000000  0.5399230000000 1.0
C      1  0.4847890000000  0.5366010000000  0.4591240000000 1.0
C      1  0.5149160000000  0.4639550000000  0.4592200000000 1.0
C      1  0.5410770000000  0.5152340000000  0.4639350000000 1.0
C      1  0.5363780000000  0.5407490000000  0.4851230000000 1.0
C      1  0.5142580000000  0.5361980000000  0.4586770000000 1.0
C      1  0.4550120000000  0.4897260000000  0.4642300000000 1.0
C      1  0.4589670000000  0.5154210000000  0.5367410000000 1.0
C      1  0.5419490000000  0.4855680000000  0.5362640000000 1.0
C      1  0.4631480000000  0.4535600000000  0.4884840000000 1.0
C      1  0.4639720000000  0.5406670000000  0.5152600000000 1.0
C      1  0.5360020000000  0.4583350000000  0.5146200000000 1.0
C      1  0.4862900000000  0.4617030000000  0.4566050000000 1.0
C      1  0.4856030000000  0.5362830000000  0.5418340000000 1.0
C      1  0.5146360000000  0.4640310000000  0.5416600000000 1.0
C      1  0.4920190000000  0.5729970000000  0.4511500000000 1.0
C      1  0.4516220000000  0.4935310000000  0.5727420000000 1.0
C      1  0.5728830000000  0.4511190000000  0.4927630000000 1.0
C      1  0.5069230000000  0.4271220000000  0.4510550000000 1.0
C      1  0.5076740000000  0.5730360000000  0.5491770000000 1.0
C      1  0.4925690000000  0.4278290000000  0.5477480000000 1.0
C      1  0.5485300000000  0.5065540000000  0.5727440000000 1.0
C      1  0.5480480000000  0.4929440000000  0.4269990000000 1.0
C      1  0.4513320000000  0.5067550000000  0.4273700000000 1.0
C      1  0.4272620000000  0.5461020000000  0.4936110000000 1.0
C      1  0.4267030000000  0.4514170000000  0.5073150000000 1.0
C      1  0.5725640000000  0.5487370000000  0.5072550000000 1.0
C      1  0.4933540000000  0.5728880000000  0.5487640000000 1.0
C      1  0.4513280000000  0.4924370000000  0.4277730000000 1.0
C      1  0.5729900000000  0.4510590000000  0.5071240000000 1.0
C      1  0.5068080000000  0.4271720000000  0.5483020000000 1.0
C      1  0.5063790000000  0.5727550000000  0.4515860000000 1.0
C      1  0.4925680000000  0.4267020000000  0.4506350000000 1.0
C      1  0.5482410000000  0.5072680000000  0.4270190000000 1.0
C      1  0.5489790000000  0.4922240000000  0.5731630000000 1.0
C      1  0.4512010000000  0.5078640000000  0.5733560000000 1.0
C      1  0.4273020000000  0.5463670000000  0.5080240000000 1.0
C      1  0.4265880000000  0.4508310000000  0.4930130000000 1.0
C      1  0.5723930000000  0.5488840000000  0.4929480000000 1.0
C      1  0.5716900000000  0.4838030000000  0.5452550000000 1.0
C      1  0.5437310000000  0.5712130000000  0.4852090000000 1.0
C      1  0.4844680000000  0.5455850000000  0.5722480000000 1.0
C      1  0.4291540000000  0.5160200000000  0.5448020000000 1.0
C      1  0.4276130000000  0.4834690000000  0.4544380000000 1.0
C      1  0.5709530000000  0.5152710000000  0.4554160000000 1.0
C      1  0.4542070000000  0.4269840000000  0.4844380000000 1.0
C      1  0.4556880000000  0.5704210000000  0.5150610000000 1.0
C      1  0.5450430000000  0.4280970000000  0.5158450000000 1.0
C      1  0.5157370000000  0.4545600000000  0.5716780000000 1.0
C      1  0.5154850000000  0.5452850000000  0.4282940000000 1.0
C      1  0.4845490000000  0.4553230000000  0.4283220000000 1.0
C      1  0.5711910000000  0.4840810000000  0.4545380000000 1.0
C      1  0.5452440000000  0.5719760000000  0.5160970000000 1.0
C      1  0.4845470000000  0.5443380000000  0.4288460000000 1.0
C      1  0.4282520000000  0.5149580000000  0.4544700000000 1.0
C      1  0.4289820000000  0.4853630000000  0.5446100000000 1.0
C      1  0.5709770000000  0.5148410000000  0.5444110000000 1.0
C      1  0.4545840000000  0.4286060000000  0.5155000000000 1.0
C      1  0.4540640000000  0.5708570000000  0.4844070000000 1.0
C      1  0.5438830000000  0.4290010000000  0.4850910000000 1.0
C      1  0.5154640000000  0.4549550000000  0.4285050000000 1.0
C      1  0.5152000000000  0.5440460000000  0.5714220000000 1.0
C      1  0.4850280000000  0.4563130000000  0.5705350000000 1.0
C      1  0.5339910000000  0.4751440000000  0.5648270000000 1.0
C      1  0.5644630000000  0.5340210000000  0.4756130000000 1.0
C      1  0.4761010000000  0.5646880000000  0.5337760000000 1.0
C      1  0.4662790000000  0.5251110000000  0.5654490000000 1.0
C      1  0.4663350000000  0.4757920000000  0.4367420000000 1.0
C      1  0.5336190000000  0.5248000000000  0.4351870000000 1.0
C      1  0.4352490000000  0.4648300000000  0.4757470000000 1.0
C      1  0.4362670000000  0.5337210000000  0.5257320000000 1.0
C      1  0.5648110000000  0.4658360000000  0.5245810000000 1.0
C      1  0.5243510000000  0.4352050000000  0.5337510000000 1.0
C      1  0.5237620000000  0.5646900000000  0.4665840000000 1.0
C      1  0.4754700000000  0.4350760000000  0.4655810000000 1.0
C      1  0.5333140000000  0.4756210000000  0.4354870000000 1.0
C      1  0.5644810000000  0.5337060000000  0.5244220000000 1.0
C      1  0.4748150000000  0.5647730000000  0.4661090000000 1.0
C      1  0.4660330000000  0.5243390000000  0.4352950000000 1.0
C      1  0.4665720000000  0.4764190000000  0.5642150000000 1.0
C      1  0.5335810000000  0.5239160000000  0.5646800000000 1.0
C      1  0.4351450000000  0.4669670000000  0.5239750000000 1.0
C      1  0.4356050000000  0.5324860000000  0.4754360000000 1.0
C      1  0.5647600000000  0.4660030000000  0.4753560000000 1.0
C      1  0.5238370000000  0.4355370000000  0.4664200000000 1.0
C      1  0.5248470000000  0.5649550000000  0.5342210000000 1.0
C      1  0.4754380000000  0.4362790000000  0.5327310000000 1.0
C      1  0.5801890000000  0.5110530000000  0.5227960000000 1.0
C      1  0.5285310000000  0.5897650000000  0.5144360000000 1.0
C      1  0.5104330000000  0.5219670000000  0.5799600000000 1.0
C      1  0.4146550000000  0.4872870000000  0.5263260000000 1.0
C      1  0.4111680000000  0.5105640000000  0.4715550000000 1.0
C      1  0.5854680000000  0.4857840000000  0.4730640000000 1.0
C      1  0.4720410000000  0.4117180000000  0.5136130000000 1.0
C      1  0.4706440000000  0.5887780000000  0.4856920000000 1.0
C      1  0.5221710000000  0.4204010000000  0.4894520000000 1.0
C      1  0.4898130000000  0.4781800000000  0.5794930000000 1.0
C      1  0.4887980000000  0.5226600000000  0.4201930000000 1.0
C      1  0.5132270000000  0.4725500000000  0.4113190000000 1.0
C      1  0.5805930000000  0.5108440000000  0.4770540000000 1.0
C      1  0.5216810000000  0.5798570000000  0.4898300000000 1.0
C      1  0.5137810000000  0.5282130000000  0.4105770000000 1.0
C      1  0.4221910000000  0.4887020000000  0.4764160000000 1.0
C      1  0.4203570000000  0.5125110000000  0.5221020000000 1.0
C      1  0.5863750000000  0.4858170000000  0.5268030000000 1.0
C      1  0.4762890000000  0.4200330000000  0.4892330000000 1.0
C      1  0.4776460000000  0.5796620000000  0.5104610000000 1.0
C      1  0.5279860000000  0.4104070000000  0.5142640000000 1.0
C      1  0.4896460000000  0.4772470000000  0.4210100000000 1.0
C      1  0.4859420000000  0.5286660000000  0.5898020000000 1.0
C      1  0.5142010000000  0.4712890000000  0.5893320000000 1.0
C      1  0.5615220000000  0.5419350000000  0.4518850000000 1.0
C      1  0.4522780000000  0.5620370000000  0.5417670000000 1.0
C      1  0.5416030000000  0.4515530000000  0.5616590000000 1.0
C      1  0.4382580000000  0.4581030000000  0.4520820000000 1.0
C      1  0.4386370000000  0.5422150000000  0.5487940000000 1.0
C      1  0.5616820000000  0.4579180000000  0.5481560000000 1.0
C      1  0.5480040000000  0.4380620000000  0.5416610000000 1.0
C      1  0.5477100000000  0.5619460000000  0.4586560000000 1.0
C      1  0.4515810000000  0.4376880000000  0.4579470000000 1.0
C      1  0.4587140000000  0.5488800000000  0.5621210000000 1.0
C      1  0.4580930000000  0.4519330000000  0.4382070000000 1.0
C      1  0.5413510000000  0.5484870000000  0.4385160000000 1.0
C      1  0.5616540000000  0.5411960000000  0.5483140000000 1.0
C      1  0.4511810000000  0.5611020000000  0.4584600000000 1.0
C      1  0.5412300000000  0.4518150000000  0.4384710000000 1.0
C      1  0.4384840000000  0.4592510000000  0.5477140000000 1.0
C      1  0.4377940000000  0.5411550000000  0.4517210000000 1.0
C      1  0.5613420000000  0.4581480000000  0.4517650000000 1.0
C      1  0.5476470000000  0.4381950000000  0.4585380000000 1.0
C      1  0.5484190000000  0.5615290000000  0.5420430000000 1.0
C      1  0.4517550000000  0.4389780000000  0.5412580000000 1.0
C      1  0.4578360000000  0.5480050000000  0.4380240000000 1.0
C      1  0.4586430000000  0.4526610000000  0.5611450000000 1.0
C      1  0.5417060000000  0.5477580000000  0.5620450000000 1.0
C      1  0.4386450000000  0.5148230000000  0.4936130000000 1.0
C      1  0.4932510000000  0.4389190000000  0.5144960000000 1.0
C      1  0.5160350000000  0.4936310000000  0.4380380000000 1.0
C      1  0.5617390000000  0.4834360000000  0.4935000000000 1.0
C      1  0.5625210000000  0.5148640000000  0.5065580000000 1.0
C      1  0.4379160000000  0.4845500000000  0.5031210000000 1.0
C      1  0.5058450000000  0.5641650000000  0.5174660000000 1.0
C      1  0.5055580000000  0.4380320000000  0.4860460000000 1.0
C      1  0.4940730000000  0.5642340000000  0.4827410000000 1.0
C      1  0.4855010000000  0.5064620000000  0.4379170000000 1.0
C      1  0.4861450000000  0.4936510000000  0.5611840000000 1.0
C      1  0.5139150000000  0.5067350000000  0.5613320000000 1.0
C      1  0.4378090000000  0.5157180000000  0.5067350000000 1.0
C      1  0.4922590000000  0.4382070000000  0.4850990000000 1.0
C      1  0.5175740000000  0.4942540000000  0.5639860000000 1.0
C      1  0.5619440000000  0.4830200000000  0.5066640000000 1.0
C      1  0.5627180000000  0.5149520000000  0.4933760000000 1.0
C      1  0.4422860000000  0.4850290000000  0.4903070000000 1.0
C      1  0.5065420000000  0.5613330000000  0.4862020000000 1.0
C      1  0.5060740000000  0.4368560000000  0.5172790000000 1.0
C      1  0.4932990000000  0.5614990000000  0.5141450000000 1.0
C      1  0.4826560000000  0.5060490000000  0.5642640000000 1.0
C      1  0.4851800000000  0.4932560000000  0.4392780000000 1.0
C      1  0.5168790000000  0.5066850000000  0.4370740000000 1.0
C      1  0.5284250000000  0.4699130000000  0.5199340000000 1.0
C      1  0.5189510000000  0.5279140000000  0.4700380000000 1.0
C      1  0.4705940000000  0.5194120000000  0.5285810000000 1.0
C      1  0.4727880000000  0.5297420000000  0.5198230000000 1.0
C      1  0.4798430000000  0.4687800000000  0.4810140000000 1.0
C      1  0.5273910000000  0.5299720000000  0.4806590000000 1.0
C      1  0.4835370000000  0.4764360000000  0.4696730000000 1.0
C      1  0.4811100000000  0.5278660000000  0.5305400000000 1.0
C      1  0.5199860000000  0.4719960000000  0.5304300000000 1.0
C      1  0.5305520000000  0.4803670000000  0.5284020000000 1.0
C      1  0.5295000000000  0.5195220000000  0.4719920000000 1.0
C      1  0.4710460000000  0.4777010000000  0.4753110000000 1.0
C      1  0.5280960000000  0.4706780000000  0.4805480000000 1.0
C      1  0.5193010000000  0.5283760000000  0.5294230000000 1.0
C      1  0.4711290000000  0.5195810000000  0.4729670000000 1.0
C      1  0.4730790000000  0.5300680000000  0.4815340000000 1.0
C      1  0.4719080000000  0.4717650000000  0.5187610000000 1.0
C      1  0.5278390000000  0.5304350000000  0.5189130000000 1.0
C      1  0.4805360000000  0.4737910000000  0.5291570000000 1.0
C      1  0.4816150000000  0.5282100000000  0.4709650000000 1.0
C      1  0.5196180000000  0.4728160000000  0.4700360000000 1.0
C      1  0.5302500000000  0.4811630000000  0.4720520000000 1.0
C      1  0.5297250000000  0.5198260000000  0.5273100000000 1.0
C      1  0.4699120000000  0.4822380000000  0.5272800000000 1.0
C      1  0.5065440000000  0.5457740000000  0.4675860000000 1.0
C      1  0.4672300000000  0.5073440000000  0.5461850000000 1.0
C      1  0.5455270000000  0.4671040000000  0.5068640000000 1.0
C      1  0.4935740000000  0.4529570000000  0.4654740000000 1.0
C      1  0.4933580000000  0.5458710000000  0.5328070000000 1.0
C      1  0.5067010000000  0.4548100000000  0.5326470000000 1.0
C      1  0.5331140000000  0.4932690000000  0.5458450000000 1.0
C      1  0.5325540000000  0.5071790000000  0.4546450000000 1.0
C      1  0.4658730000000  0.4942890000000  0.4549300000000 1.0
C      1  0.4544970000000  0.5325350000000  0.5070860000000 1.0
C      1  0.4547990000000  0.4646950000000  0.4936420000000 1.0
C      1  0.5460810000000  0.5326200000000  0.4931950000000 1.0
C      1  0.5069920000000  0.5461250000000  0.5328020000000 1.0
C      1  0.4673430000000  0.5077620000000  0.4538350000000 1.0
C      1  0.5455290000000  0.4674340000000  0.4930840000000 1.0
C      1  0.4930600000000  0.4554880000000  0.5314280000000 1.0
C      1  0.4929080000000  0.5462330000000  0.4672650000000 1.0
C      1  0.5068850000000  0.4543130000000  0.4676450000000 1.0
C      1  0.5328250000000  0.4934970000000  0.4547570000000 1.0
C      1  0.5322210000000  0.5068800000000  0.5454820000000 1.0
C      1  0.4675170000000  0.4937600000000  0.5453740000000 1.0
C      1  0.4551420000000  0.5321100000000  0.4934050000000 1.0
C      1  0.4541340000000  0.4676100000000  0.5069030000000 1.0
C      1  0.5461210000000  0.5329520000000  0.5068050000000 1.0
C      1  0.4441860000000  0.5145710000000  0.5634270000000 1.0
C      1  0.5630610000000  0.4439060000000  0.5138600000000 1.0
C      1  0.5133110000000  0.5629300000000  0.4444930000000 1.0
C      1  0.5560090000000  0.4856220000000  0.5632040000000 1.0
C      1  0.5554610000000  0.5139460000000  0.4369290000000 1.0
C      1  0.4441090000000  0.4856230000000  0.4374730000000 1.0
C      1  0.4370840000000  0.5544970000000  0.5140570000000 1.0
C      1  0.4359020000000  0.4429790000000  0.4861670000000 1.0
C      1  0.5624450000000  0.5559190000000  0.4863050000000 1.0
C      1  0.4857360000000  0.4363340000000  0.4433030000000 1.0
C      1  0.4865470000000  0.5630730000000  0.5559330000000 1.0
C      1  0.5136750000000  0.4368160000000  0.5556640000000 1.0
C      1  0.4441080000000  0.5135080000000  0.4369860000000 1.0
C      1  0.5627590000000  0.4441240000000  0.4861710000000 1.0
C      1  0.5141690000000  0.5629150000000  0.5561660000000 1.0
C      1  0.5552840000000  0.4861630000000  0.4367800000000 1.0
C      1  0.5555550000000  0.5133070000000  0.5627750000000 1.0
C      1  0.4445540000000  0.4868180000000  0.5627770000000 1.0
C      1  0.4367450000000  0.5539690000000  0.4867300000000 1.0
C      1  0.4368550000000  0.4444720000000  0.5137680000000 1.0
C      1  0.5627950000000  0.5557810000000  0.5140880000000 1.0
C      1  0.4860950000000  0.4379240000000  0.5548260000000 1.0
C      1  0.4855340000000  0.5629000000000  0.4441690000000 1.0
C      1  0.5135510000000  0.4371790000000  0.4441850000000 1.0
C      1  0.5239690000000  0.4512640000000  0.4876030000000 1.0
C      1  0.4873190000000  0.5247750000000  0.4510090000000 1.0
C      1  0.4495120000000  0.4887950000000  0.5232920000000 1.0
C      1  0.4761700000000  0.5499210000000  0.4880330000000 1.0
C      1  0.4753830000000  0.4522180000000  0.5105810000000 1.0
C      1  0.5240740000000  0.5500630000000  0.5122290000000 1.0
C      1  0.5116050000000  0.4762660000000  0.4515930000000 1.0
C      1  0.5121900000000  0.5246630000000  0.5486980000000 1.0
C      1  0.4878980000000  0.4762550000000  0.5480130000000 1.0
C      1  0.5490480000000  0.5124360000000  0.5242770000000 1.0
C      1  0.5507360000000  0.4884210000000  0.4756680000000 1.0
C      1  0.4524480000000  0.5118060000000  0.4750810000000 1.0
C      1  0.5238320000000  0.4502900000000  0.5118650000000 1.0
C      1  0.4879450000000  0.5241810000000  0.5502240000000 1.0
C      1  0.4573020000000  0.4763850000000  0.4718640000000 1.0
C      1  0.4758020000000  0.5484320000000  0.5123970000000 1.0
C      1  0.4773370000000  0.4550900000000  0.4839120000000 1.0
C      1  0.5242880000000  0.5483460000000  0.4878780000000 1.0
C      1  0.5122520000000  0.4762960000000  0.5497490000000 1.0
C      1  0.5115500000000  0.5242370000000  0.4502920000000 1.0
C      1  0.4865880000000  0.4761240000000  0.4552140000000 1.0
C      1  0.5493890000000  0.5125620000000  0.4756400000000 1.0
C      1  0.5504550000000  0.4882420000000  0.5243310000000 1.0
C      1  0.4508860000000  0.5127600000000  0.5247730000000 1.0
C      1  0.4817810000000  0.4846670000000  0.4134180000000 1.0
C      1  0.4150740000000  0.4832450000000  0.4860920000000 1.0
C      1  0.4841820000000  0.4132620000000  0.4811380000000 1.0
C      1  0.5157510000000  0.5153380000000  0.4143700000000 1.0
C      1  0.5164580000000  0.4840380000000  0.5856410000000 1.0
C      1  0.4836850000000  0.5159340000000  0.5860390000000 1.0
C      1  0.5878980000000  0.5201620000000  0.4832970000000 1.0
C      1  0.5850420000000  0.4840490000000  0.5137250000000 1.0
C      1  0.4152660000000  0.5248860000000  0.5156590000000 1.0
C      1  0.5134390000000  0.5861300000000  0.4816100000000 1.0
C      1  0.5151410000000  0.4143400000000  0.5160600000000 1.0
C      1  0.4858640000000  0.5860750000000  0.5186300000000 1.0
C      1  0.4818190000000  0.4863350000000  0.5861060000000 1.0
C      1  0.4160750000000  0.4849200000000  0.5133730000000 1.0
C      1  0.4847700000000  0.4161890000000  0.5149640000000 1.0
C      1  0.5184730000000  0.5136810000000  0.5863720000000 1.0
C      1  0.5149910000000  0.4853160000000  0.4155060000000 1.0
C      1  0.4792260000000  0.5162560000000  0.4134180000000 1.0
C      1  0.5870660000000  0.5209900000000  0.5169200000000 1.0
C      1  0.5847390000000  0.4840650000000  0.4862030000000 1.0
C      1  0.4165500000000  0.5124110000000  0.4836420000000 1.0
C      1  0.5158250000000  0.5858440000000  0.5166280000000 1.0
C      1  0.5151270000000  0.4130630000000  0.4809270000000 1.0
C      1  0.4835590000000  0.5855900000000  0.4835740000000 1.0
C      1  0.5395870000000  0.4407610000000  0.5524360000000 1.0
C      1  0.5522300000000  0.5400750000000  0.4410200000000 1.0
C      1  0.4413630000000  0.5527920000000  0.5401310000000 1.0
C      1  0.4607490000000  0.5594550000000  0.5525480000000 1.0
C      1  0.4598710000000  0.4406440000000  0.4471660000000 1.0
C      1  0.5392470000000  0.5592140000000  0.4479220000000 1.0
C      1  0.4477880000000  0.4605710000000  0.4417570000000 1.0
C      1  0.4478420000000  0.5405010000000  0.5596680000000 1.0
C      1  0.5524500000000  0.4598880000000  0.5589890000000 1.0
C      1  0.5589380000000  0.4471590000000  0.5397190000000 1.0
C      1  0.5587260000000  0.5526540000000  0.4603800000000 1.0
C      1  0.4407960000000  0.4468650000000  0.4601690000000 1.0
C      1  0.5392230000000  0.4409840000000  0.4478070000000 1.0
C      1  0.5523430000000  0.5392380000000  0.5592060000000 1.0
C      1  0.4405390000000  0.5516550000000  0.4604800000000 1.0
C      1  0.4595790000000  0.5587520000000  0.4475000000000 1.0
C      1  0.4603660000000  0.4417630000000  0.5518300000000 1.0
C      1  0.5399970000000  0.5587940000000  0.5528400000000 1.0
C      1  0.4478770000000  0.4611540000000  0.5585260000000 1.0
C      1  0.4470870000000  0.5395240000000  0.4406450000000 1.0
C      1  0.5520500000000  0.4602260000000  0.4410050000000 1.0
C      1  0.5586970000000  0.4473420000000  0.4602390000000 1.0
C      1  0.5590820000000  0.5521050000000  0.5399810000000 1.0
C      1  0.4409260000000  0.4483540000000  0.5393760000000 1.0
C      1  0.5583240000000  0.4516560000000  0.5255080000000 1.0
C      1  0.5249690000000  0.5583770000000  0.4523700000000 1.0
C      1  0.4522630000000  0.5262520000000  0.5590590000000 1.0
C      1  0.4422240000000  0.5478150000000  0.5260810000000 1.0
C      1  0.4413470000000  0.4506180000000  0.4746630000000 1.0
C      1  0.5580400000000  0.5480750000000  0.4745470000000 1.0
C      1  0.4741930000000  0.4412200000000  0.4514200000000 1.0
C      1  0.4749490000000  0.5584670000000  0.5480420000000 1.0
C      1  0.5253700000000  0.4415160000000  0.5479840000000 1.0
C      1  0.5481290000000  0.4740980000000  0.5583270000000 1.0
C      1  0.5478160000000  0.5257780000000  0.4415110000000 1.0
C      1  0.4523080000000  0.4746430000000  0.4434380000000 1.0
C      1  0.5582360000000  0.4519120000000  0.4744460000000 1.0
C      1  0.5258270000000  0.5583460000000  0.5483370000000 1.0
C      1  0.4518920000000  0.5253270000000  0.4415270000000 1.0
C      1  0.4415820000000  0.5468600000000  0.4747160000000 1.0
C      1  0.4416850000000  0.4527540000000  0.5251000000000 1.0
C      1  0.5582130000000  0.5478390000000  0.5257080000000 1.0
C      1  0.4745010000000  0.4426340000000  0.5470000000000 1.0
C      1  0.4738080000000  0.5583130000000  0.4519760000000 1.0
C      1  0.5250140000000  0.4419480000000  0.4522850000000 1.0
C      1  0.5476170000000  0.4745310000000  0.4416800000000 1.0
C      1  0.5477060000000  0.5250170000000  0.5582970000000 1.0
C      1  0.4524090000000  0.4753950000000  0.5577990000000 1.0
C      1  0.5077050000000  0.5376110000000  0.4188160000000 1.0
C      1  0.4213570000000  0.5083610000000  0.5356590000000 1.0
C      1  0.5373230000000  0.4187080000000  0.5080950000000 1.0
C      1  0.4933660000000  0.4637310000000  0.4210430000000 1.0
C      1  0.4922970000000  0.5378650000000  0.5816660000000 1.0
C      1  0.5078550000000  0.4622070000000  0.5810690000000 1.0
C      1  0.5804450000000  0.4919160000000  0.5372080000000 1.0
C      1  0.5789060000000  0.5067520000000  0.4636050000000 1.0
C      1  0.4200400000000  0.4919250000000  0.4627610000000 1.0
C      1  0.4637720000000  0.5786520000000  0.5066450000000 1.0
C      1  0.4626820000000  0.4196490000000  0.4931410000000 1.0
C      1  0.5355100000000  0.5793330000000  0.4936470000000 1.0
C      1  0.5067430000000  0.5358020000000  0.5794880000000 1.0
C      1  0.4187900000000  0.5063330000000  0.4610920000000 1.0
C      1  0.5356510000000  0.4210710000000  0.4936770000000 1.0
C      1  0.4934570000000  0.4643640000000  0.5788030000000 1.0
C      1  0.4931770000000  0.5360920000000  0.4209460000000 1.0
C      1  0.5077100000000  0.4625270000000  0.4191200000000 1.0
C      1  0.5800240000000  0.4920710000000  0.4625600000000 1.0
C      1  0.5789540000000  0.5065420000000  0.5361140000000 1.0
C      1  0.4202770000000  0.4936330000000  0.5366530000000 1.0
C      1  0.4616160000000  0.5805450000000  0.4921460000000 1.0
C      1  0.4618250000000  0.4188430000000  0.5077800000000 1.0
C      1  0.5376180000000  0.5814530000000  0.5081430000000 1.0
C      1  0.5136090000000  0.5764170000000  0.4629520000000 1.0
C      1  0.4622950000000  0.5155030000000  0.5773950000000 1.0
C      1  0.5768060000000  0.4622610000000  0.5146170000000 1.0
C      1  0.4850990000000  0.4232650000000  0.4619730000000 1.0
C      1  0.4860610000000  0.5764560000000  0.5373780000000 1.0
C      1  0.5142720000000  0.4232030000000  0.5371550000000 1.0
C      1  0.5378840000000  0.4845120000000  0.5770060000000 1.0
C      1  0.5370300000000  0.5147270000000  0.4231650000000 1.0
C      1  0.4626740000000  0.4850780000000  0.4246250000000 1.0
C      1  0.4239020000000  0.5360740000000  0.5174210000000 1.0
C      1  0.4235010000000  0.4621170000000  0.4854040000000 1.0
C      1  0.5762430000000  0.5378040000000  0.4853360000000 1.0
C      1  0.5153190000000  0.5769830000000  0.5380640000000 1.0
C      1  0.4624370000000  0.5144650000000  0.4236110000000 1.0
C      1  0.5767370000000  0.4623090000000  0.4852620000000 1.0
C      1  0.4853480000000  0.4244710000000  0.5361670000000 1.0
C      1  0.4842320000000  0.5769260000000  0.4621700000000 1.0
C      1  0.5141740000000  0.4237590000000  0.4625000000000 1.0
C      1  0.5366060000000  0.4856010000000  0.4234550000000 1.0
C      1  0.5372230000000  0.5138390000000  0.5764100000000 1.0
C      1  0.4629730000000  0.4862370000000  0.5761880000000 1.0
C      1  0.4238420000000  0.5349320000000  0.4855140000000 1.0
C      1  0.4231210000000  0.4629350000000  0.5145910000000 1.0
C      1  0.5763780000000  0.5374730000000  0.5147770000000 1.0
C      1  0.5215220000000  0.4450980000000  0.4994570000000 1.0
C      1  0.4780140000000  0.5549430000000  0.5005040000000 1.0
C      1  0.4441230000000  0.5012070000000  0.5218720000000 1.0
C      1  0.4991660000000  0.5222440000000  0.4448640000000 1.0
C      1  0.5556620000000  0.5006930000000  0.5219540000000 1.0
C      1  0.5560500000000  0.5008540000000  0.4778630000000 1.0
C      1  0.4476810000000  0.4990930000000  0.4727110000000 1.0
C      1  0.4745910000000  0.4469510000000  0.4974470000000 1.0
C      1  0.5219710000000  0.5549190000000  0.4997350000000 1.0
C      1  0.5003980000000  0.5223600000000  0.5552850000000 1.0
C      1  0.4997420000000  0.4783190000000  0.5546480000000 1.0
C      1  0.4986620000000  0.4784180000000  0.4473590000000 1.0
END
