TITL C-1379266-1300-389 -3.78059279220432e-06 1000000 -2068.49456459482 0 0 300 (Td) n - 1
REM
REM in /nfs/bkarasulu/CARBON/AIRSS/Generating-Clusters/GAP-ML-2020/Higher-Symm/Selected-Sizes/TryA-Only_Ih-Symm/Larger-Clusters/Try2-MINAMP_6A
REM
REM
REM
REM
REM
REM ./C.cell (31579ac4e95a012ec27f3239692ae8a5)
REM
REM compiler GCC version 9.2.1 20190827 (Red Hat 9.2.1-1)
REM options -cpp -mtune=generic -march=x86-64 -g -O0 -fpre-include=/usr/include/finclude/math-vector-fortran.h
REM seed -397445476 -503391145 -1835054888 -14834812 717513082 912300624 307522840 -443104782 -14520450 612063918 -191287822 -1024158025 758149381 1426799899 1557035774 1194610977 1224284292 260858371 1552602851 1115399395 -165263700 -1113344137 766758025 840088927 1967405634 1955521742 187430527 -1747006018 596224086 1780442733 339206615 782374039 665341959
REM
CELL 1.54180  100.00000  100.00000  100.00000   90.00000   90.00000   90.00000
LATT -1
SFAC C  
C      1  0.4634380000000  0.4819650000000  0.5560260000000 1.0
C      1  0.4819650000000  0.5560260000000  0.4634380000000 1.0
C      1  0.5560260000000  0.4634380000000  0.4819650000000 1.0
C      1  0.4634380000000  0.5180350000000  0.4439740000000 1.0
C      1  0.5365620000000  0.4819650000000  0.4439740000000 1.0
C      1  0.5365620000000  0.5180350000000  0.5560260000000 1.0
C      1  0.4819650000000  0.4439740000000  0.5365620000000 1.0
C      1  0.5180350000000  0.5560260000000  0.5365620000000 1.0
C      1  0.5180350000000  0.4439740000000  0.4634380000000 1.0
C      1  0.5560260000000  0.5365620000000  0.5180350000000 1.0
C      1  0.4439740000000  0.4634380000000  0.5180350000000 1.0
C      1  0.4439740000000  0.5365620000000  0.4819650000000 1.0
C      1  0.4634380000000  0.5560260000000  0.4819650000000 1.0
C      1  0.4819650000000  0.4634380000000  0.5560260000000 1.0
C      1  0.5560260000000  0.4819650000000  0.4634380000000 1.0
C      1  0.4634380000000  0.4439740000000  0.5180350000000 1.0
C      1  0.5365620000000  0.4439740000000  0.4819650000000 1.0
C      1  0.5365620000000  0.5560260000000  0.5180350000000 1.0
C      1  0.4819650000000  0.5365620000000  0.4439740000000 1.0
C      1  0.5180350000000  0.5365620000000  0.5560260000000 1.0
C      1  0.5180350000000  0.4634380000000  0.4439740000000 1.0
C      1  0.5560260000000  0.5180350000000  0.5365620000000 1.0
C      1  0.4439740000000  0.5180350000000  0.4634380000000 1.0
C      1  0.4439740000000  0.4819650000000  0.5365620000000 1.0
C      1  0.5658000000000  0.5568620000000  0.5006120000000 1.0
C      1  0.5568620000000  0.5006120000000  0.5658000000000 1.0
C      1  0.5006120000000  0.5658000000000  0.5568620000000 1.0
C      1  0.5658000000000  0.4431380000000  0.4993880000000 1.0
C      1  0.4342000000000  0.5568620000000  0.4993880000000 1.0
C      1  0.4342000000000  0.4431380000000  0.5006120000000 1.0
C      1  0.5568620000000  0.4993880000000  0.4342000000000 1.0
C      1  0.4431380000000  0.5006120000000  0.4342000000000 1.0
C      1  0.4431380000000  0.4993880000000  0.5658000000000 1.0
C      1  0.5006120000000  0.4342000000000  0.4431380000000 1.0
C      1  0.4993880000000  0.5658000000000  0.4431380000000 1.0
C      1  0.4993880000000  0.4342000000000  0.5568620000000 1.0
C      1  0.5658000000000  0.5006120000000  0.5568620000000 1.0
C      1  0.5568620000000  0.5658000000000  0.5006120000000 1.0
C      1  0.5006120000000  0.5568620000000  0.5658000000000 1.0
C      1  0.5658000000000  0.4993880000000  0.4431380000000 1.0
C      1  0.4342000000000  0.4993880000000  0.5568620000000 1.0
C      1  0.4342000000000  0.5006120000000  0.4431380000000 1.0
C      1  0.5568620000000  0.4342000000000  0.4993880000000 1.0
C      1  0.4431380000000  0.4342000000000  0.5006120000000 1.0
C      1  0.4431380000000  0.5658000000000  0.4993880000000 1.0
C      1  0.5006120000000  0.4431380000000  0.4342000000000 1.0
C      1  0.4993880000000  0.4431380000000  0.5658000000000 1.0
C      1  0.4993880000000  0.5568620000000  0.4342000000000 1.0
C      1  0.5608010000000  0.5013850000000  0.4798720000000 1.0
C      1  0.5013850000000  0.4798720000000  0.5608010000000 1.0
C      1  0.4798720000000  0.5608010000000  0.5013850000000 1.0
C      1  0.5608010000000  0.4986150000000  0.5201280000000 1.0
C      1  0.4391990000000  0.5013850000000  0.5201280000000 1.0
C      1  0.4391990000000  0.4986150000000  0.4798720000000 1.0
C      1  0.5013850000000  0.5201280000000  0.4391990000000 1.0
C      1  0.4986150000000  0.4798720000000  0.4391990000000 1.0
C      1  0.4986150000000  0.5201280000000  0.5608010000000 1.0
C      1  0.4798720000000  0.4391990000000  0.4986150000000 1.0
C      1  0.5201280000000  0.5608010000000  0.4986150000000 1.0
C      1  0.5201280000000  0.4391990000000  0.5013850000000 1.0
C      1  0.5608010000000  0.4798720000000  0.5013850000000 1.0
C      1  0.5013850000000  0.5608010000000  0.4798720000000 1.0
C      1  0.4798720000000  0.5013850000000  0.5608010000000 1.0
C      1  0.5608010000000  0.5201280000000  0.4986150000000 1.0
C      1  0.4391990000000  0.5201280000000  0.5013850000000 1.0
C      1  0.4391990000000  0.4798720000000  0.4986150000000 1.0
C      1  0.5013850000000  0.4391990000000  0.5201280000000 1.0
C      1  0.4986150000000  0.4391990000000  0.4798720000000 1.0
C      1  0.4986150000000  0.5608010000000  0.5201280000000 1.0
C      1  0.4798720000000  0.4986150000000  0.4391990000000 1.0
C      1  0.5201280000000  0.4986150000000  0.5608010000000 1.0
C      1  0.5201280000000  0.5013850000000  0.4391990000000 1.0
C      1  0.5641350000000  0.5029860000000  0.4563830000000 1.0
C      1  0.5029860000000  0.4563830000000  0.5641350000000 1.0
C      1  0.4563830000000  0.5641350000000  0.5029860000000 1.0
C      1  0.5641350000000  0.4970140000000  0.5436170000000 1.0
C      1  0.4358650000000  0.5029860000000  0.5436170000000 1.0
C      1  0.4358650000000  0.4970140000000  0.4563830000000 1.0
C      1  0.5029860000000  0.5436170000000  0.4358650000000 1.0
C      1  0.4970140000000  0.4563830000000  0.4358650000000 1.0
C      1  0.4970140000000  0.5436170000000  0.5641350000000 1.0
C      1  0.4563830000000  0.4358650000000  0.4970140000000 1.0
C      1  0.5436170000000  0.5641350000000  0.4970140000000 1.0
C      1  0.5436170000000  0.4358650000000  0.5029860000000 1.0
C      1  0.5641350000000  0.4563830000000  0.5029860000000 1.0
C      1  0.5029860000000  0.5641350000000  0.4563830000000 1.0
C      1  0.4563830000000  0.5029860000000  0.5641350000000 1.0
C      1  0.5641350000000  0.5436170000000  0.4970140000000 1.0
C      1  0.4358650000000  0.5436170000000  0.5029860000000 1.0
C      1  0.4358650000000  0.4563830000000  0.4970140000000 1.0
C      1  0.5029860000000  0.4358650000000  0.5436170000000 1.0
C      1  0.4970140000000  0.4358650000000  0.4563830000000 1.0
C      1  0.4970140000000  0.5641350000000  0.5436170000000 1.0
C      1  0.4563830000000  0.4970140000000  0.4358650000000 1.0
C      1  0.5436170000000  0.4970140000000  0.5641350000000 1.0
C      1  0.5436170000000  0.5029860000000  0.4358650000000 1.0
C      1  0.5422760000000  0.5322010000000  0.5223350000000 1.0
C      1  0.5322010000000  0.5223350000000  0.5422760000000 1.0
C      1  0.5223350000000  0.5422760000000  0.5322010000000 1.0
C      1  0.5422760000000  0.4677990000000  0.4776650000000 1.0
C      1  0.4577240000000  0.5322010000000  0.4776650000000 1.0
C      1  0.4577240000000  0.4677990000000  0.5223350000000 1.0
C      1  0.5322010000000  0.4776650000000  0.4577240000000 1.0
C      1  0.4677990000000  0.5223350000000  0.4577240000000 1.0
C      1  0.4677990000000  0.4776650000000  0.5422760000000 1.0
C      1  0.5223350000000  0.4577240000000  0.4677990000000 1.0
C      1  0.4776650000000  0.5422760000000  0.4677990000000 1.0
C      1  0.4776650000000  0.4577240000000  0.5322010000000 1.0
C      1  0.5422760000000  0.5223350000000  0.5322010000000 1.0
C      1  0.5322010000000  0.5422760000000  0.5223350000000 1.0
C      1  0.5223350000000  0.5322010000000  0.5422760000000 1.0
C      1  0.5422760000000  0.4776650000000  0.4677990000000 1.0
C      1  0.4577240000000  0.4776650000000  0.5322010000000 1.0
C      1  0.4577240000000  0.5223350000000  0.4677990000000 1.0
C      1  0.5322010000000  0.4577240000000  0.4776650000000 1.0
C      1  0.4677990000000  0.4577240000000  0.5223350000000 1.0
C      1  0.4677990000000  0.5422760000000  0.4776650000000 1.0
C      1  0.5223350000000  0.4677990000000  0.4577240000000 1.0
C      1  0.4776650000000  0.4677990000000  0.5422760000000 1.0
C      1  0.4776650000000  0.5322010000000  0.4577240000000 1.0
C      1  0.5398280000000  0.5154390000000  0.4425420000000 1.0
C      1  0.5154390000000  0.4425420000000  0.5398280000000 1.0
C      1  0.4425420000000  0.5398280000000  0.5154390000000 1.0
C      1  0.5398280000000  0.4845610000000  0.5574580000000 1.0
C      1  0.4601720000000  0.5154390000000  0.5574580000000 1.0
C      1  0.4601720000000  0.4845610000000  0.4425420000000 1.0
C      1  0.5154390000000  0.5574580000000  0.4601720000000 1.0
C      1  0.4845610000000  0.4425420000000  0.4601720000000 1.0
C      1  0.4845610000000  0.5574580000000  0.5398280000000 1.0
C      1  0.4425420000000  0.4601720000000  0.4845610000000 1.0
C      1  0.5574580000000  0.5398280000000  0.4845610000000 1.0
C      1  0.5574580000000  0.4601720000000  0.5154390000000 1.0
C      1  0.5398280000000  0.4425420000000  0.5154390000000 1.0
C      1  0.5154390000000  0.5398280000000  0.4425420000000 1.0
C      1  0.4425420000000  0.5154390000000  0.5398280000000 1.0
C      1  0.5398280000000  0.5574580000000  0.4845610000000 1.0
C      1  0.4601720000000  0.5574580000000  0.5154390000000 1.0
C      1  0.4601720000000  0.4425420000000  0.4845610000000 1.0
C      1  0.5154390000000  0.4601720000000  0.5574580000000 1.0
C      1  0.4845610000000  0.4601720000000  0.4425420000000 1.0
C      1  0.4845610000000  0.5398280000000  0.5574580000000 1.0
C      1  0.4425420000000  0.4845610000000  0.4601720000000 1.0
C      1  0.5574580000000  0.4845610000000  0.5398280000000 1.0
C      1  0.5574580000000  0.5154390000000  0.4601720000000 1.0
C      1  0.4670620000000  0.5621150000000  0.4938140000000 1.0
C      1  0.5621150000000  0.4938140000000  0.4670620000000 1.0
C      1  0.4938140000000  0.4670620000000  0.5621150000000 1.0
C      1  0.4670620000000  0.4378850000000  0.5061860000000 1.0
C      1  0.5329380000000  0.5621150000000  0.5061860000000 1.0
C      1  0.5329380000000  0.4378850000000  0.4938140000000 1.0
C      1  0.5621150000000  0.5061860000000  0.5329380000000 1.0
C      1  0.4378850000000  0.4938140000000  0.5329380000000 1.0
C      1  0.4378850000000  0.5061860000000  0.4670620000000 1.0
C      1  0.4938140000000  0.5329380000000  0.4378850000000 1.0
C      1  0.5061860000000  0.4670620000000  0.4378850000000 1.0
C      1  0.5061860000000  0.5329380000000  0.5621150000000 1.0
C      1  0.4670620000000  0.4938140000000  0.5621150000000 1.0
C      1  0.5621150000000  0.4670620000000  0.4938140000000 1.0
C      1  0.4938140000000  0.5621150000000  0.4670620000000 1.0
C      1  0.4670620000000  0.5061860000000  0.4378850000000 1.0
C      1  0.5329380000000  0.5061860000000  0.5621150000000 1.0
C      1  0.5329380000000  0.4938140000000  0.4378850000000 1.0
C      1  0.5621150000000  0.5329380000000  0.5061860000000 1.0
C      1  0.4378850000000  0.5329380000000  0.4938140000000 1.0
C      1  0.4378850000000  0.4670620000000  0.5061860000000 1.0
C      1  0.4938140000000  0.4378850000000  0.5329380000000 1.0
C      1  0.5061860000000  0.4378850000000  0.4670620000000 1.0
C      1  0.5061860000000  0.5621150000000  0.5329380000000 1.0
C      1  0.4999620000000  0.4896270000000  0.4264360000000 1.0
C      1  0.4896270000000  0.4264360000000  0.4999620000000 1.0
C      1  0.4264360000000  0.4999620000000  0.4896270000000 1.0
C      1  0.4999620000000  0.5103730000000  0.5735640000000 1.0
C      1  0.5000380000000  0.4896270000000  0.5735640000000 1.0
C      1  0.5000380000000  0.5103730000000  0.4264360000000 1.0
C      1  0.4896270000000  0.5735640000000  0.5000380000000 1.0
C      1  0.5103730000000  0.4264360000000  0.5000380000000 1.0
C      1  0.5103730000000  0.5735640000000  0.4999620000000 1.0
C      1  0.4264360000000  0.5000380000000  0.5103730000000 1.0
C      1  0.5735640000000  0.4999620000000  0.5103730000000 1.0
C      1  0.5735640000000  0.5000380000000  0.4896270000000 1.0
C      1  0.4999620000000  0.4264360000000  0.4896270000000 1.0
C      1  0.4896270000000  0.4999620000000  0.4264360000000 1.0
C      1  0.4264360000000  0.4896270000000  0.4999620000000 1.0
C      1  0.4999620000000  0.5735640000000  0.5103730000000 1.0
C      1  0.5000380000000  0.5735640000000  0.4896270000000 1.0
C      1  0.5000380000000  0.4264360000000  0.5103730000000 1.0
C      1  0.4896270000000  0.5000380000000  0.5735640000000 1.0
C      1  0.5103730000000  0.5000380000000  0.4264360000000 1.0
C      1  0.5103730000000  0.4999620000000  0.5735640000000 1.0
C      1  0.4264360000000  0.5103730000000  0.5000380000000 1.0
C      1  0.5735640000000  0.5103730000000  0.4999620000000 1.0
C      1  0.5735640000000  0.4896270000000  0.5000380000000 1.0
C      1  0.5591880000000  0.4839270000000  0.5256190000000 1.0
C      1  0.4839270000000  0.5256190000000  0.5591880000000 1.0
C      1  0.5256190000000  0.5591880000000  0.4839270000000 1.0
C      1  0.5591880000000  0.5160730000000  0.4743810000000 1.0
C      1  0.4408120000000  0.4839270000000  0.4743810000000 1.0
C      1  0.4408120000000  0.5160730000000  0.5256190000000 1.0
C      1  0.4839270000000  0.4743810000000  0.4408120000000 1.0
C      1  0.5160730000000  0.5256190000000  0.4408120000000 1.0
C      1  0.5160730000000  0.4743810000000  0.5591880000000 1.0
C      1  0.5256190000000  0.4408120000000  0.5160730000000 1.0
C      1  0.4743810000000  0.5591880000000  0.5160730000000 1.0
C      1  0.4743810000000  0.4408120000000  0.4839270000000 1.0
C      1  0.5591880000000  0.5256190000000  0.4839270000000 1.0
C      1  0.4839270000000  0.5591880000000  0.5256190000000 1.0
C      1  0.5256190000000  0.4839270000000  0.5591880000000 1.0
C      1  0.5591880000000  0.4743810000000  0.5160730000000 1.0
C      1  0.4408120000000  0.4743810000000  0.4839270000000 1.0
C      1  0.4408120000000  0.5256190000000  0.5160730000000 1.0
C      1  0.4839270000000  0.4408120000000  0.4743810000000 1.0
C      1  0.5160730000000  0.4408120000000  0.5256190000000 1.0
C      1  0.5160730000000  0.5591880000000  0.4743810000000 1.0
C      1  0.5256190000000  0.5160730000000  0.4408120000000 1.0
C      1  0.4743810000000  0.5160730000000  0.5591880000000 1.0
C      1  0.4743810000000  0.4839270000000  0.4408120000000 1.0
C      1  0.4896000000000  0.4999590000000  0.4514370000000 1.0
C      1  0.4999590000000  0.4514370000000  0.4896000000000 1.0
C      1  0.4514370000000  0.4896000000000  0.4999590000000 1.0
C      1  0.4896000000000  0.5000410000000  0.5485630000000 1.0
C      1  0.5104000000000  0.4999590000000  0.5485630000000 1.0
C      1  0.5104000000000  0.5000410000000  0.4514370000000 1.0
C      1  0.4999590000000  0.5485630000000  0.5104000000000 1.0
C      1  0.5000410000000  0.4514370000000  0.5104000000000 1.0
C      1  0.5000410000000  0.5485630000000  0.4896000000000 1.0
C      1  0.4514370000000  0.5104000000000  0.5000410000000 1.0
C      1  0.5485630000000  0.4896000000000  0.5000410000000 1.0
C      1  0.5485630000000  0.5104000000000  0.4999590000000 1.0
C      1  0.4896000000000  0.4514370000000  0.4999590000000 1.0
C      1  0.4999590000000  0.4896000000000  0.4514370000000 1.0
C      1  0.4514370000000  0.4999590000000  0.4896000000000 1.0
C      1  0.4896000000000  0.5485630000000  0.5000410000000 1.0
C      1  0.5104000000000  0.5485630000000  0.4999590000000 1.0
C      1  0.5104000000000  0.4514370000000  0.5000410000000 1.0
C      1  0.4999590000000  0.5104000000000  0.5485630000000 1.0
C      1  0.5000410000000  0.5104000000000  0.4514370000000 1.0
C      1  0.5000410000000  0.4896000000000  0.5485630000000 1.0
C      1  0.4514370000000  0.5000410000000  0.5104000000000 1.0
C      1  0.5485630000000  0.5000410000000  0.4896000000000 1.0
C      1  0.5485630000000  0.4999590000000  0.5104000000000 1.0
C      1  0.5492860000000  0.4604420000000  0.4402150000000 1.0
C      1  0.4604420000000  0.4402150000000  0.5492860000000 1.0
C      1  0.4402150000000  0.5492860000000  0.4604420000000 1.0
C      1  0.5492860000000  0.5395580000000  0.5597850000000 1.0
C      1  0.4507140000000  0.4604420000000  0.5597850000000 1.0
C      1  0.4507140000000  0.5395580000000  0.4402150000000 1.0
C      1  0.4604420000000  0.5597850000000  0.4507140000000 1.0
C      1  0.5395580000000  0.4402150000000  0.4507140000000 1.0
C      1  0.5395580000000  0.5597850000000  0.5492860000000 1.0
C      1  0.4402150000000  0.4507140000000  0.5395580000000 1.0
C      1  0.5597850000000  0.5492860000000  0.5395580000000 1.0
C      1  0.5597850000000  0.4507140000000  0.4604420000000 1.0
C      1  0.5492860000000  0.4402150000000  0.4604420000000 1.0
C      1  0.4604420000000  0.5492860000000  0.4402150000000 1.0
C      1  0.4402150000000  0.4604420000000  0.5492860000000 1.0
C      1  0.5492860000000  0.5597850000000  0.5395580000000 1.0
C      1  0.4507140000000  0.5597850000000  0.4604420000000 1.0
C      1  0.4507140000000  0.4402150000000  0.5395580000000 1.0
C      1  0.4604420000000  0.4507140000000  0.5597850000000 1.0
C      1  0.5395580000000  0.4507140000000  0.4402150000000 1.0
C      1  0.5395580000000  0.5492860000000  0.5597850000000 1.0
C      1  0.4402150000000  0.5395580000000  0.4507140000000 1.0
C      1  0.5597850000000  0.5395580000000  0.5492860000000 1.0
C      1  0.5597850000000  0.4604420000000  0.4507140000000 1.0
C      1  0.5252860000000  0.5589030000000  0.5481590000000 1.0
C      1  0.5589030000000  0.5481590000000  0.5252860000000 1.0
C      1  0.5481590000000  0.5252860000000  0.5589030000000 1.0
C      1  0.5252860000000  0.4410970000000  0.4518410000000 1.0
C      1  0.4747140000000  0.5589030000000  0.4518410000000 1.0
C      1  0.4747140000000  0.4410970000000  0.5481590000000 1.0
C      1  0.5589030000000  0.4518410000000  0.4747140000000 1.0
C      1  0.4410970000000  0.5481590000000  0.4747140000000 1.0
C      1  0.4410970000000  0.4518410000000  0.5252860000000 1.0
C      1  0.5481590000000  0.4747140000000  0.4410970000000 1.0
C      1  0.4518410000000  0.5252860000000  0.4410970000000 1.0
C      1  0.4518410000000  0.4747140000000  0.5589030000000 1.0
C      1  0.5252860000000  0.5481590000000  0.5589030000000 1.0
C      1  0.5589030000000  0.5252860000000  0.5481590000000 1.0
C      1  0.5481590000000  0.5589030000000  0.5252860000000 1.0
C      1  0.5252860000000  0.4518410000000  0.4410970000000 1.0
C      1  0.4747140000000  0.4518410000000  0.5589030000000 1.0
C      1  0.4747140000000  0.5481590000000  0.4410970000000 1.0
C      1  0.5589030000000  0.4747140000000  0.4518410000000 1.0
C      1  0.4410970000000  0.4747140000000  0.5481590000000 1.0
C      1  0.4410970000000  0.5252860000000  0.4518410000000 1.0
C      1  0.5481590000000  0.4410970000000  0.4747140000000 1.0
C      1  0.4518410000000  0.4410970000000  0.5252860000000 1.0
C      1  0.4518410000000  0.5589030000000  0.4747140000000 1.0
C      1  0.4792850000000  0.4523290000000  0.4523290000000 1.0
C      1  0.4523290000000  0.4523290000000  0.4792850000000 1.0
C      1  0.4792850000000  0.5476710000000  0.5476710000000 1.0
C      1  0.5207150000000  0.4523290000000  0.5476710000000 1.0
C      1  0.5207150000000  0.5476710000000  0.4523290000000 1.0
C      1  0.4523290000000  0.5476710000000  0.5207150000000 1.0
C      1  0.5476710000000  0.4523290000000  0.5207150000000 1.0
C      1  0.5476710000000  0.5476710000000  0.4792850000000 1.0
C      1  0.4523290000000  0.5207150000000  0.5476710000000 1.0
C      1  0.5476710000000  0.4792850000000  0.5476710000000 1.0
C      1  0.5476710000000  0.5207150000000  0.4523290000000 1.0
C      1  0.4523290000000  0.4792850000000  0.4523290000000 1.0
END
