TITL C-1379267-1329-322 -7.36920740522708e-08 1000000 -3074.93578174778 0 0 440 (Th) n - 1
REM
REM in /nfs/bkarasulu/CARBON/AIRSS/Generating-Clusters/GAP-ML-2020/Higher-Symm/Selected-Sizes/TryA-Only_Ih-Symm/Larger-Clusters/Try2-MINAMP_6A
REM
REM
REM
REM
REM
REM ./C.cell (31579ac4e95a012ec27f3239692ae8a5)
REM
REM compiler GCC version 9.2.1 20190827 (Red Hat 9.2.1-1)
REM options -cpp -mtune=generic -march=x86-64 -g -O0 -fpre-include=/usr/include/finclude/math-vector-fortran.h
REM seed -2044508414 -2049231043 -1763224091 885657383 -224243748 -1433159754 943094421 422745793 1303419858 -1830470854 1578340052 1786463717 1706541593 -1747281216 -1625938860 -1668471115 251870436 -1458279273 323952973 440225812 381221660 866722400 1636780465 382440536 -371188090 -384518557 -834046555 -1132445228 -1645557077 1695332124 1321899256 -1929972943 -1524583459
REM
CELL 1.54180  100.00000  100.00000  100.00000   90.00000   90.00000   90.00000
LATT -1
SFAC C  
C      1  0.5555120000000  0.5585700000000  0.5281190000000 1.0
C      1  0.5581110000000  0.5283340000000  0.5557550000000 1.0
C      1  0.5278760000000  0.5559710000000  0.5583550000000 1.0
C      1  0.4440580000000  0.4419170000000  0.5281190000000 1.0
C      1  0.5555120000000  0.4419170000000  0.4719370000000 1.0
C      1  0.4440580000000  0.5585700000000  0.4719370000000 1.0
C      1  0.4414580000000  0.4721530000000  0.5557550000000 1.0
C      1  0.5581110000000  0.4721530000000  0.4443010000000 1.0
C      1  0.4414580000000  0.5283340000000  0.4443010000000 1.0
C      1  0.4716940000000  0.4445160000000  0.5583550000000 1.0
C      1  0.5278760000000  0.4445160000000  0.4417020000000 1.0
C      1  0.4716940000000  0.5559710000000  0.4417020000000 1.0
C      1  0.5555120000000  0.5585700000000  0.4719370000000 1.0
C      1  0.5581110000000  0.5283340000000  0.4443010000000 1.0
C      1  0.5278760000000  0.5559710000000  0.4417020000000 1.0
C      1  0.4440580000000  0.4419170000000  0.4719370000000 1.0
C      1  0.5555120000000  0.4419170000000  0.5281190000000 1.0
C      1  0.4440580000000  0.5585700000000  0.5281190000000 1.0
C      1  0.4414580000000  0.4721530000000  0.4443010000000 1.0
C      1  0.5581110000000  0.4721530000000  0.5557550000000 1.0
C      1  0.4414580000000  0.5283340000000  0.5557550000000 1.0
C      1  0.4716940000000  0.4445160000000  0.4417020000000 1.0
C      1  0.5278760000000  0.4445160000000  0.5583550000000 1.0
C      1  0.4716940000000  0.5559710000000  0.5583550000000 1.0
C      1  0.5073900000000  0.5692400000000  0.5076320000000 1.0
C      1  0.5687810000000  0.5078470000000  0.5076340000000 1.0
C      1  0.5073880000000  0.5078490000000  0.5690250000000 1.0
C      1  0.4921790000000  0.4312470000000  0.5076320000000 1.0
C      1  0.5073900000000  0.4312470000000  0.4924250000000 1.0
C      1  0.4921790000000  0.5692400000000  0.4924250000000 1.0
C      1  0.4307880000000  0.4926400000000  0.5076340000000 1.0
C      1  0.5687810000000  0.4926400000000  0.4924230000000 1.0
C      1  0.4307880000000  0.5078470000000  0.4924230000000 1.0
C      1  0.4921810000000  0.4926380000000  0.5690250000000 1.0
C      1  0.5073880000000  0.4926380000000  0.4310320000000 1.0
C      1  0.4921810000000  0.5078490000000  0.4310320000000 1.0
C      1  0.5073900000000  0.5692400000000  0.4924250000000 1.0
C      1  0.5687810000000  0.5078470000000  0.4924230000000 1.0
C      1  0.5073880000000  0.5078490000000  0.4310320000000 1.0
C      1  0.4921790000000  0.4312470000000  0.4924250000000 1.0
C      1  0.5073900000000  0.4312470000000  0.5076320000000 1.0
C      1  0.4921790000000  0.5692400000000  0.5076320000000 1.0
C      1  0.4307880000000  0.4926400000000  0.4924230000000 1.0
C      1  0.5687810000000  0.4926400000000  0.5076340000000 1.0
C      1  0.4307880000000  0.5078470000000  0.5076340000000 1.0
C      1  0.4921810000000  0.4926380000000  0.4310320000000 1.0
C      1  0.5073880000000  0.4926380000000  0.5690250000000 1.0
C      1  0.4921810000000  0.5078490000000  0.5690250000000 1.0
C      1  0.4317610000000  0.4622090000000  0.5355050000000 1.0
C      1  0.4617500000000  0.5357200000000  0.4320050000000 1.0
C      1  0.5352620000000  0.4322200000000  0.4619940000000 1.0
C      1  0.5678080000000  0.5382780000000  0.5355050000000 1.0
C      1  0.4317610000000  0.5382780000000  0.4645510000000 1.0
C      1  0.5678080000000  0.4622090000000  0.4645510000000 1.0
C      1  0.5378190000000  0.4647670000000  0.4320050000000 1.0
C      1  0.4617500000000  0.4647670000000  0.5680520000000 1.0
C      1  0.5378190000000  0.5357200000000  0.5680520000000 1.0
C      1  0.4643080000000  0.5682670000000  0.4619940000000 1.0
C      1  0.5352620000000  0.5682670000000  0.5380630000000 1.0
C      1  0.4643080000000  0.4322200000000  0.5380630000000 1.0
C      1  0.4317610000000  0.4622090000000  0.4645510000000 1.0
C      1  0.4617500000000  0.5357200000000  0.5680520000000 1.0
C      1  0.5352620000000  0.4322200000000  0.5380630000000 1.0
C      1  0.5678080000000  0.5382780000000  0.4645510000000 1.0
C      1  0.4317610000000  0.5382780000000  0.5355050000000 1.0
C      1  0.5678080000000  0.4622090000000  0.5355050000000 1.0
C      1  0.5378190000000  0.4647670000000  0.5680520000000 1.0
C      1  0.4617500000000  0.4647670000000  0.4320050000000 1.0
C      1  0.5378190000000  0.5357200000000  0.4320050000000 1.0
C      1  0.4643080000000  0.5682670000000  0.5380630000000 1.0
C      1  0.5352620000000  0.5682670000000  0.4619940000000 1.0
C      1  0.4643080000000  0.4322200000000  0.4619940000000 1.0
C      1  0.5721350000000  0.5149800000000  0.4595200000000 1.0
C      1  0.5145210000000  0.4597350000000  0.5723780000000 1.0
C      1  0.4592760000000  0.5725930000000  0.5147640000000 1.0
C      1  0.4274350000000  0.4855070000000  0.4595200000000 1.0
C      1  0.5721350000000  0.4855070000000  0.5405370000000 1.0
C      1  0.4274350000000  0.5149800000000  0.5405370000000 1.0
C      1  0.4850490000000  0.5407520000000  0.5723780000000 1.0
C      1  0.5145210000000  0.5407520000000  0.4276780000000 1.0
C      1  0.4850490000000  0.4597350000000  0.4276780000000 1.0
C      1  0.5402930000000  0.4278940000000  0.5147640000000 1.0
C      1  0.4592760000000  0.4278940000000  0.4852920000000 1.0
C      1  0.5402930000000  0.5725930000000  0.4852920000000 1.0
C      1  0.5721350000000  0.5149800000000  0.5405370000000 1.0
C      1  0.5145210000000  0.4597350000000  0.4276780000000 1.0
C      1  0.4592760000000  0.5725930000000  0.4852920000000 1.0
C      1  0.4274350000000  0.4855070000000  0.5405370000000 1.0
C      1  0.5721350000000  0.4855070000000  0.4595200000000 1.0
C      1  0.4274350000000  0.5149800000000  0.4595200000000 1.0
C      1  0.4850490000000  0.5407520000000  0.4276780000000 1.0
C      1  0.5145210000000  0.5407520000000  0.5723780000000 1.0
C      1  0.4850490000000  0.4597350000000  0.5723780000000 1.0
C      1  0.5402930000000  0.4278940000000  0.4852920000000 1.0
C      1  0.4592760000000  0.4278940000000  0.5147640000000 1.0
C      1  0.5402930000000  0.5725930000000  0.5147640000000 1.0
C      1  0.4163210000000  0.4938440000000  0.4597820000000 1.0
C      1  0.4933850000000  0.4599970000000  0.4165650000000 1.0
C      1  0.4595380000000  0.4167800000000  0.4936280000000 1.0
C      1  0.5832480000000  0.5066430000000  0.4597820000000 1.0
C      1  0.4163210000000  0.5066430000000  0.5402740000000 1.0
C      1  0.5832480000000  0.4938440000000  0.5402740000000 1.0
C      1  0.5061850000000  0.5404900000000  0.4165650000000 1.0
C      1  0.4933850000000  0.5404900000000  0.5834920000000 1.0
C      1  0.5061850000000  0.4599970000000  0.5834920000000 1.0
C      1  0.5400310000000  0.5837070000000  0.4936280000000 1.0
C      1  0.4595380000000  0.5837070000000  0.5064280000000 1.0
C      1  0.5400310000000  0.4167800000000  0.5064280000000 1.0
C      1  0.4163210000000  0.4938440000000  0.5402740000000 1.0
C      1  0.4933850000000  0.4599970000000  0.5834920000000 1.0
C      1  0.4595380000000  0.4167800000000  0.5064280000000 1.0
C      1  0.5832480000000  0.5066430000000  0.5402740000000 1.0
C      1  0.4163210000000  0.5066430000000  0.4597820000000 1.0
C      1  0.5832480000000  0.4938440000000  0.4597820000000 1.0
C      1  0.5061850000000  0.5404900000000  0.5834920000000 1.0
C      1  0.4933850000000  0.5404900000000  0.4165650000000 1.0
C      1  0.5061850000000  0.4599970000000  0.4165650000000 1.0
C      1  0.5400310000000  0.5837070000000  0.5064280000000 1.0
C      1  0.4595380000000  0.5837070000000  0.4936280000000 1.0
C      1  0.5400310000000  0.4167800000000  0.4936280000000 1.0
C      1  0.5677710000000  0.5199350000000  0.5151690000000 1.0
C      1  0.5194760000000  0.5153850000000  0.5680140000000 1.0
C      1  0.5149260000000  0.5682300000000  0.5197200000000 1.0
C      1  0.4317990000000  0.4805520000000  0.5151690000000 1.0
C      1  0.5677710000000  0.4805520000000  0.4848870000000 1.0
C      1  0.4317990000000  0.5199350000000  0.4848870000000 1.0
C      1  0.4800930000000  0.4851020000000  0.5680140000000 1.0
C      1  0.5194760000000  0.4851020000000  0.4320420000000 1.0
C      1  0.4800930000000  0.5153850000000  0.4320420000000 1.0
C      1  0.4846440000000  0.4322570000000  0.5197200000000 1.0
C      1  0.5149260000000  0.4322570000000  0.4803370000000 1.0
C      1  0.4846440000000  0.5682300000000  0.4803370000000 1.0
C      1  0.5677710000000  0.5199350000000  0.4848870000000 1.0
C      1  0.5194760000000  0.5153850000000  0.4320420000000 1.0
C      1  0.5149260000000  0.5682300000000  0.4803370000000 1.0
C      1  0.4317990000000  0.4805520000000  0.4848870000000 1.0
C      1  0.5677710000000  0.4805520000000  0.5151690000000 1.0
C      1  0.4317990000000  0.5199350000000  0.5151690000000 1.0
C      1  0.4800930000000  0.4851020000000  0.4320420000000 1.0
C      1  0.5194760000000  0.4851020000000  0.5680140000000 1.0
C      1  0.4800930000000  0.5153850000000  0.5680140000000 1.0
C      1  0.4846440000000  0.4322570000000  0.4803370000000 1.0
C      1  0.5149260000000  0.4322570000000  0.5197200000000 1.0
C      1  0.4846440000000  0.5682300000000  0.5197200000000 1.0
C      1  0.5294080000000  0.4514880000000  0.4750820000000 1.0
C      1  0.4510290000000  0.4752970000000  0.5296510000000 1.0
C      1  0.4748390000000  0.5298670000000  0.4512730000000 1.0
C      1  0.4701620000000  0.5489990000000  0.4750820000000 1.0
C      1  0.5294080000000  0.5489990000000  0.5249740000000 1.0
C      1  0.4701620000000  0.4514880000000  0.5249740000000 1.0
C      1  0.5485400000000  0.5251900000000  0.5296510000000 1.0
C      1  0.4510290000000  0.5251900000000  0.4704050000000 1.0
C      1  0.5485400000000  0.4752970000000  0.4704050000000 1.0
C      1  0.5247310000000  0.4706200000000  0.4512730000000 1.0
C      1  0.4748390000000  0.4706200000000  0.5487840000000 1.0
C      1  0.5247310000000  0.5298670000000  0.5487840000000 1.0
C      1  0.5294080000000  0.4514880000000  0.5249740000000 1.0
C      1  0.4510290000000  0.4752970000000  0.4704050000000 1.0
C      1  0.4748390000000  0.5298670000000  0.5487840000000 1.0
C      1  0.4701620000000  0.5489990000000  0.5249740000000 1.0
C      1  0.5294080000000  0.5489990000000  0.4750820000000 1.0
C      1  0.4701620000000  0.4514880000000  0.4750820000000 1.0
C      1  0.5485400000000  0.5251900000000  0.4704050000000 1.0
C      1  0.4510290000000  0.5251900000000  0.5296510000000 1.0
C      1  0.5485400000000  0.4752970000000  0.5296510000000 1.0
C      1  0.5247310000000  0.4706200000000  0.5487840000000 1.0
C      1  0.4748390000000  0.4706200000000  0.4512730000000 1.0
C      1  0.5247310000000  0.5298670000000  0.4512730000000 1.0
C      1  0.5141110000000  0.5371140000000  0.5412200000000 1.0
C      1  0.5366550000000  0.5414350000000  0.5143540000000 1.0
C      1  0.5409770000000  0.5145700000000  0.5368980000000 1.0
C      1  0.4854590000000  0.4633730000000  0.5412200000000 1.0
C      1  0.5141110000000  0.4633730000000  0.4588360000000 1.0
C      1  0.4854590000000  0.5371140000000  0.4588360000000 1.0
C      1  0.4629140000000  0.4590520000000  0.5143540000000 1.0
C      1  0.5366550000000  0.4590520000000  0.4857020000000 1.0
C      1  0.4629140000000  0.5414350000000  0.4857020000000 1.0
C      1  0.4585930000000  0.4859170000000  0.5368980000000 1.0
C      1  0.5409770000000  0.4859170000000  0.4631580000000 1.0
C      1  0.4585930000000  0.5145700000000  0.4631580000000 1.0
C      1  0.5141110000000  0.5371140000000  0.4588360000000 1.0
C      1  0.5366550000000  0.5414350000000  0.4857020000000 1.0
C      1  0.5409770000000  0.5145700000000  0.4631580000000 1.0
C      1  0.4854590000000  0.4633730000000  0.4588360000000 1.0
C      1  0.5141110000000  0.4633730000000  0.5412200000000 1.0
C      1  0.4854590000000  0.5371140000000  0.5412200000000 1.0
C      1  0.4629140000000  0.4590520000000  0.4857020000000 1.0
C      1  0.5366550000000  0.4590520000000  0.5143540000000 1.0
C      1  0.4629140000000  0.5414350000000  0.5143540000000 1.0
C      1  0.4585930000000  0.4859170000000  0.4631580000000 1.0
C      1  0.5409770000000  0.4859170000000  0.5368980000000 1.0
C      1  0.4585930000000  0.5145700000000  0.5368980000000 1.0
C      1  0.5472140000000  0.4410320000000  0.4601870000000 1.0
C      1  0.4405730000000  0.4604020000000  0.5474580000000 1.0
C      1  0.4599440000000  0.5476730000000  0.4408160000000 1.0
C      1  0.4523550000000  0.5594550000000  0.4601870000000 1.0
C      1  0.5472140000000  0.5594550000000  0.5398690000000 1.0
C      1  0.4523550000000  0.4410320000000  0.5398690000000 1.0
C      1  0.5589960000000  0.5400850000000  0.5474580000000 1.0
C      1  0.4405730000000  0.5400850000000  0.4525990000000 1.0
C      1  0.5589960000000  0.4604020000000  0.4525990000000 1.0
C      1  0.5396260000000  0.4528140000000  0.4408160000000 1.0
C      1  0.4599440000000  0.4528140000000  0.5592400000000 1.0
C      1  0.5396260000000  0.5476730000000  0.5592400000000 1.0
C      1  0.5472140000000  0.4410320000000  0.5398690000000 1.0
C      1  0.4405730000000  0.4604020000000  0.4525990000000 1.0
C      1  0.4599440000000  0.5476730000000  0.5592400000000 1.0
C      1  0.4523550000000  0.5594550000000  0.5398690000000 1.0
C      1  0.5472140000000  0.5594550000000  0.4601870000000 1.0
C      1  0.4523550000000  0.4410320000000  0.4601870000000 1.0
C      1  0.5589960000000  0.5400850000000  0.4525990000000 1.0
C      1  0.4405730000000  0.5400850000000  0.5474580000000 1.0
C      1  0.5589960000000  0.4604020000000  0.5474580000000 1.0
C      1  0.5396260000000  0.4528140000000  0.5592400000000 1.0
C      1  0.4599440000000  0.4528140000000  0.4408160000000 1.0
C      1  0.5396260000000  0.5476730000000  0.4408160000000 1.0
C      1  0.5510200000000  0.5623530000000  0.4852420000000 1.0
C      1  0.5618940000000  0.4854570000000  0.5512630000000 1.0
C      1  0.4849980000000  0.5514780000000  0.5621380000000 1.0
C      1  0.4485500000000  0.4381340000000  0.4852420000000 1.0
C      1  0.5510200000000  0.4381340000000  0.5148150000000 1.0
C      1  0.4485500000000  0.5623530000000  0.5148150000000 1.0
C      1  0.4376750000000  0.5150300000000  0.5512630000000 1.0
C      1  0.5618940000000  0.5150300000000  0.4487930000000 1.0
C      1  0.4376750000000  0.4854570000000  0.4487930000000 1.0
C      1  0.5145710000000  0.4490090000000  0.5621380000000 1.0
C      1  0.4849980000000  0.4490090000000  0.4379190000000 1.0
C      1  0.5145710000000  0.5514780000000  0.4379190000000 1.0
C      1  0.5510200000000  0.5623530000000  0.5148150000000 1.0
C      1  0.5618940000000  0.4854570000000  0.4487930000000 1.0
C      1  0.4849980000000  0.5514780000000  0.4379190000000 1.0
C      1  0.4485500000000  0.4381340000000  0.5148150000000 1.0
C      1  0.5510200000000  0.4381340000000  0.4852420000000 1.0
C      1  0.4485500000000  0.5623530000000  0.4852420000000 1.0
C      1  0.4376750000000  0.5150300000000  0.4487930000000 1.0
C      1  0.5618940000000  0.5150300000000  0.5512630000000 1.0
C      1  0.4376750000000  0.4854570000000  0.5512630000000 1.0
C      1  0.5145710000000  0.4490090000000  0.4379190000000 1.0
C      1  0.4849980000000  0.4490090000000  0.5621380000000 1.0
C      1  0.5145710000000  0.5514780000000  0.5621380000000 1.0
C      1  0.5663450000000  0.5454870000000  0.4872020000000 1.0
C      1  0.5450290000000  0.4874170000000  0.5665880000000 1.0
C      1  0.4869590000000  0.5668040000000  0.5452720000000 1.0
C      1  0.4332250000000  0.4550000000000  0.4872020000000 1.0
C      1  0.5663450000000  0.4550000000000  0.5128540000000 1.0
C      1  0.4332250000000  0.5454870000000  0.5128540000000 1.0
C      1  0.4545410000000  0.5130690000000  0.5665880000000 1.0
C      1  0.5450290000000  0.5130690000000  0.4334680000000 1.0
C      1  0.4545410000000  0.4874170000000  0.4334680000000 1.0
C      1  0.5126110000000  0.4336830000000  0.5452720000000 1.0
C      1  0.4869590000000  0.4336830000000  0.4547840000000 1.0
C      1  0.5126110000000  0.5668040000000  0.4547840000000 1.0
C      1  0.5663450000000  0.5454870000000  0.5128540000000 1.0
C      1  0.5450290000000  0.4874170000000  0.4334680000000 1.0
C      1  0.4869590000000  0.5668040000000  0.4547840000000 1.0
C      1  0.4332250000000  0.4550000000000  0.5128540000000 1.0
C      1  0.5663450000000  0.4550000000000  0.4872020000000 1.0
C      1  0.4332250000000  0.5454870000000  0.4872020000000 1.0
C      1  0.4545410000000  0.5130690000000  0.4334680000000 1.0
C      1  0.5450290000000  0.5130690000000  0.5665880000000 1.0
C      1  0.4545410000000  0.4874170000000  0.5665880000000 1.0
C      1  0.5126110000000  0.4336830000000  0.4547840000000 1.0
C      1  0.4869590000000  0.4336830000000  0.5452720000000 1.0
C      1  0.5126110000000  0.5668040000000  0.5452720000000 1.0
C      1  0.4837280000000  0.4536140000000  0.4692680000000 1.0
C      1  0.4531560000000  0.4694840000000  0.4839710000000 1.0
C      1  0.4690250000000  0.4841870000000  0.4533990000000 1.0
C      1  0.5158420000000  0.5468730000000  0.4692680000000 1.0
C      1  0.4837280000000  0.5468730000000  0.5307880000000 1.0
C      1  0.5158420000000  0.4536140000000  0.5307880000000 1.0
C      1  0.5464140000000  0.5310030000000  0.4839710000000 1.0
C      1  0.4531560000000  0.5310030000000  0.5160850000000 1.0
C      1  0.5464140000000  0.4694840000000  0.5160850000000 1.0
C      1  0.5305450000000  0.5163000000000  0.4533990000000 1.0
C      1  0.4690250000000  0.5163000000000  0.5466570000000 1.0
C      1  0.5305450000000  0.4841870000000  0.5466570000000 1.0
C      1  0.4837280000000  0.4536140000000  0.5307880000000 1.0
C      1  0.4531560000000  0.4694840000000  0.5160850000000 1.0
C      1  0.4690250000000  0.4841870000000  0.5466570000000 1.0
C      1  0.5158420000000  0.5468730000000  0.5307880000000 1.0
C      1  0.4837280000000  0.5468730000000  0.4692680000000 1.0
C      1  0.5158420000000  0.4536140000000  0.4692680000000 1.0
C      1  0.5464140000000  0.5310030000000  0.5160850000000 1.0
C      1  0.4531560000000  0.5310030000000  0.4839710000000 1.0
C      1  0.5464140000000  0.4694840000000  0.4839710000000 1.0
C      1  0.5305450000000  0.5163000000000  0.5466570000000 1.0
C      1  0.4690250000000  0.5163000000000  0.4533990000000 1.0
C      1  0.5305450000000  0.4841870000000  0.4533990000000 1.0
C      1  0.4332130000000  0.4767130000000  0.4700790000000 1.0
C      1  0.4762540000000  0.4702940000000  0.4334570000000 1.0
C      1  0.4698350000000  0.4336720000000  0.4764980000000 1.0
C      1  0.5663560000000  0.5237740000000  0.4700790000000 1.0
C      1  0.4332130000000  0.5237740000000  0.5299780000000 1.0
C      1  0.5663560000000  0.4767130000000  0.5299780000000 1.0
C      1  0.5233150000000  0.5301930000000  0.4334570000000 1.0
C      1  0.4762540000000  0.5301930000000  0.5666000000000 1.0
C      1  0.5233150000000  0.4702940000000  0.5666000000000 1.0
C      1  0.5297340000000  0.5668150000000  0.4764980000000 1.0
C      1  0.4698350000000  0.5668150000000  0.5235590000000 1.0
C      1  0.5297340000000  0.4336720000000  0.5235590000000 1.0
C      1  0.4332130000000  0.4767130000000  0.5299780000000 1.0
C      1  0.4762540000000  0.4702940000000  0.5666000000000 1.0
C      1  0.4698350000000  0.4336720000000  0.5235590000000 1.0
C      1  0.5663560000000  0.5237740000000  0.5299780000000 1.0
C      1  0.4332130000000  0.5237740000000  0.4700790000000 1.0
C      1  0.5663560000000  0.4767130000000  0.4700790000000 1.0
C      1  0.5233150000000  0.5301930000000  0.5666000000000 1.0
C      1  0.4762540000000  0.5301930000000  0.4334570000000 1.0
C      1  0.5233150000000  0.4702940000000  0.4334570000000 1.0
C      1  0.5297340000000  0.5668150000000  0.5235590000000 1.0
C      1  0.4698350000000  0.5668150000000  0.4764980000000 1.0
C      1  0.5297340000000  0.4336720000000  0.4764980000000 1.0
C      1  0.4683740000000  0.4925210000000  0.4391810000000 1.0
C      1  0.4920620000000  0.4393960000000  0.4686170000000 1.0
C      1  0.4389370000000  0.4688330000000  0.4923060000000 1.0
C      1  0.5311960000000  0.5079660000000  0.4391810000000 1.0
C      1  0.4683740000000  0.5079660000000  0.5608760000000 1.0
C      1  0.5311960000000  0.4925210000000  0.5608760000000 1.0
C      1  0.5075070000000  0.5610910000000  0.4686170000000 1.0
C      1  0.4920620000000  0.5610910000000  0.5314390000000 1.0
C      1  0.5075070000000  0.4393960000000  0.5314390000000 1.0
C      1  0.5606320000000  0.5316540000000  0.4923060000000 1.0
C      1  0.4389370000000  0.5316540000000  0.5077510000000 1.0
C      1  0.5606320000000  0.4688330000000  0.5077510000000 1.0
C      1  0.4683740000000  0.4925210000000  0.5608760000000 1.0
C      1  0.4920620000000  0.4393960000000  0.5314390000000 1.0
C      1  0.4389370000000  0.4688330000000  0.5077510000000 1.0
C      1  0.5311960000000  0.5079660000000  0.5608760000000 1.0
C      1  0.4683740000000  0.5079660000000  0.4391810000000 1.0
C      1  0.5311960000000  0.4925210000000  0.4391810000000 1.0
C      1  0.5075070000000  0.5610910000000  0.5314390000000 1.0
C      1  0.4920620000000  0.5610910000000  0.4686170000000 1.0
C      1  0.5075070000000  0.4393960000000  0.4686170000000 1.0
C      1  0.5606320000000  0.5316540000000  0.5077510000000 1.0
C      1  0.4389370000000  0.5316540000000  0.4923060000000 1.0
C      1  0.5606320000000  0.4688330000000  0.4923060000000 1.0
C      1  0.4929570000000  0.5635420000000  0.4422480000000 1.0
C      1  0.5630830000000  0.4424630000000  0.4932000000000 1.0
C      1  0.4420050000000  0.4934150000000  0.5633270000000 1.0
C      1  0.5066130000000  0.4369450000000  0.4422480000000 1.0
C      1  0.4929570000000  0.4369450000000  0.5578080000000 1.0
C      1  0.5066130000000  0.5635420000000  0.5578080000000 1.0
C      1  0.4364860000000  0.5580240000000  0.4932000000000 1.0
C      1  0.5630830000000  0.5580240000000  0.5068560000000 1.0
C      1  0.4364860000000  0.4424630000000  0.5068560000000 1.0
C      1  0.5575650000000  0.5070720000000  0.5633270000000 1.0
C      1  0.4420050000000  0.5070720000000  0.4367300000000 1.0
C      1  0.5575650000000  0.4934150000000  0.4367300000000 1.0
C      1  0.4929570000000  0.5635420000000  0.5578080000000 1.0
C      1  0.5630830000000  0.4424630000000  0.5068560000000 1.0
C      1  0.4420050000000  0.4934150000000  0.4367300000000 1.0
C      1  0.5066130000000  0.4369450000000  0.5578080000000 1.0
C      1  0.4929570000000  0.4369450000000  0.4422480000000 1.0
C      1  0.5066130000000  0.5635420000000  0.4422480000000 1.0
C      1  0.4364860000000  0.5580240000000  0.5068560000000 1.0
C      1  0.5630830000000  0.5580240000000  0.4932000000000 1.0
C      1  0.4364860000000  0.4424630000000  0.4932000000000 1.0
C      1  0.5575650000000  0.5070720000000  0.4367300000000 1.0
C      1  0.4420050000000  0.5070720000000  0.5633270000000 1.0
C      1  0.5575650000000  0.4934150000000  0.5633270000000 1.0
C      1  0.4342210000000  0.5482480000000  0.5264570000000 1.0
C      1  0.5477890000000  0.5266730000000  0.4344650000000 1.0
C      1  0.5262140000000  0.4346800000000  0.5480330000000 1.0
C      1  0.5653480000000  0.4522390000000  0.5264570000000 1.0
C      1  0.4342210000000  0.4522390000000  0.4735990000000 1.0
C      1  0.5653480000000  0.5482480000000  0.4735990000000 1.0
C      1  0.4517800000000  0.4738140000000  0.4344650000000 1.0
C      1  0.5477890000000  0.4738140000000  0.5655920000000 1.0
C      1  0.4517800000000  0.5266730000000  0.5655920000000 1.0
C      1  0.4733560000000  0.5658070000000  0.5480330000000 1.0
C      1  0.5262140000000  0.5658070000000  0.4520240000000 1.0
C      1  0.4733560000000  0.4346800000000  0.4520240000000 1.0
C      1  0.4342210000000  0.5482480000000  0.4735990000000 1.0
C      1  0.5477890000000  0.5266730000000  0.5655920000000 1.0
C      1  0.5262140000000  0.4346800000000  0.4520240000000 1.0
C      1  0.5653480000000  0.4522390000000  0.4735990000000 1.0
C      1  0.4342210000000  0.4522390000000  0.5264570000000 1.0
C      1  0.5653480000000  0.5482480000000  0.5264570000000 1.0
C      1  0.4517800000000  0.4738140000000  0.5655920000000 1.0
C      1  0.5477890000000  0.4738140000000  0.4344650000000 1.0
C      1  0.4517800000000  0.5266730000000  0.4344650000000 1.0
C      1  0.4733560000000  0.5658070000000  0.4520240000000 1.0
C      1  0.5262140000000  0.5658070000000  0.5480330000000 1.0
C      1  0.4733560000000  0.4346800000000  0.5480330000000 1.0
C      1  0.5393960000000  0.5475440000000  0.5353550000000 1.0
C      1  0.5470850000000  0.5355700000000  0.5396400000000 1.0
C      1  0.5351120000000  0.5398550000000  0.5473290000000 1.0
C      1  0.4601730000000  0.4529430000000  0.5353550000000 1.0
C      1  0.5393960000000  0.4529430000000  0.4647010000000 1.0
C      1  0.4601730000000  0.5475440000000  0.4647010000000 1.0
C      1  0.4524840000000  0.4649170000000  0.5396400000000 1.0
C      1  0.5470850000000  0.4649170000000  0.4604170000000 1.0
C      1  0.4524840000000  0.5355700000000  0.4604170000000 1.0
C      1  0.4644580000000  0.4606320000000  0.5473290000000 1.0
C      1  0.5351120000000  0.4606320000000  0.4527280000000 1.0
C      1  0.4644580000000  0.5398550000000  0.4527280000000 1.0
C      1  0.5393960000000  0.5475440000000  0.4647010000000 1.0
C      1  0.5470850000000  0.5355700000000  0.4604170000000 1.0
C      1  0.5351120000000  0.5398550000000  0.4527280000000 1.0
C      1  0.4601730000000  0.4529430000000  0.4647010000000 1.0
C      1  0.5393960000000  0.4529430000000  0.5353550000000 1.0
C      1  0.4601730000000  0.5475440000000  0.5353550000000 1.0
C      1  0.4524840000000  0.4649170000000  0.4604170000000 1.0
C      1  0.5470850000000  0.4649170000000  0.5396400000000 1.0
C      1  0.4524840000000  0.5355700000000  0.5396400000000 1.0
C      1  0.4644580000000  0.4606320000000  0.4527280000000 1.0
C      1  0.5351120000000  0.4606320000000  0.5473290000000 1.0
C      1  0.4644580000000  0.5398550000000  0.5473290000000 1.0
C      1  0.5413450000000  0.5518880000000  0.5066210000000 1.0
C      1  0.5514300000000  0.5068360000000  0.5415890000000 1.0
C      1  0.5063770000000  0.5418040000000  0.5516730000000 1.0
C      1  0.4582240000000  0.4485990000000  0.5066210000000 1.0
C      1  0.5413450000000  0.4485990000000  0.4934360000000 1.0
C      1  0.4582240000000  0.5518880000000  0.4934360000000 1.0
C      1  0.4481400000000  0.4936510000000  0.5415890000000 1.0
C      1  0.5514300000000  0.4936510000000  0.4584680000000 1.0
C      1  0.4481400000000  0.5068360000000  0.4584680000000 1.0
C      1  0.4931920000000  0.4586830000000  0.5516730000000 1.0
C      1  0.5063770000000  0.4586830000000  0.4483830000000 1.0
C      1  0.4931920000000  0.5418040000000  0.4483830000000 1.0
C      1  0.5413450000000  0.5518880000000  0.4934360000000 1.0
C      1  0.5514300000000  0.5068360000000  0.4584680000000 1.0
C      1  0.5063770000000  0.5418040000000  0.4483830000000 1.0
C      1  0.4582240000000  0.4485990000000  0.4934360000000 1.0
C      1  0.5413450000000  0.4485990000000  0.5066210000000 1.0
C      1  0.4582240000000  0.5518880000000  0.5066210000000 1.0
C      1  0.4481400000000  0.4936510000000  0.4584680000000 1.0
C      1  0.5514300000000  0.4936510000000  0.5415890000000 1.0
C      1  0.4481400000000  0.5068360000000  0.5415890000000 1.0
C      1  0.4931920000000  0.4586830000000  0.4483830000000 1.0
C      1  0.5063770000000  0.4586830000000  0.5516730000000 1.0
C      1  0.4931920000000  0.5418040000000  0.5516730000000 1.0
C      1  0.5522190000000  0.4478090000000  0.4475940000000 1.0
C      1  0.4473500000000  0.5526780000000  0.5524630000000 1.0
C      1  0.4473500000000  0.4478090000000  0.5524630000000 1.0
C      1  0.4473500000000  0.5526780000000  0.4475940000000 1.0
C      1  0.5522190000000  0.5526780000000  0.5524630000000 1.0
C      1  0.5522190000000  0.4478090000000  0.5524630000000 1.0
C      1  0.4473500000000  0.4478090000000  0.4475940000000 1.0
C      1  0.5522190000000  0.5526780000000  0.4475940000000 1.0
END
