TITL C-134473-8269-8 0.00348842662447031 1000000 -3607.79168462325 0 0 520 (C4h) n - 1
REM
REM in /rds/project/t2_vol4/rds-t2-cs072/BORA/CARBON/from-Arr/AIRSS/Generating-Clusters/GAP-ML-2020/Higher-Symm/Selected-Sizes/Larger-Clusters/Only-C240
REM
REM
REM
REM
REM
REM ./C.cell (db1db5b03a21c153a00b653f6831bbfd)
REM AIRSS Version 0.9.1 bugfix July 2018 build 013d7b7c2542+ Fri, 06 Jul 2018 19:26:36 +0100
REM compiler GCC version 9.3.0
REM options -cpp -mtune=generic -march=x86-64 -g -O0
REM seed 2058650810 2004334594 -1066684359 -1852148114 -2111486677 -1663392944 -1678756670 309399513 1286946646 -1915088691 -2007214049 -2090424301 -33427235 -1459664066 1672047946 -709080951 -1635446382 -908964544 -1844765463 -2054417620 1833545015 -322258482 1103570771 1128292201 -578150410 630736194 794424908 1802174054 -321867726 1476082829 539548915 2143921603 -47074154
REM
CELL 1.54180  100.00000  100.00000  100.00000   90.00000   90.00000   90.00000
LATT -1
SFAC C  
C      1  0.5451230000000  0.4495940000000  0.5125800000000 1.0
C      1  0.5125860000000  0.4495710000000  0.4549050000000 1.0
C      1  0.4549110000000  0.4495590000000  0.4874420000000 1.0
C      1  0.4874480000000  0.4495810000000  0.5451170000000 1.0
C      1  0.5450890000000  0.5504410000000  0.5125580000000 1.0
C      1  0.5125520000000  0.5504190000000  0.4548830000000 1.0
C      1  0.4548770000000  0.5504060000000  0.4874200000000 1.0
C      1  0.4874140000000  0.5504290000000  0.5450950000000 1.0
C      1  0.5221260000000  0.5073570000000  0.4440870000000 1.0
C      1  0.4440860000000  0.5073390000000  0.4778700000000 1.0
C      1  0.4778690000000  0.5073660000000  0.5559100000000 1.0
C      1  0.5559090000000  0.5073850000000  0.5221270000000 1.0
C      1  0.5221310000000  0.4926340000000  0.4440900000000 1.0
C      1  0.4440910000000  0.4926150000000  0.4778730000000 1.0
C      1  0.4778740000000  0.4926430000000  0.5559130000000 1.0
C      1  0.5559140000000  0.4926610000000  0.5221300000000 1.0
C      1  0.4623930000000  0.4490520000000  0.4744660000000 1.0
C      1  0.4744720000000  0.4490690000000  0.5376350000000 1.0
C      1  0.5376410000000  0.4490870000000  0.5255560000000 1.0
C      1  0.5255620000000  0.4490700000000  0.4623870000000 1.0
C      1  0.4623590000000  0.5509130000000  0.4744440000000 1.0
C      1  0.4744380000000  0.5509300000000  0.5376130000000 1.0
C      1  0.5376070000000  0.5509480000000  0.5255340000000 1.0
C      1  0.5255280000000  0.5509310000000  0.4623650000000 1.0
C      1  0.4778620000000  0.4931530000000  0.5167990000000 1.0
C      1  0.5168000000000  0.4931670000000  0.5221420000000 1.0
C      1  0.5221430000000  0.4931600000000  0.4832040000000 1.0
C      1  0.4832050000000  0.4931460000000  0.4778610000000 1.0
C      1  0.4778570000000  0.5068400000000  0.5167960000000 1.0
C      1  0.5167950000000  0.5068540000000  0.5221390000000 1.0
C      1  0.5221380000000  0.5068470000000  0.4832010000000 1.0
C      1  0.4832000000000  0.5068330000000  0.4778580000000 1.0
C      1  0.5521040000000  0.5644580000000  0.4714720000000 1.0
C      1  0.4714640000000  0.5644270000000  0.4478610000000 1.0
C      1  0.4478530000000  0.5644360000000  0.5285010000000 1.0
C      1  0.5284930000000  0.5644680000000  0.5521120000000 1.0
C      1  0.5521470000000  0.4355640000000  0.4714990000000 1.0
C      1  0.4715070000000  0.4355320000000  0.4478880000000 1.0
C      1  0.4478960000000  0.4355420000000  0.5285280000000 1.0
C      1  0.5285360000000  0.4355730000000  0.5521390000000 1.0
C      1  0.4405770000000  0.5255430000000  0.5220940000000 1.0
C      1  0.5220910000000  0.5255780000000  0.5594090000000 1.0
C      1  0.5594060000000  0.5255730000000  0.4778950000000 1.0
C      1  0.4778920000000  0.5255380000000  0.4405800000000 1.0
C      1  0.4405940000000  0.4744270000000  0.5221050000000 1.0
C      1  0.5221080000000  0.4744620000000  0.5594200000000 1.0
C      1  0.5594230000000  0.4744570000000  0.4779060000000 1.0
C      1  0.4779090000000  0.4744220000000  0.4405910000000 1.0
C      1  0.4891020000000  0.5345220000000  0.5249440000000 1.0
C      1  0.5249400000000  0.5345310000000  0.5108790000000 1.0
C      1  0.5108750000000  0.5345190000000  0.4750410000000 1.0
C      1  0.4750370000000  0.5345100000000  0.4891060000000 1.0
C      1  0.4891250000000  0.4654810000000  0.5249590000000 1.0
C      1  0.5249630000000  0.4654900000000  0.5108940000000 1.0
C      1  0.5108980000000  0.4654780000000  0.4750560000000 1.0
C      1  0.4750600000000  0.4654690000000  0.4891210000000 1.0
C      1  0.5604390000000  0.5078040000000  0.4944850000000 1.0
C      1  0.4944840000000  0.5077710000000  0.4395570000000 1.0
C      1  0.4395560000000  0.5077660000000  0.5055120000000 1.0
C      1  0.5055110000000  0.5078000000000  0.5604400000000 1.0
C      1  0.5604440000000  0.4922340000000  0.4944880000000 1.0
C      1  0.4944890000000  0.4922000000000  0.4395600000000 1.0
C      1  0.4395610000000  0.4921960000000  0.5055150000000 1.0
C      1  0.5055160000000  0.4922290000000  0.5604430000000 1.0
C      1  0.5188020000000  0.4724150000000  0.4989280000000 1.0
C      1  0.4989310000000  0.4724050000000  0.4812130000000 1.0
C      1  0.4812160000000  0.4724030000000  0.5010840000000 1.0
C      1  0.5010870000000  0.4724130000000  0.5187990000000 1.0
C      1  0.5187840000000  0.5275970000000  0.4989160000000 1.0
C      1  0.4989130000000  0.5275870000000  0.4812010000000 1.0
C      1  0.4811980000000  0.5275850000000  0.5010720000000 1.0
C      1  0.5010690000000  0.5275950000000  0.5187870000000 1.0
C      1  0.4842330000000  0.5603590000000  0.4709760000000 1.0
C      1  0.4709690000000  0.5603640000000  0.5157350000000 1.0
C      1  0.5157270000000  0.5603820000000  0.5289980000000 1.0
C      1  0.5289910000000  0.5603770000000  0.4842400000000 1.0
C      1  0.4842730000000  0.4396180000000  0.4710020000000 1.0
C      1  0.4710090000000  0.4396230000000  0.5157600000000 1.0
C      1  0.5157670000000  0.4396410000000  0.5290240000000 1.0
C      1  0.5290310000000  0.4396360000000  0.4842650000000 1.0
C      1  0.4415550000000  0.4627650000000  0.4706010000000 1.0
C      1  0.4706050000000  0.4627930000000  0.5584650000000 1.0
C      1  0.5584690000000  0.4628160000000  0.5294150000000 1.0
C      1  0.5294200000000  0.4627880000000  0.4415510000000 1.0
C      1  0.4415310000000  0.5371840000000  0.4705850000000 1.0
C      1  0.4705800000000  0.5372120000000  0.5584490000000 1.0
C      1  0.5584450000000  0.5372350000000  0.5293990000000 1.0
C      1  0.5293950000000  0.5372070000000  0.4415350000000 1.0
C      1  0.4438050000000  0.5133540000000  0.4529430000000 1.0
C      1  0.4529410000000  0.5133790000000  0.5561870000000 1.0
C      1  0.5561860000000  0.5134110000000  0.5470520000000 1.0
C      1  0.5470500000000  0.5133860000000  0.4438070000000 1.0
C      1  0.4438140000000  0.4865890000000  0.4529480000000 1.0
C      1  0.4529500000000  0.4866140000000  0.5561930000000 1.0
C      1  0.5561950000000  0.4866460000000  0.5470570000000 1.0
C      1  0.5470590000000  0.4866210000000  0.4438130000000 1.0
C      1  0.4317580000000  0.5391670000000  0.4916560000000 1.0
C      1  0.4916510000000  0.5392030000000  0.5682210000000 1.0
C      1  0.5682160000000  0.5392160000000  0.5083280000000 1.0
C      1  0.5083230000000  0.5391800000000  0.4317630000000 1.0
C      1  0.4317840000000  0.4607840000000  0.4916720000000 1.0
C      1  0.4916770000000  0.4608200000000  0.5682370000000 1.0
C      1  0.5682420000000  0.4608330000000  0.5083440000000 1.0
C      1  0.5083490000000  0.4607970000000  0.4317790000000 1.0
C      1  0.4828180000000  0.4856400000000  0.4491720000000 1.0
C      1  0.4491730000000  0.4856430000000  0.5171890000000 1.0
C      1  0.5171910000000  0.4856730000000  0.5508340000000 1.0
C      1  0.5508360000000  0.4856700000000  0.4828170000000 1.0
C      1  0.4828090000000  0.5143270000000  0.4491660000000 1.0
C      1  0.4491640000000  0.5143300000000  0.5171830000000 1.0
C      1  0.5171820000000  0.5143600000000  0.5508280000000 1.0
C      1  0.5508270000000  0.5143570000000  0.4828110000000 1.0
C      1  0.5242310000000  0.5280720000000  0.4694790000000 1.0
C      1  0.4694760000000  0.5280560000000  0.4757540000000 1.0
C      1  0.4757500000000  0.5280690000000  0.5305090000000 1.0
C      1  0.5305060000000  0.5280860000000  0.5242350000000 1.0
C      1  0.5242500000000  0.4719310000000  0.4694910000000 1.0
C      1  0.4694940000000  0.4719140000000  0.4757650000000 1.0
C      1  0.4757690000000  0.4719280000000  0.5305210000000 1.0
C      1  0.5305240000000  0.4719440000000  0.5242460000000 1.0
C      1  0.4713880000000  0.5076010000000  0.5418900000000 1.0
C      1  0.5418890000000  0.5076210000000  0.5286080000000 1.0
C      1  0.5286070000000  0.5076020000000  0.4581070000000 1.0
C      1  0.4581060000000  0.5075810000000  0.4713890000000 1.0
C      1  0.4713930000000  0.4923980000000  0.5418930000000 1.0
C      1  0.5418940000000  0.4924190000000  0.5286110000000 1.0
C      1  0.5286120000000  0.4923990000000  0.4581100000000 1.0
C      1  0.4581110000000  0.4923790000000  0.4713920000000 1.0
C      1  0.5418220000000  0.4544910000000  0.5389630000000 1.0
C      1  0.5389680000000  0.4544730000000  0.4582030000000 1.0
C      1  0.4582090000000  0.4544470000000  0.4610560000000 1.0
C      1  0.4610620000000  0.4544650000000  0.5418160000000 1.0
C      1  0.5417910000000  0.5455530000000  0.5389440000000 1.0
C      1  0.5389380000000  0.5455350000000  0.4581840000000 1.0
C      1  0.4581780000000  0.5455090000000  0.4610370000000 1.0
C      1  0.4610320000000  0.5455270000000  0.5417970000000 1.0
C      1  0.4832730000000  0.5442450000000  0.5582630000000 1.0
C      1  0.5582580000000  0.5442610000000  0.5167030000000 1.0
C      1  0.5166980000000  0.5442320000000  0.4417180000000 1.0
C      1  0.4417130000000  0.5442160000000  0.4832780000000 1.0
C      1  0.4833020000000  0.4557680000000  0.5582820000000 1.0
C      1  0.5582870000000  0.4557840000000  0.5167220000000 1.0
C      1  0.5167270000000  0.4557550000000  0.4417370000000 1.0
C      1  0.4417420000000  0.4557390000000  0.4832970000000 1.0
C      1  0.5270250000000  0.5153760000000  0.4940110000000 1.0
C      1  0.4940090000000  0.5153610000000  0.4729660000000 1.0
C      1  0.4729640000000  0.5153610000000  0.5059820000000 1.0
C      1  0.5059800000000  0.5153760000000  0.5270270000000 1.0
C      1  0.5270360000000  0.4846390000000  0.4940180000000 1.0
C      1  0.4940200000000  0.4846240000000  0.4729730000000 1.0
C      1  0.4729750000000  0.4846240000000  0.5059890000000 1.0
C      1  0.5059910000000  0.4846390000000  0.5270340000000 1.0
C      1  0.5449810000000  0.4319910000000  0.5095760000000 1.0
C      1  0.5095850000000  0.4319680000000  0.4550560000000 1.0
C      1  0.4550640000000  0.4319570000000  0.4904520000000 1.0
C      1  0.4904600000000  0.4319800000000  0.5449730000000 1.0
C      1  0.5449360000000  0.5680430000000  0.5095480000000 1.0
C      1  0.5095400000000  0.5680200000000  0.4550270000000 1.0
C      1  0.4550190000000  0.5680090000000  0.4904240000000 1.0
C      1  0.4904150000000  0.5680320000000  0.5449440000000 1.0
C      1  0.4772810000000  0.5075680000000  0.4239490000000 1.0
C      1  0.4239480000000  0.5075710000000  0.5227140000000 1.0
C      1  0.5227140000000  0.5076150000000  0.5760480000000 1.0
C      1  0.5760470000000  0.5076120000000  0.4772820000000 1.0
C      1  0.4772860000000  0.4923850000000  0.4239520000000 1.0
C      1  0.4239530000000  0.4923880000000  0.5227180000000 1.0
C      1  0.5227190000000  0.4924320000000  0.5760510000000 1.0
C      1  0.5760520000000  0.4924290000000  0.4772860000000 1.0
C      1  0.5205450000000  0.4871240000000  0.4699000000000 1.0
C      1  0.4699010000000  0.4871090000000  0.4794620000000 1.0
C      1  0.4794630000000  0.4871230000000  0.5301060000000 1.0
C      1  0.5301070000000  0.4871380000000  0.5205440000000 1.0
C      1  0.5205370000000  0.5128770000000  0.4698940000000 1.0
C      1  0.4698930000000  0.5128620000000  0.4794560000000 1.0
C      1  0.4794550000000  0.5128760000000  0.5301000000000 1.0
C      1  0.5300990000000  0.5128910000000  0.5205380000000 1.0
C      1  0.4790730000000  0.4238710000000  0.4925640000000 1.0
C      1  0.4925730000000  0.4238810000000  0.5209680000000 1.0
C      1  0.5209780000000  0.4238880000000  0.5074690000000 1.0
C      1  0.5074780000000  0.4238780000000  0.4790640000000 1.0
C      1  0.4790220000000  0.5761120000000  0.4925310000000 1.0
C      1  0.4925220000000  0.5761220000000  0.5209360000000 1.0
C      1  0.5209270000000  0.5761290000000  0.5074360000000 1.0
C      1  0.5074270000000  0.5761190000000  0.4790320000000 1.0
C      1  0.5014850000000  0.5672920000000  0.5563960000000 1.0
C      1  0.5563880000000  0.5672980000000  0.4984780000000 1.0
C      1  0.4984700000000  0.5672670000000  0.4435760000000 1.0
C      1  0.4435680000000  0.5672610000000  0.5014930000000 1.0
C      1  0.5015300000000  0.4327330000000  0.5564240000000 1.0
C      1  0.5564320000000  0.4327390000000  0.4985070000000 1.0
C      1  0.4985150000000  0.4327080000000  0.4436040000000 1.0
C      1  0.4436120000000  0.4327020000000  0.5015220000000 1.0
C      1  0.5562650000000  0.5490250000000  0.5386260000000 1.0
C      1  0.5386210000000  0.5489990000000  0.4437080000000 1.0
C      1  0.4437020000000  0.5489720000000  0.4613530000000 1.0
C      1  0.4613470000000  0.5489980000000  0.5562710000000 1.0
C      1  0.5562980000000  0.4510280000000  0.5386470000000 1.0
C      1  0.5386530000000  0.4510020000000  0.4437290000000 1.0
C      1  0.4437350000000  0.4509750000000  0.4613740000000 1.0
C      1  0.4613790000000  0.4510010000000  0.5562920000000 1.0
C      1  0.5157090000000  0.4600980000000  0.4885830000000 1.0
C      1  0.4885880000000  0.4600880000000  0.4843130000000 1.0
C      1  0.4843170000000  0.4600920000000  0.5114340000000 1.0
C      1  0.5114380000000  0.4601020000000  0.5157040000000 1.0
C      1  0.5156830000000  0.5399080000000  0.4885660000000 1.0
C      1  0.4885620000000  0.5398980000000  0.4842960000000 1.0
C      1  0.4842910000000  0.5399020000000  0.5114170000000 1.0
C      1  0.5114120000000  0.5399120000000  0.5156870000000 1.0
C      1  0.5410150000000  0.4840550000000  0.4575240000000 1.0
C      1  0.4575260000000  0.4840280000000  0.4589930000000 1.0
C      1  0.4589950000000  0.4840460000000  0.5424830000000 1.0
C      1  0.5424850000000  0.4840740000000  0.5410130000000 1.0
C      1  0.5410050000000  0.5159540000000  0.4575170000000 1.0
C      1  0.4575150000000  0.5159260000000  0.4589870000000 1.0
C      1  0.4589850000000  0.5159450000000  0.5424760000000 1.0
C      1  0.5424740000000  0.5159720000000  0.5410070000000 1.0
C      1  0.5079970000000  0.4472210000000  0.5076570000000 1.0
C      1  0.5076640000000  0.4472170000000  0.4920320000000 1.0
C      1  0.4920380000000  0.4472120000000  0.4923650000000 1.0
C      1  0.4923710000000  0.4472160000000  0.5079900000000 1.0
C      1  0.5079620000000  0.5527880000000  0.5076350000000 1.0
C      1  0.5076290000000  0.5527840000000  0.4920100000000 1.0
C      1  0.4920030000000  0.5527790000000  0.4923430000000 1.0
C      1  0.4923360000000  0.5527830000000  0.5079680000000 1.0
C      1  0.4640300000000  0.5337630000000  0.5208620000000 1.0
C      1  0.5208580000000  0.5337850000000  0.5359520000000 1.0
C      1  0.5359480000000  0.5337780000000  0.4791240000000 1.0
C      1  0.4791200000000  0.5337560000000  0.4640340000000 1.0
C      1  0.4640520000000  0.4662220000000  0.5208760000000 1.0
C      1  0.5208800000000  0.4662440000000  0.5359660000000 1.0
C      1  0.5359700000000  0.4662370000000  0.4791380000000 1.0
C      1  0.4791420000000  0.4662150000000  0.4640480000000 1.0
C      1  0.5365570000000  0.5419640000000  0.5025930000000 1.0
C      1  0.5025880000000  0.5419450000000  0.4634200000000 1.0
C      1  0.4634150000000  0.5419390000000  0.4973890000000 1.0
C      1  0.4973840000000  0.5419590000000  0.5365620000000 1.0
C      1  0.5365850000000  0.4580610000000  0.5026110000000 1.0
C      1  0.5026160000000  0.4580410000000  0.4634380000000 1.0
C      1  0.4634430000000  0.4580360000000  0.4974070000000 1.0
C      1  0.4974120000000  0.4580550000000  0.5365800000000 1.0
C      1  0.4417790000000  0.4377440000000  0.4619190000000 1.0
C      1  0.4619270000000  0.4377710000000  0.5582550000000 1.0
C      1  0.5582620000000  0.4377990000000  0.5381070000000 1.0
C      1  0.5381150000000  0.4377720000000  0.4417720000000 1.0
C      1  0.4417380000000  0.5622010000000  0.4618930000000 1.0
C      1  0.4618850000000  0.5622280000000  0.5582280000000 1.0
C      1  0.5582210000000  0.5622560000000  0.5380810000000 1.0
C      1  0.5380730000000  0.5622290000000  0.4417450000000 1.0
C      1  0.4766140000000  0.5706540000000  0.5404550000000 1.0
C      1  0.5404460000000  0.5706720000000  0.5233470000000 1.0
C      1  0.5233390000000  0.5706530000000  0.4595150000000 1.0
C      1  0.4595070000000  0.5706350000000  0.4766230000000 1.0
C      1  0.4766610000000  0.4293470000000  0.5404850000000 1.0
C      1  0.5404930000000  0.4293650000000  0.5233770000000 1.0
C      1  0.5233860000000  0.4293460000000  0.4595450000000 1.0
C      1  0.4595540000000  0.4293280000000  0.4766530000000 1.0
C      1  0.4528930000000  0.4930660000000  0.5297110000000 1.0
C      1  0.5297120000000  0.4930950000000  0.5471110000000 1.0
C      1  0.5471120000000  0.4930850000000  0.4702920000000 1.0
C      1  0.4702920000000  0.4930560000000  0.4528920000000 1.0
C      1  0.4528880000000  0.5069150000000  0.5297080000000 1.0
C      1  0.5297080000000  0.5069440000000  0.5471080000000 1.0
C      1  0.5471070000000  0.5069340000000  0.4702890000000 1.0
C      1  0.4702880000000  0.5069050000000  0.4528890000000 1.0
C      1  0.4629840000000  0.5716460000000  0.5112630000000 1.0
C      1  0.5112550000000  0.5716680000000  0.5369770000000 1.0
C      1  0.5369680000000  0.5716660000000  0.4887060000000 1.0
C      1  0.4886980000000  0.5716450000000  0.4629930000000 1.0
C      1  0.4630320000000  0.4283340000000  0.5112940000000 1.0
C      1  0.5113020000000  0.4283550000000  0.5370070000000 1.0
C      1  0.5370160000000  0.4283540000000  0.4887370000000 1.0
C      1  0.4887450000000  0.4283320000000  0.4630230000000 1.0
C      1  0.5503750000000  0.4624270000000  0.4757440000000 1.0
C      1  0.4757480000000  0.4623970000000  0.4496460000000 1.0
C      1  0.4496500000000  0.4624040000000  0.5242720000000 1.0
C      1  0.5242770000000  0.4624340000000  0.5503700000000 1.0
C      1  0.5503500000000  0.5375960000000  0.4757280000000 1.0
C      1  0.4757230000000  0.5375660000000  0.4496300000000 1.0
C      1  0.4496250000000  0.5375730000000  0.5242560000000 1.0
C      1  0.5242520000000  0.5376030000000  0.5503540000000 1.0
C      1  0.5419910000000  0.5464580000000  0.5646120000000 1.0
C      1  0.5646060000000  0.5464430000000  0.4579840000000 1.0
C      1  0.4579780000000  0.5464030000000  0.4353690000000 1.0
C      1  0.4353630000000  0.5464180000000  0.5419970000000 1.0
C      1  0.5420220000000  0.4535970000000  0.5646310000000 1.0
C      1  0.5646370000000  0.4535820000000  0.4580030000000 1.0
C      1  0.4580090000000  0.4535420000000  0.4353880000000 1.0
C      1  0.4353940000000  0.4535570000000  0.5420160000000 1.0
C      1  0.4300430000000  0.4818700000000  0.5304840000000 1.0
C      1  0.5304870000000  0.4819120000000  0.5699660000000 1.0
C      1  0.5699690000000  0.4819030000000  0.4695230000000 1.0
C      1  0.4695250000000  0.4818620000000  0.4300410000000 1.0
C      1  0.4300310000000  0.5180970000000  0.5304770000000 1.0
C      1  0.5304750000000  0.5181380000000  0.5699590000000 1.0
C      1  0.5699570000000  0.5181300000000  0.4695160000000 1.0
C      1  0.4695130000000  0.5180880000000  0.4300340000000 1.0
C      1  0.5019970000000  0.5307580000000  0.5457890000000 1.0
C      1  0.5457850000000  0.5307620000000  0.4979860000000 1.0
C      1  0.4979830000000  0.5307370000000  0.4541980000000 1.0
C      1  0.4541950000000  0.5307320000000  0.5020010000000 1.0
C      1  0.5020170000000  0.4692630000000  0.5458020000000 1.0
C      1  0.5458050000000  0.4692680000000  0.4979990000000 1.0
C      1  0.4980030000000  0.4692420000000  0.4542110000000 1.0
C      1  0.4542150000000  0.4692380000000  0.5020140000000 1.0
C      1  0.4537680000000  0.5354280000000  0.4313060000000 1.0
C      1  0.4313020000000  0.5354450000000  0.5462130000000 1.0
C      1  0.5462080000000  0.5354880000000  0.5686790000000 1.0
C      1  0.5686750000000  0.5354710000000  0.4537720000000 1.0
C      1  0.4537920000000  0.4645120000000  0.4313210000000 1.0
C      1  0.4313250000000  0.4645290000000  0.5462280000000 1.0
C      1  0.5462320000000  0.4645720000000  0.5686940000000 1.0
C      1  0.5686980000000  0.4645550000000  0.4537870000000 1.0
C      1  0.5144310000000  0.5691670000000  0.5503980000000 1.0
C      1  0.5503900000000  0.5691650000000  0.4855310000000 1.0
C      1  0.4855230000000  0.5691360000000  0.4495720000000 1.0
C      1  0.4495640000000  0.5691380000000  0.5144400000000 1.0
C      1  0.5144770000000  0.4308640000000  0.5504280000000 1.0
C      1  0.5504360000000  0.4308620000000  0.4855600000000 1.0
C      1  0.4855690000000  0.4308330000000  0.4496020000000 1.0
C      1  0.4496100000000  0.4308350000000  0.5144690000000 1.0
C      1  0.5021120000000  0.4421520000000  0.5658480000000 1.0
C      1  0.5658550000000  0.4421590000000  0.4979190000000 1.0
C      1  0.4979260000000  0.4421230000000  0.4341760000000 1.0
C      1  0.4341830000000  0.4421160000000  0.5021050000000 1.0
C      1  0.5020740000000  0.5578770000000  0.5658240000000 1.0
C      1  0.5658170000000  0.5578840000000  0.4978950000000 1.0
C      1  0.4978880000000  0.5578480000000  0.4341520000000 1.0
C      1  0.4341450000000  0.5578410000000  0.5020810000000 1.0
C      1  0.5288300000000  0.4384280000000  0.5240510000000 1.0
C      1  0.5240580000000  0.4384160000000  0.4712030000000 1.0
C      1  0.4712100000000  0.4383990000000  0.4759750000000 1.0
C      1  0.4759830000000  0.4384120000000  0.5288230000000 1.0
C      1  0.5287900000000  0.5616010000000  0.5240250000000 1.0
C      1  0.5240170000000  0.5615880000000  0.4711770000000 1.0
C      1  0.4711700000000  0.5615720000000  0.4759490000000 1.0
C      1  0.4759420000000  0.5615840000000  0.5287970000000 1.0
C      1  0.5088360000000  0.4855990000000  0.4410510000000 1.0
C      1  0.4410530000000  0.4855870000000  0.4911720000000 1.0
C      1  0.4911730000000  0.4856180000000  0.5589550000000 1.0
C      1  0.5589570000000  0.4856300000000  0.5088340000000 1.0
C      1  0.5088270000000  0.5143820000000  0.4410450000000 1.0
C      1  0.4410430000000  0.5143700000000  0.4911660000000 1.0
C      1  0.4911640000000  0.5144010000000  0.5589490000000 1.0
C      1  0.5589470000000  0.5144130000000  0.5088280000000 1.0
C      1  0.5681190000000  0.5212720000000  0.4551470000000 1.0
C      1  0.4551440000000  0.5212300000000  0.4318700000000 1.0
C      1  0.4318670000000  0.5212460000000  0.5448440000000 1.0
C      1  0.5448420000000  0.5212880000000  0.5681210000000 1.0
C      1  0.5681330000000  0.4787540000000  0.4551560000000 1.0
C      1  0.4551580000000  0.4787120000000  0.4318790000000 1.0
C      1  0.4318810000000  0.4787280000000  0.5448530000000 1.0
C      1  0.5448560000000  0.4787700000000  0.5681300000000 1.0
C      1  0.4952310000000  0.4553480000000  0.4321180000000 1.0
C      1  0.4321240000000  0.4553430000000  0.5047940000000 1.0
C      1  0.5047990000000  0.4553800000000  0.5679000000000 1.0
C      1  0.5679060000000  0.4553860000000  0.4952250000000 1.0
C      1  0.4952010000000  0.5446200000000  0.4321000000000 1.0
C      1  0.4320940000000  0.5446140000000  0.5047750000000 1.0
C      1  0.5047690000000  0.5446520000000  0.5678820000000 1.0
C      1  0.5678760000000  0.5446570000000  0.4952060000000 1.0
C      1  0.4423320000000  0.4642070000000  0.5112200000000 1.0
C      1  0.5112240000000  0.4642390000000  0.5576880000000 1.0
C      1  0.5576920000000  0.4642400000000  0.4887950000000 1.0
C      1  0.4888000000000  0.4642080000000  0.4423270000000 1.0
C      1  0.4423080000000  0.5357600000000  0.5112050000000 1.0
C      1  0.5112000000000  0.5357920000000  0.5576730000000 1.0
C      1  0.5576680000000  0.5357930000000  0.4887800000000 1.0
C      1  0.4887760000000  0.5357610000000  0.4423120000000 1.0
C      1  0.4525090000000  0.5714790000000  0.4637430000000 1.0
C      1  0.4637340000000  0.5715010000000  0.5474520000000 1.0
C      1  0.5474430000000  0.5715260000000  0.5362270000000 1.0
C      1  0.5362180000000  0.5715050000000  0.4525180000000 1.0
C      1  0.4525570000000  0.4284740000000  0.4637730000000 1.0
C      1  0.4637820000000  0.4284950000000  0.5474820000000 1.0
C      1  0.5474910000000  0.4285210000000  0.5362570000000 1.0
C      1  0.5362660000000  0.4284990000000  0.4525480000000 1.0
C      1  0.4656910000000  0.5746470000000  0.4977730000000 1.0
C      1  0.4977640000000  0.5746660000000  0.5342690000000 1.0
C      1  0.5342600000000  0.5746710000000  0.5021960000000 1.0
C      1  0.5021870000000  0.5746530000000  0.4657000000000 1.0
C      1  0.4657400000000  0.4253290000000  0.4978040000000 1.0
C      1  0.4978130000000  0.4253470000000  0.5343000000000 1.0
C      1  0.5343090000000  0.4253530000000  0.5022270000000 1.0
C      1  0.5022360000000  0.4253340000000  0.4657310000000 1.0
C      1  0.5086530000000  0.4886980000000  0.5750300000000 1.0
C      1  0.5750320000000  0.4887030000000  0.4913530000000 1.0
C      1  0.4913540000000  0.4886610000000  0.4249750000000 1.0
C      1  0.4249760000000  0.4886570000000  0.5086520000000 1.0
C      1  0.5086460000000  0.5113390000000  0.5750250000000 1.0
C      1  0.5750240000000  0.5113430000000  0.4913480000000 1.0
C      1  0.4913470000000  0.5113020000000  0.4249700000000 1.0
C      1  0.4249680000000  0.5112970000000  0.5086470000000 1.0
C      1  0.5461840000000  0.5196130000000  0.5071270000000 1.0
C      1  0.5071250000000  0.5195880000000  0.4538060000000 1.0
C      1  0.4538030000000  0.5195790000000  0.4928640000000 1.0
C      1  0.4928620000000  0.5196030000000  0.5461860000000 1.0
C      1  0.5461970000000  0.4804210000000  0.5071360000000 1.0
C      1  0.5071380000000  0.4803970000000  0.4538140000000 1.0
C      1  0.4538160000000  0.4803870000000  0.4928730000000 1.0
C      1  0.4928750000000  0.4804120000000  0.5461940000000 1.0
C      1  0.5140310000000  0.5634320000000  0.4828590000000 1.0
C      1  0.4828520000000  0.5634220000000  0.4859340000000 1.0
C      1  0.4859270000000  0.5634300000000  0.5171140000000 1.0
C      1  0.5171060000000  0.5634390000000  0.5140390000000 1.0
C      1  0.5140730000000  0.4365700000000  0.4828860000000 1.0
C      1  0.4828940000000  0.4365610000000  0.4859610000000 1.0
C      1  0.4859690000000  0.4365680000000  0.5171410000000 1.0
C      1  0.5171480000000  0.4365780000000  0.5140660000000 1.0
C      1  0.5550280000000  0.5156960000000  0.5603050000000 1.0
C      1  0.5603030000000  0.5156740000000  0.4449630000000 1.0
C      1  0.4449610000000  0.5156340000000  0.4396880000000 1.0
C      1  0.4396860000000  0.5156570000000  0.5550300000000 1.0
C      1  0.5550390000000  0.4843660000000  0.5603120000000 1.0
C      1  0.5603140000000  0.4843430000000  0.4449700000000 1.0
C      1  0.4449720000000  0.4843040000000  0.4396950000000 1.0
C      1  0.4396970000000  0.4843260000000  0.5550370000000 1.0
C      1  0.5426350000000  0.4693410000000  0.5335480000000 1.0
C      1  0.5335520000000  0.4693220000000  0.4573820000000 1.0
C      1  0.4573850000000  0.4692990000000  0.4664650000000 1.0
C      1  0.4664680000000  0.4693180000000  0.5426310000000 1.0
C      1  0.5426150000000  0.5307010000000  0.5335350000000 1.0
C      1  0.5335320000000  0.5306820000000  0.4573690000000 1.0
C      1  0.4573650000000  0.5306590000000  0.4664520000000 1.0
C      1  0.4664480000000  0.5306780000000  0.5426180000000 1.0
C      1  0.5343980000000  0.4912280000000  0.5063970000000 1.0
C      1  0.5063980000000  0.4912100000000  0.4656070000000 1.0
C      1  0.4656080000000  0.4912030000000  0.4936070000000 1.0
C      1  0.4936080000000  0.4912200000000  0.5343970000000 1.0
C      1  0.5343920000000  0.5087970000000  0.5063930000000 1.0
C      1  0.5063920000000  0.5087800000000  0.4656030000000 1.0
C      1  0.4656020000000  0.5087720000000  0.4936030000000 1.0
C      1  0.4936020000000  0.5087900000000  0.5343930000000 1.0
C      1  0.4297290000000  0.5253870000000  0.4875350000000 1.0
C      1  0.4875320000000  0.5254240000000  0.5702580000000 1.0
C      1  0.5702540000000  0.5254390000000  0.5124550000000 1.0
C      1  0.5124510000000  0.5254020000000  0.4297320000000 1.0
C      1  0.4297460000000  0.4745610000000  0.4875450000000 1.0
C      1  0.4875490000000  0.4745980000000  0.5702680000000 1.0
C      1  0.5702710000000  0.4746130000000  0.5124650000000 1.0
C      1  0.5124680000000  0.4745760000000  0.4297420000000 1.0
C      1  0.4478710000000  0.5491550000000  0.5339250000000 1.0
C      1  0.5339190000000  0.5491870000000  0.5521020000000 1.0
C      1  0.5520960000000  0.5491750000000  0.4660540000000 1.0
C      1  0.4660480000000  0.5491430000000  0.4478770000000 1.0
C      1  0.4479040000000  0.4508250000000  0.5339460000000 1.0
C      1  0.5339520000000  0.4508570000000  0.5521230000000 1.0
C      1  0.5521290000000  0.4508450000000  0.4660750000000 1.0
C      1  0.4660810000000  0.4508130000000  0.4478980000000 1.0
C      1  0.4970320000000  0.5840290000000  0.5099280000000 1.0
C      1  0.5099180000000  0.5840320000000  0.5029230000000 1.0
C      1  0.5029130000000  0.5840270000000  0.4900360000000 1.0
C      1  0.4900260000000  0.5840240000000  0.4970420000000 1.0
C      1  0.4970870000000  0.4159730000000  0.5099640000000 1.0
C      1  0.5099740000000  0.4159760000000  0.5029580000000 1.0
C      1  0.5029680000000  0.4159710000000  0.4900720000000 1.0
C      1  0.4900820000000  0.4159680000000  0.4970770000000 1.0
C      1  0.5119260000000  0.4775120000000  0.5390670000000 1.0
C      1  0.5390700000000  0.4775100000000  0.4880860000000 1.0
C      1  0.4880890000000  0.4774880000000  0.4609430000000 1.0
C      1  0.4609450000000  0.4774890000000  0.5119230000000 1.0
C      1  0.5119110000000  0.5225120000000  0.5390570000000 1.0
C      1  0.5390550000000  0.5225110000000  0.4880770000000 1.0
C      1  0.4880740000000  0.5224880000000  0.4609330000000 1.0
C      1  0.4609300000000  0.5224900000000  0.5119140000000 1.0
C      1  0.5271260000000  0.5285820000000  0.4301140000000 1.0
C      1  0.4301110000000  0.5285580000000  0.4728590000000 1.0
C      1  0.4728550000000  0.5285930000000  0.5698740000000 1.0
C      1  0.5698700000000  0.5286160000000  0.5271290000000 1.0
C      1  0.5271450000000  0.4714070000000  0.4301260000000 1.0
C      1  0.4301300000000  0.4713840000000  0.4728710000000 1.0
C      1  0.4728740000000  0.4714180000000  0.5698860000000 1.0
C      1  0.5698890000000  0.4714420000000  0.5271410000000 1.0
C      1  0.5297560000000  0.4838540000000  0.4236130000000 1.0
C      1  0.4236140000000  0.4838290000000  0.4702530000000 1.0
C      1  0.4702550000000  0.4838670000000  0.5763940000000 1.0
C      1  0.5763960000000  0.4838920000000  0.5297540000000 1.0
C      1  0.5297450000000  0.5161330000000  0.4236060000000 1.0
C      1  0.4236040000000  0.5161080000000  0.4702460000000 1.0
C      1  0.4702440000000  0.5161460000000  0.5763870000000 1.0
C      1  0.5763860000000  0.5161710000000  0.5297470000000 1.0
C      1  0.5149820000000  0.5153150000000  0.4190560000000 1.0
C      1  0.4190540000000  0.5152970000000  0.4850100000000 1.0
C      1  0.4850080000000  0.5153390000000  0.5809380000000 1.0
C      1  0.5809360000000  0.5153570000000  0.5149830000000 1.0
C      1  0.5149920000000  0.4846610000000  0.4190620000000 1.0
C      1  0.4190640000000  0.4846430000000  0.4850170000000 1.0
C      1  0.4850180000000  0.4846850000000  0.5809440000000 1.0
C      1  0.5809460000000  0.4847030000000  0.5149900000000 1.0
C      1  0.5385430000000  0.4279320000000  0.5467920000000 1.0
C      1  0.5468000000000  0.4279170000000  0.4614960000000 1.0
C      1  0.4615050000000  0.4278870000000  0.4532390000000 1.0
C      1  0.4532470000000  0.4279020000000  0.5385340000000 1.0
C      1  0.5384950000000  0.5721130000000  0.5467610000000 1.0
C      1  0.5467530000000  0.5720980000000  0.4614660000000 1.0
C      1  0.4614570000000  0.5720680000000  0.4532080000000 1.0
C      1  0.4532000000000  0.5720830000000  0.5385040000000 1.0
C      1  0.5034920000000  0.4928690000000  0.4173120000000 1.0
C      1  0.4173130000000  0.4928570000000  0.4965120000000 1.0
C      1  0.4965130000000  0.4929020000000  0.5826910000000 1.0
C      1  0.5826920000000  0.4929130000000  0.5034910000000 1.0
C      1  0.5034870000000  0.5070980000000  0.4173090000000 1.0
C      1  0.4173080000000  0.5070870000000  0.4965090000000 1.0
C      1  0.4965080000000  0.5071310000000  0.5826880000000 1.0
C      1  0.5826870000000  0.5071430000000  0.5034880000000 1.0
C      1  0.5657740000000  0.4922250000000  0.5360690000000 1.0
C      1  0.5360700000000  0.4921930000000  0.4342300000000 1.0
C      1  0.4342310000000  0.4921660000000  0.4639340000000 1.0
C      1  0.4639350000000  0.4921970000000  0.5657730000000 1.0
C      1  0.5657690000000  0.5078340000000  0.5360660000000 1.0
C      1  0.5360650000000  0.5078030000000  0.4342270000000 1.0
C      1  0.4342260000000  0.5077750000000  0.4639310000000 1.0
C      1  0.4639300000000  0.5078070000000  0.5657700000000 1.0
C      1  0.4886580000000  0.4545340000000  0.4699420000000 1.0
C      1  0.4699470000000  0.4545360000000  0.5113670000000 1.0
C      1  0.5113720000000  0.4545540000000  0.5300770000000 1.0
C      1  0.5300830000000  0.4545510000000  0.4886520000000 1.0
C      1  0.4886280000000  0.5454460000000  0.4699230000000 1.0
C      1  0.4699170000000  0.5454490000000  0.5113480000000 1.0
C      1  0.5113420000000  0.5454660000000  0.5300580000000 1.0
C      1  0.5300530000000  0.5454640000000  0.4886330000000 1.0
END
