TITL C-1379268-1316-408 1.00709763067773e-07 1000000 -2796.41652950671 0 0 400 (C1) n - 1
REM
REM in /nfs/bkarasulu/CARBON/AIRSS/Generating-Clusters/GAP-ML-2020/Higher-Symm/Selected-Sizes/TryA-Only_Ih-Symm/Larger-Clusters/Try2-MINAMP_6A
REM
REM
REM
REM
REM
REM ./C.cell (31579ac4e95a012ec27f3239692ae8a5)
REM
REM compiler GCC version 9.2.1 20190827 (Red Hat 9.2.1-1)
REM options -cpp -mtune=generic -march=x86-64 -g -O0 -fpre-include=/usr/include/finclude/math-vector-fortran.h
REM seed -1230255731 1610626857 -925965047 -1062552176 -1908394008 -1679663060 -1204072199 1480931988 -946463861 -1006218315 -385452850 1768808251 -1886464358 1676809680 1854381427 1642042067 -633588836 -601478818 816834106 -577247659 697946830 1698954415 -2004495820 1605209346 -1568538031 -1466391951 -1545197434 31875139 -1457023115 85329603 1219677270 -60203138 -892131072
REM
CELL 1.54180  100.00000  100.00000  100.00000   90.00000   90.00000   90.00000
LATT -1
SFAC C  
C      1  0.5084910000000  0.5736410000000  0.4820110000000 1.0
C      1  0.5719890000000  0.4827900000000  0.5093030000000 1.0
C      1  0.4821280000000  0.5093320000000  0.5724300000000 1.0
C      1  0.4905130000000  0.5722950000000  0.5181530000000 1.0
C      1  0.4917550000000  0.4262480000000  0.4816510000000 1.0
C      1  0.5095580000000  0.4281140000000  0.5178410000000 1.0
C      1  0.4259160000000  0.4815010000000  0.4921460000000 1.0
C      1  0.4281560000000  0.5175100000000  0.5095570000000 1.0
C      1  0.5739900000000  0.5190370000000  0.4922980000000 1.0
C      1  0.5191880000000  0.5078130000000  0.4250780000000 1.0
C      1  0.5181050000000  0.4907350000000  0.5722480000000 1.0
C      1  0.4825350000000  0.4910540000000  0.4257950000000 1.0
C      1  0.4809480000000  0.5736930000000  0.5081580000000 1.0
C      1  0.5079650000000  0.4813180000000  0.5734600000000 1.0
C      1  0.5723950000000  0.5092430000000  0.4825000000000 1.0
C      1  0.5180330000000  0.5741890000000  0.4921800000000 1.0
C      1  0.4821860000000  0.4266160000000  0.4916810000000 1.0
C      1  0.5190950000000  0.4265900000000  0.5078610000000 1.0
C      1  0.4924170000000  0.4811540000000  0.4251400000000 1.0
C      1  0.5095530000000  0.5176820000000  0.4265270000000 1.0
C      1  0.4922510000000  0.5187690000000  0.5735500000000 1.0
C      1  0.4260440000000  0.5078810000000  0.5193430000000 1.0
C      1  0.5740300000000  0.4924860000000  0.5190570000000 1.0
C      1  0.4263990000000  0.4913000000000  0.4821660000000 1.0
C      1  0.4338970000000  0.5314200000000  0.5435620000000 1.0
C      1  0.5336040000000  0.5422760000000  0.4332380000000 1.0
C      1  0.5439690000000  0.4343760000000  0.5308470000000 1.0
C      1  0.5646340000000  0.5335740000000  0.4588390000000 1.0
C      1  0.5663840000000  0.4689860000000  0.5434560000000 1.0
C      1  0.4334730000000  0.4671230000000  0.4576850000000 1.0
C      1  0.4691700000000  0.5436950000000  0.5661950000000 1.0
C      1  0.4684670000000  0.4569400000000  0.4328050000000 1.0
C      1  0.5310960000000  0.4562540000000  0.5659820000000 1.0
C      1  0.4575760000000  0.4326780000000  0.4677110000000 1.0
C      1  0.4559280000000  0.5655690000000  0.5309710000000 1.0
C      1  0.5428660000000  0.5678130000000  0.4681490000000 1.0
C      1  0.5433890000000  0.5315630000000  0.4317140000000 1.0
C      1  0.4370760000000  0.5412300000000  0.5336380000000 1.0
C      1  0.5342640000000  0.4370310000000  0.5410590000000 1.0
C      1  0.4588790000000  0.5340200000000  0.5637610000000 1.0
C      1  0.5412620000000  0.4660340000000  0.5632720000000 1.0
C      1  0.4579380000000  0.4669660000000  0.4330250000000 1.0
C      1  0.5674160000000  0.5437110000000  0.4686690000000 1.0
C      1  0.4334900000000  0.4572010000000  0.4683340000000 1.0
C      1  0.5634930000000  0.4590390000000  0.5335600000000 1.0
C      1  0.4677160000000  0.4324040000000  0.4573800000000 1.0
C      1  0.5326620000000  0.5661220000000  0.4579160000000 1.0
C      1  0.4657410000000  0.5628950000000  0.5411260000000 1.0
C      1  0.4540680000000  0.5547560000000  0.5222050000000 1.0
C      1  0.5513610000000  0.5267340000000  0.4573640000000 1.0
C      1  0.5225130000000  0.4540430000000  0.5551110000000 1.0
C      1  0.5473280000000  0.5576590000000  0.4772680000000 1.0
C      1  0.5463570000000  0.4452000000000  0.5221200000000 1.0
C      1  0.4566400000000  0.4464430000000  0.4744370000000 1.0
C      1  0.4444410000000  0.5224920000000  0.5465380000000 1.0
C      1  0.4442410000000  0.4758620000000  0.4535900000000 1.0
C      1  0.5556880000000  0.4777680000000  0.5462940000000 1.0
C      1  0.4772500000000  0.4530000000000  0.4433000000000 1.0
C      1  0.4777270000000  0.5461790000000  0.5552690000000 1.0
C      1  0.5281360000000  0.5421370000000  0.4480940000000 1.0
C      1  0.5248570000000  0.5544280000000  0.4551930000000 1.0
C      1  0.4578550000000  0.5275540000000  0.5495420000000 1.0
C      1  0.5492270000000  0.4585210000000  0.5274380000000 1.0
C      1  0.4723170000000  0.5489430000000  0.5420020000000 1.0
C      1  0.5279140000000  0.4511860000000  0.5417980000000 1.0
C      1  0.4747470000000  0.4459630000000  0.4558700000000 1.0
C      1  0.5440580000000  0.5236930000000  0.4439010000000 1.0
C      1  0.4540690000000  0.4756980000000  0.4438840000000 1.0
C      1  0.5423120000000  0.4725370000000  0.5492080000000 1.0
C      1  0.4441290000000  0.4534950000000  0.4770460000000 1.0
C      1  0.5574500000000  0.5483840000000  0.4777130000000 1.0
C      1  0.4513700000000  0.5413760000000  0.5275670000000 1.0
C      1  0.5025160000000  0.4554410000000  0.5357080000000 1.0
C      1  0.4553740000000  0.5356960000000  0.5019660000000 1.0
C      1  0.5378680000000  0.5004190000000  0.4510350000000 1.0
C      1  0.4990050000000  0.4518190000000  0.4618840000000 1.0
C      1  0.4977240000000  0.5449080000000  0.5356910000000 1.0
C      1  0.5018250000000  0.5468920000000  0.4625550000000 1.0
C      1  0.5493640000000  0.5397260000000  0.4999450000000 1.0
C      1  0.5446330000000  0.4647250000000  0.5021550000000 1.0
C      1  0.4518940000000  0.4616160000000  0.4994680000000 1.0
C      1  0.4632310000000  0.5018450000000  0.5458800000000 1.0
C      1  0.4633250000000  0.4976300000000  0.4525200000000 1.0
C      1  0.5369090000000  0.4983630000000  0.5456170000000 1.0
C      1  0.5370160000000  0.4526650000000  0.5004670000000 1.0
C      1  0.5030180000000  0.5356990000000  0.4536500000000 1.0
C      1  0.4513060000000  0.5001620000000  0.5380940000000 1.0
C      1  0.4632050000000  0.4527590000000  0.4983770000000 1.0
C      1  0.5381540000000  0.5487150000000  0.4989490000000 1.0
C      1  0.4629630000000  0.5477390000000  0.5002200000000 1.0
C      1  0.4993680000000  0.5370260000000  0.5475190000000 1.0
C      1  0.5008950000000  0.4633710000000  0.5475630000000 1.0
C      1  0.4998420000000  0.4610100000000  0.4508330000000 1.0
C      1  0.5455630000000  0.5022030000000  0.4631010000000 1.0
C      1  0.4527350000000  0.4980860000000  0.4622550000000 1.0
C      1  0.5488440000000  0.5001510000000  0.5379160000000 1.0
C      1  0.4503700000000  0.5283340000000  0.4897640000000 1.0
C      1  0.5308820000000  0.4878080000000  0.4472730000000 1.0
C      1  0.4904090000000  0.4509620000000  0.5280960000000 1.0
C      1  0.5527700000000  0.5317740000000  0.5121210000000 1.0
C      1  0.5488880000000  0.4724010000000  0.4899890000000 1.0
C      1  0.4479420000000  0.4689520000000  0.5118210000000 1.0
C      1  0.4705960000000  0.4896700000000  0.5507690000000 1.0
C      1  0.4719180000000  0.5096530000000  0.4495640000000 1.0
C      1  0.5295640000000  0.5105160000000  0.5504820000000 1.0
C      1  0.5113080000000  0.4481500000000  0.4697290000000 1.0
C      1  0.5098530000000  0.5494120000000  0.5282010000000 1.0
C      1  0.4891340000000  0.5510730000000  0.4692950000000 1.0
C      1  0.4906800000000  0.5278790000000  0.4496800000000 1.0
C      1  0.4473040000000  0.4877190000000  0.5309980000000 1.0
C      1  0.5297930000000  0.4487010000000  0.4882190000000 1.0
C      1  0.5115330000000  0.5294860000000  0.5511020000000 1.0
C      1  0.4886700000000  0.4708280000000  0.5512480000000 1.0
C      1  0.5121390000000  0.4686060000000  0.4468850000000 1.0
C      1  0.5494320000000  0.4901310000000  0.4713330000000 1.0
C      1  0.4496870000000  0.5101850000000  0.4705860000000 1.0
C      1  0.5529310000000  0.5126720000000  0.5309820000000 1.0
C      1  0.4715630000000  0.4496720000000  0.5104850000000 1.0
C      1  0.5292180000000  0.5512490000000  0.5107570000000 1.0
C      1  0.4698870000000  0.5517180000000  0.4876850000000 1.0
C      1  0.5470880000000  0.4742380000000  0.4331520000000 1.0
C      1  0.4768160000000  0.4385870000000  0.5453820000000 1.0
C      1  0.4371040000000  0.5461420000000  0.4779110000000 1.0
C      1  0.4530170000000  0.4776940000000  0.5641100000000 1.0
C      1  0.4552990000000  0.5239660000000  0.4373270000000 1.0
C      1  0.5472100000000  0.5224450000000  0.5639050000000 1.0
C      1  0.5237900000000  0.4349520000000  0.4523750000000 1.0
C      1  0.5234560000000  0.5617280000000  0.5456160000000 1.0
C      1  0.4752520000000  0.5661390000000  0.4539300000000 1.0
C      1  0.5670150000000  0.5472260000000  0.5261460000000 1.0
C      1  0.5617470000000  0.4551810000000  0.4766800000000 1.0
C      1  0.4335340000000  0.4534550000000  0.5257700000000 1.0
C      1  0.4325870000000  0.4748450000000  0.5474140000000 1.0
C      1  0.5458730000000  0.4344030000000  0.4739890000000 1.0
C      1  0.4775320000000  0.5456410000000  0.4375260000000 1.0
C      1  0.5625240000000  0.4769110000000  0.4544690000000 1.0
C      1  0.4357920000000  0.5249750000000  0.4553530000000 1.0
C      1  0.5676910000000  0.5255470000000  0.5473750000000 1.0
C      1  0.4543980000000  0.4370740000000  0.5239570000000 1.0
C      1  0.5461730000000  0.5639520000000  0.5245320000000 1.0
C      1  0.4533340000000  0.5667690000000  0.4750770000000 1.0
C      1  0.5259960000000  0.5450690000000  0.5657600000000 1.0
C      1  0.4742920000000  0.4551610000000  0.5656990000000 1.0
C      1  0.5256100000000  0.4526700000000  0.4324250000000 1.0
C      1  0.5106610000000  0.4614530000000  0.5575600000000 1.0
C      1  0.4612750000000  0.5574840000000  0.5103550000000 1.0
C      1  0.5537810000000  0.5136550000000  0.4645000000000 1.0
C      1  0.4893690000000  0.4603970000000  0.4414080000000 1.0
C      1  0.4896620000000  0.5389300000000  0.5575210000000 1.0
C      1  0.5140980000000  0.5352220000000  0.4449610000000 1.0
C      1  0.5386130000000  0.5585180000000  0.4888520000000 1.0
C      1  0.5390640000000  0.4427500000000  0.5102530000000 1.0
C      1  0.4635150000000  0.4435560000000  0.4878330000000 1.0
C      1  0.4417240000000  0.5104000000000  0.5396080000000 1.0
C      1  0.4429590000000  0.4878100000000  0.4618870000000 1.0
C      1  0.5583470000000  0.4898810000000  0.5393870000000 1.0
C      1  0.5524270000000  0.4662430000000  0.5138040000000 1.0
C      1  0.5124820000000  0.5562490000000  0.4624370000000 1.0
C      1  0.4651540000000  0.5137250000000  0.5531900000000 1.0
C      1  0.4423110000000  0.4609410000000  0.4891240000000 1.0
C      1  0.5590360000000  0.5403290000000  0.4896780000000 1.0
C      1  0.4481180000000  0.5337420000000  0.5138990000000 1.0
C      1  0.4859940000000  0.5525440000000  0.5344870000000 1.0
C      1  0.5141940000000  0.4476850000000  0.5343290000000 1.0
C      1  0.4882560000000  0.4428680000000  0.4624310000000 1.0
C      1  0.5388990000000  0.5104850000000  0.4411330000000 1.0
C      1  0.4627500000000  0.4873590000000  0.4427510000000 1.0
C      1  0.5350550000000  0.4864280000000  0.5528170000000 1.0
C      1  0.5054780000000  0.5148810000000  0.5752380000000 1.0
C      1  0.5146640000000  0.5753790000000  0.5055470000000 1.0
C      1  0.5765800000000  0.5057390000000  0.5160370000000 1.0
C      1  0.4961810000000  0.5148910000000  0.4246800000000 1.0
C      1  0.4947560000000  0.4852270000000  0.5756550000000 1.0
C      1  0.5057590000000  0.4840690000000  0.4231500000000 1.0
C      1  0.4843830000000  0.5761730000000  0.4949260000000 1.0
C      1  0.4854650000000  0.4251440000000  0.5050580000000 1.0
C      1  0.5156910000000  0.4244430000000  0.4946010000000 1.0
C      1  0.4250920000000  0.5047160000000  0.4855310000000 1.0
C      1  0.4235040000000  0.4946700000000  0.5161230000000 1.0
C      1  0.5741690000000  0.4958840000000  0.4854200000000 1.0
C      1  0.5762590000000  0.5161510000000  0.5056060000000 1.0
C      1  0.5039430000000  0.5742390000000  0.5155510000000 1.0
C      1  0.5155270000000  0.5041340000000  0.5745600000000 1.0
C      1  0.4256260000000  0.5148360000000  0.4962880000000 1.0
C      1  0.5738920000000  0.4855670000000  0.4959610000000 1.0
C      1  0.4241650000000  0.4844660000000  0.5055260000000 1.0
C      1  0.4950980000000  0.5755710000000  0.4847680000000 1.0
C      1  0.5051700000000  0.4243890000000  0.4843120000000 1.0
C      1  0.4961950000000  0.4258870000000  0.5152240000000 1.0
C      1  0.4856080000000  0.5045480000000  0.4244860000000 1.0
C      1  0.5161840000000  0.4944530000000  0.4234130000000 1.0
C      1  0.4846640000000  0.4960390000000  0.5750930000000 1.0
C      1  0.4610600000000  0.5294390000000  0.4796130000000 1.0
C      1  0.5306940000000  0.4787820000000  0.4588650000000 1.0
C      1  0.4804840000000  0.4617760000000  0.5291510000000 1.0
C      1  0.5412150000000  0.5316560000000  0.5212640000000 1.0
C      1  0.5380800000000  0.4710110000000  0.4800540000000 1.0
C      1  0.4593480000000  0.4690760000000  0.5210870000000 1.0
C      1  0.4693600000000  0.4796350000000  0.5399660000000 1.0
C      1  0.4714380000000  0.5188260000000  0.4610770000000 1.0
C      1  0.5308420000000  0.5206640000000  0.5397610000000 1.0
C      1  0.5207640000000  0.4594860000000  0.4686850000000 1.0
C      1  0.5199010000000  0.5387060000000  0.5291250000000 1.0
C      1  0.4798340000000  0.5396700000000  0.4691080000000 1.0
C      1  0.4810740000000  0.5287620000000  0.4608870000000 1.0
C      1  0.4588690000000  0.4785430000000  0.5312360000000 1.0
C      1  0.5297860000000  0.4602400000000  0.4790970000000 1.0
C      1  0.5205500000000  0.5297950000000  0.5394490000000 1.0
C      1  0.4796830000000  0.4705340000000  0.5395980000000 1.0
C      1  0.5214060000000  0.4684450000000  0.4583610000000 1.0
C      1  0.5384220000000  0.4804190000000  0.4700050000000 1.0
C      1  0.4613130000000  0.5192200000000  0.4703050000000 1.0
C      1  0.5414430000000  0.5219330000000  0.5312050000000 1.0
C      1  0.4703920000000  0.4611090000000  0.5197880000000 1.0
C      1  0.5301990000000  0.5397030000000  0.5199410000000 1.0
C      1  0.4696620000000  0.5400760000000  0.4785130000000 1.0
C      1  0.5354420000000  0.5147680000000  0.5643650000000 1.0
C      1  0.5151210000000  0.5626720000000  0.5343630000000 1.0
C      1  0.5671020000000  0.5362860000000  0.5171520000000 1.0
C      1  0.4665870000000  0.5157480000000  0.4360240000000 1.0
C      1  0.4647960000000  0.4853550000000  0.5646650000000 1.0
C      1  0.5360770000000  0.4830850000000  0.4331110000000 1.0
C      1  0.4842330000000  0.5653790000000  0.4647610000000 1.0
C      1  0.4851100000000  0.4375860000000  0.5341060000000 1.0
C      1  0.5161700000000  0.4341800000000  0.4641970000000 1.0
C      1  0.4365520000000  0.5344090000000  0.4855640000000 1.0
C      1  0.4336610000000  0.4643660000000  0.5167930000000 1.0
C      1  0.5624780000000  0.4665260000000  0.4848330000000 1.0
C      1  0.5673800000000  0.5169620000000  0.5361690000000 1.0
C      1  0.5346080000000  0.5652260000000  0.5165580000000 1.0
C      1  0.5167070000000  0.5345070000000  0.5654540000000 1.0
C      1  0.4355490000000  0.5159690000000  0.4661080000000 1.0
C      1  0.5632000000000  0.4848070000000  0.4660190000000 1.0
C      1  0.4327890000000  0.4834460000000  0.5362190000000 1.0
C      1  0.4645930000000  0.5663090000000  0.4835080000000 1.0
C      1  0.5352250000000  0.4344780000000  0.4832400000000 1.0
C      1  0.4660110000000  0.4359240000000  0.5161720000000 1.0
C      1  0.4853750000000  0.5340680000000  0.4362720000000 1.0
C      1  0.5169580000000  0.4638360000000  0.4324750000000 1.0
C      1  0.4834590000000  0.4658180000000  0.5655740000000 1.0
C      1  0.5660830000000  0.4696800000000  0.5132860000000 1.0
C      1  0.4689370000000  0.5134700000000  0.5667800000000 1.0
C      1  0.5121600000000  0.5694640000000  0.4681460000000 1.0
C      1  0.4292590000000  0.4673890000000  0.4887240000000 1.0
C      1  0.4344130000000  0.5304720000000  0.5134680000000 1.0
C      1  0.5714850000000  0.5331790000000  0.4886730000000 1.0
C      1  0.5333320000000  0.5111950000000  0.4279880000000 1.0
C      1  0.5312010000000  0.4863700000000  0.5664930000000 1.0
C      1  0.4688300000000  0.4872650000000  0.4297840000000 1.0
C      1  0.4860800000000  0.5663070000000  0.5310960000000 1.0
C      1  0.4878580000000  0.4298990000000  0.4678290000000 1.0
C      1  0.5137110000000  0.4339990000000  0.5309420000000 1.0
C      1  0.5112370000000  0.4672260000000  0.5706600000000 1.0
C      1  0.5671050000000  0.5132370000000  0.4691320000000 1.0
C      1  0.4668920000000  0.5706450000000  0.5113490000000 1.0
C      1  0.4888470000000  0.4670470000000  0.4284390000000 1.0
C      1  0.5135100000000  0.5311380000000  0.4315320000000 1.0
C      1  0.4889450000000  0.5328880000000  0.5706340000000 1.0
C      1  0.4287360000000  0.5115490000000  0.5333930000000 1.0
C      1  0.5713330000000  0.4888200000000  0.5331470000000 1.0
C      1  0.4301280000000  0.4875960000000  0.4683290000000 1.0
C      1  0.5319100000000  0.5711770000000  0.4883920000000 1.0
C      1  0.4683980000000  0.4304370000000  0.4879850000000 1.0
C      1  0.5332050000000  0.4295770000000  0.5111810000000 1.0
C      1  0.4306160000000  0.4808930000000  0.5598180000000 1.0
C      1  0.4836580000000  0.5580170000000  0.4345900000000 1.0
C      1  0.5585690000000  0.4324740000000  0.4797250000000 1.0
C      1  0.5661840000000  0.4828570000000  0.4421490000000 1.0
C      1  0.5696500000000  0.5193810000000  0.5597330000000 1.0
C      1  0.4332210000000  0.5195210000000  0.4426760000000 1.0
C      1  0.5204290000000  0.5577730000000  0.5681750000000 1.0
C      1  0.5197500000000  0.4402420000000  0.4302510000000 1.0
C      1  0.4799000000000  0.4424570000000  0.5679870000000 1.0
C      1  0.4419240000000  0.4336140000000  0.5182110000000 1.0
C      1  0.4409520000000  0.5685160000000  0.4812580000000 1.0
C      1  0.5588170000000  0.5674900000000  0.5191930000000 1.0
C      1  0.5597020000000  0.4801310000000  0.4316770000000 1.0
C      1  0.4342540000000  0.5583110000000  0.4845500000000 1.0
C      1  0.4828290000000  0.4356130000000  0.5578180000000 1.0
C      1  0.4407310000000  0.4840380000000  0.5666880000000 1.0
C      1  0.5595050000000  0.5160930000000  0.5664910000000 1.0
C      1  0.4426540000000  0.5182860000000  0.4344520000000 1.0
C      1  0.5688410000000  0.5600250000000  0.5208410000000 1.0
C      1  0.4317510000000  0.4408060000000  0.5201000000000 1.0
C      1  0.5650680000000  0.4428390000000  0.4827750000000 1.0
C      1  0.5176440000000  0.4324990000000  0.4399710000000 1.0
C      1  0.4812500000000  0.5683000000000  0.4414830000000 1.0
C      1  0.5173760000000  0.5646190000000  0.5580450000000 1.0
C      1  0.4536960000000  0.4450430000000  0.5363850000000 1.0
C      1  0.4444950000000  0.5368050000000  0.4551510000000 1.0
C      1  0.5373690000000  0.4522220000000  0.4413900000000 1.0
C      1  0.5458870000000  0.4432480000000  0.4622580000000 1.0
C      1  0.5467430000000  0.5556470000000  0.5367550000000 1.0
C      1  0.4530010000000  0.5578830000000  0.4633220000000 1.0
C      1  0.5586390000000  0.5371800000000  0.5479320000000 1.0
C      1  0.5551930000000  0.4640800000000  0.4535820000000 1.0
C      1  0.4416590000000  0.4632130000000  0.5478460000000 1.0
C      1  0.4626160000000  0.4550310000000  0.5568010000000 1.0
C      1  0.4647140000000  0.5463300000000  0.4449930000000 1.0
C      1  0.5376760000000  0.5452490000000  0.5569110000000 1.0
C      1  0.5364610000000  0.4426790000000  0.4517850000000 1.0
C      1  0.4549690000000  0.5362530000000  0.4454890000000 1.0
C      1  0.4423640000000  0.4535030000000  0.5376110000000 1.0
C      1  0.4638660000000  0.4458790000000  0.5459800000000 1.0
C      1  0.5364800000000  0.5545630000000  0.5462210000000 1.0
C      1  0.4633170000000  0.5574820000000  0.4536220000000 1.0
C      1  0.5480090000000  0.5356630000000  0.5571220000000 1.0
C      1  0.4522530000000  0.4645790000000  0.5571040000000 1.0
C      1  0.5470180000000  0.4625040000000  0.4420780000000 1.0
C      1  0.5546170000000  0.4543920000000  0.4636770000000 1.0
C      1  0.4439950000000  0.5470780000000  0.4647460000000 1.0
C      1  0.5580210000000  0.5470620000000  0.5378730000000 1.0
C      1  0.4135800000000  0.5294150000000  0.5312190000000 1.0
C      1  0.5240430000000  0.5378950000000  0.4099900000000 1.0
C      1  0.5321120000000  0.4137750000000  0.5284850000000 1.0
C      1  0.5882560000000  0.5232760000000  0.4610990000000 1.0
C      1  0.5867970000000  0.4713140000000  0.5311880000000 1.0
C      1  0.4092650000000  0.4751350000000  0.4625630000000 1.0
C      1  0.4719980000000  0.5319260000000  0.5868520000000 1.0
C      1  0.4728510000000  0.4673770000000  0.4109760000000 1.0
C      1  0.5263200000000  0.4629240000000  0.5900810000000 1.0
C      1  0.4629820000000  0.4091320000000  0.4759830000000 1.0
C      1  0.4624310000000  0.5898310000000  0.5265500000000 1.0
C      1  0.5310640000000  0.5888550000000  0.4724490000000 1.0
C      1  0.5316960000000  0.5274690000000  0.4111780000000 1.0
C      1  0.4134800000000  0.5396970000000  0.5232360000000 1.0
C      1  0.5244910000000  0.4132060000000  0.5390300000000 1.0
C      1  0.4613490000000  0.5244570000000  0.5876620000000 1.0
C      1  0.5340710000000  0.4723730000000  0.5854180000000 1.0
C      1  0.4625560000000  0.4752020000000  0.4088100000000 1.0
C      1  0.5877260000000  0.5309850000000  0.4716230000000 1.0
C      1  0.4116050000000  0.4674160000000  0.4728990000000 1.0
C      1  0.5871040000000  0.4610210000000  0.5232200000000 1.0
C      1  0.4729420000000  0.4114980000000  0.4679940000000 1.0
C      1  0.5237370000000  0.5901970000000  0.4616830000000 1.0
C      1  0.4719880000000  0.5850440000000  0.5340840000000 1.0
C      1  0.4277380000000  0.5393080000000  0.5223690000000 1.0
C      1  0.5396290000000  0.5220570000000  0.4210950000000 1.0
C      1  0.5233240000000  0.4273720000000  0.5390610000000 1.0
C      1  0.5785610000000  0.5390000000000  0.4777520000000 1.0
C      1  0.5728860000000  0.4612140000000  0.5224430000000 1.0
C      1  0.4224950000000  0.4610960000000  0.4780690000000 1.0
C      1  0.4610050000000  0.5231980000000  0.5735000000000 1.0
C      1  0.4619140000000  0.4770910000000  0.4227150000000 1.0
C      1  0.5390930000000  0.4765020000000  0.5731970000000 1.0
C      1  0.4777300000000  0.4223910000000  0.4609150000000 1.0
C      1  0.4762210000000  0.5728670000000  0.5391010000000 1.0
C      1  0.5221910000000  0.5764010000000  0.4610610000000 1.0
C      1  0.5227520000000  0.5391490000000  0.4240900000000 1.0
C      1  0.4224520000000  0.5229090000000  0.5393170000000 1.0
C      1  0.5397430000000  0.4231090000000  0.5220860000000 1.0
C      1  0.4781980000000  0.5394400000000  0.5773180000000 1.0
C      1  0.5221320000000  0.4606450000000  0.5769300000000 1.0
C      1  0.4781120000000  0.4608720000000  0.4217280000000 1.0
C      1  0.5741870000000  0.5226060000000  0.4613570000000 1.0
C      1  0.4231190000000  0.4771770000000  0.4616830000000 1.0
C      1  0.5777530000000  0.4776470000000  0.5392290000000 1.0
C      1  0.4611740000000  0.4230930000000  0.4781270000000 1.0
C      1  0.5378800000000  0.5783110000000  0.4777520000000 1.0
C      1  0.4602000000000  0.5766880000000  0.5222710000000 1.0
C      1  0.4233610000000  0.4841850000000  0.5260470000000 1.0
C      1  0.4859330000000  0.5251280000000  0.4256380000000 1.0
C      1  0.5255820000000  0.4245610000000  0.4840340000000 1.0
C      1  0.5734470000000  0.4853720000000  0.4754150000000 1.0
C      1  0.5768870000000  0.5161350000000  0.5260750000000 1.0
C      1  0.4258030000000  0.5154860000000  0.4759360000000 1.0
C      1  0.5162590000000  0.5244870000000  0.5750020000000 1.0
C      1  0.5161730000000  0.4739600000000  0.4230230000000 1.0
C      1  0.4839390000000  0.4757110000000  0.5752760000000 1.0
C      1  0.4756580000000  0.4259040000000  0.5157790000000 1.0
C      1  0.4746420000000  0.5758430000000  0.4842800000000 1.0
C      1  0.5245430000000  0.5748430000000  0.5162820000000 1.0
C      1  0.5262640000000  0.4840050000000  0.4233440000000 1.0
C      1  0.4261060000000  0.5253070000000  0.4862750000000 1.0
C      1  0.4860230000000  0.4266650000000  0.5255600000000 1.0
C      1  0.4741390000000  0.4860480000000  0.5749170000000 1.0
C      1  0.5260410000000  0.5141730000000  0.5745250000000 1.0
C      1  0.4757300000000  0.5151900000000  0.4255740000000 1.0
C      1  0.5766340000000  0.5262600000000  0.5160420000000 1.0
C      1  0.4239870000000  0.4742380000000  0.5158780000000 1.0
C      1  0.5731570000000  0.4753760000000  0.4856410000000 1.0
C      1  0.5154740000000  0.4243710000000  0.4739910000000 1.0
C      1  0.4849360000000  0.5751810000000  0.4744930000000 1.0
C      1  0.5141290000000  0.5736320000000  0.5259390000000 1.0
C      1  0.4874730000000  0.5546350000000  0.4872010000000 1.0
C      1  0.5124770000000  0.4454270000000  0.4870250000000 1.0
C      1  0.5120680000000  0.5535620000000  0.5115040000000 1.0
C      1  0.5555880000000  0.5137050000000  0.5131870000000 1.0
C      1  0.5124100000000  0.5121800000000  0.5538040000000 1.0
C      1  0.4883490000000  0.4469580000000  0.5114080000000 1.0
C      1  0.4466600000000  0.5112380000000  0.4881240000000 1.0
C      1  0.4447270000000  0.4869380000000  0.5132330000000 1.0
C      1  0.5523450000000  0.4888350000000  0.4880490000000 1.0
C      1  0.4890990000000  0.5110280000000  0.4460220000000 1.0
C      1  0.4878030000000  0.4881190000000  0.5541870000000 1.0
C      1  0.5131670000000  0.4865910000000  0.4441800000000 1.0
C      1  0.5383550000000  0.5324590000000  0.4546180000000 1.0
C      1  0.5386290000000  0.4619940000000  0.5382100000000 1.0
C      1  0.4617650000000  0.5379280000000  0.5385850000000 1.0
C      1  0.4658450000000  0.4540500000000  0.4651460000000 1.0
END
