TITL C-1379265-1223-320 -8.01740496193003e-08 1000000 -3318.1710161124 0 0 460 (C1) n - 1
REM
REM in /nfs/bkarasulu/CARBON/AIRSS/Generating-Clusters/GAP-ML-2020/Higher-Symm/Selected-Sizes/TryA-Only_Ih-Symm/Larger-Clusters/Try2-MINAMP_6A
REM
REM
REM
REM
REM
REM ./C.cell (31579ac4e95a012ec27f3239692ae8a5)
REM
REM compiler GCC version 9.2.1 20190827 (Red Hat 9.2.1-1)
REM options -cpp -mtune=generic -march=x86-64 -g -O0 -fpre-include=/usr/include/finclude/math-vector-fortran.h
REM seed -127904584 -1340661695 58426714 1209386616 -621759854 -1527179851 1847553125 -1483370516 -1653167260 -1550582156 1405355655 727835246 -779689659 1324947274 173677093 -1995315579 -1376426219 -2016067860 352047915 1873251647 1947869169 800530620 -1148177387 466124531 151709419 -90850046 898858385 73143268 413352061 1872891135 -1741996773 1204310143 141876839
REM
CELL 1.54180  100.00000  100.00000  100.00000   90.00000   90.00000   90.00000
LATT -1
SFAC C  
C      1  0.5828620000000  0.4749580000000  0.4852690000000 1.0
C      1  0.4746860000000  0.4844470000000  0.5813680000000 1.0
C      1  0.4859580000000  0.5796090000000  0.4756530000000 1.0
C      1  0.5814970000000  0.5260210000000  0.5155790000000 1.0
C      1  0.4193380000000  0.4750070000000  0.5154620000000 1.0
C      1  0.4186020000000  0.5249750000000  0.4854880000000 1.0
C      1  0.4754350000000  0.5153040000000  0.4193780000000 1.0
C      1  0.5247150000000  0.4859340000000  0.4187560000000 1.0
C      1  0.5260450000000  0.5171190000000  0.5805940000000 1.0
C      1  0.4882210000000  0.4175800000000  0.5266060000000 1.0
C      1  0.5158530000000  0.5822990000000  0.5262490000000 1.0
C      1  0.5147990000000  0.4204250000000  0.4753240000000 1.0
C      1  0.5816880000000  0.4846110000000  0.4747020000000 1.0
C      1  0.4755910000000  0.5798270000000  0.4862280000000 1.0
C      1  0.4862940000000  0.4760510000000  0.5815130000000 1.0
C      1  0.5812910000000  0.5160420000000  0.5259010000000 1.0
C      1  0.4201180000000  0.5144830000000  0.4759690000000 1.0
C      1  0.4199700000000  0.4856620000000  0.5253880000000 1.0
C      1  0.4783530000000  0.4146300000000  0.5179040000000 1.0
C      1  0.5253660000000  0.4212790000000  0.4858100000000 1.0
C      1  0.5260020000000  0.5811320000000  0.5161220000000 1.0
C      1  0.4856730000000  0.5253080000000  0.4182440000000 1.0
C      1  0.5145150000000  0.5255310000000  0.5808420000000 1.0
C      1  0.5153510000000  0.4753570000000  0.4177650000000 1.0
C      1  0.5059630000000  0.5264790000000  0.4557120000000 1.0
C      1  0.5249360000000  0.4549520000000  0.5041300000000 1.0
C      1  0.4549690000000  0.5088290000000  0.5255170000000 1.0
C      1  0.5039450000000  0.4747780000000  0.5439170000000 1.0
C      1  0.4956860000000  0.5258170000000  0.5452270000000 1.0
C      1  0.4937550000000  0.4713470000000  0.4553250000000 1.0
C      1  0.5250940000000  0.5447240000000  0.4957640000000 1.0
C      1  0.4725660000000  0.4523820000000  0.4946750000000 1.0
C      1  0.4773880000000  0.5469140000000  0.5062640000000 1.0
C      1  0.4570650000000  0.4939220000000  0.4768330000000 1.0
C      1  0.5448970000000  0.5075530000000  0.4750560000000 1.0
C      1  0.5446270000000  0.4919700000000  0.5254920000000 1.0
C      1  0.5033110000000  0.4550500000000  0.5240450000000 1.0
C      1  0.5251350000000  0.5063830000000  0.4556220000000 1.0
C      1  0.4553270000000  0.5298090000000  0.5069290000000 1.0
C      1  0.5046570000000  0.5452130000000  0.4749840000000 1.0
C      1  0.4956340000000  0.5455510000000  0.5272100000000 1.0
C      1  0.4944540000000  0.4529810000000  0.4771410000000 1.0
C      1  0.5255100000000  0.4927540000000  0.5441320000000 1.0
C      1  0.4760780000000  0.4922180000000  0.4569270000000 1.0
C      1  0.4743310000000  0.5081280000000  0.5451350000000 1.0
C      1  0.4557640000000  0.4726900000000  0.4957840000000 1.0
C      1  0.5449220000000  0.4733100000000  0.5061760000000 1.0
C      1  0.5444480000000  0.5257750000000  0.4940870000000 1.0
C      1  0.5393310000000  0.5155200000000  0.5758790000000 1.0
C      1  0.5117010000000  0.5767630000000  0.5388650000000 1.0
C      1  0.5771450000000  0.5393190000000  0.5137860000000 1.0
C      1  0.5384390000000  0.4873140000000  0.4226460000000 1.0
C      1  0.4618890000000  0.5138560000000  0.4235160000000 1.0
C      1  0.4613720000000  0.4866780000000  0.5766090000000 1.0
C      1  0.5124190000000  0.4262880000000  0.4624110000000 1.0
C      1  0.4880870000000  0.5742390000000  0.4624790000000 1.0
C      1  0.4900660000000  0.4247530000000  0.5393590000000 1.0
C      1  0.5784510000000  0.4620760000000  0.4893120000000 1.0
C      1  0.4237030000000  0.5380780000000  0.4884930000000 1.0
C      1  0.4250270000000  0.4622210000000  0.5116850000000 1.0
C      1  0.5393760000000  0.5759860000000  0.5147180000000 1.0
C      1  0.5121390000000  0.5383430000000  0.5754940000000 1.0
C      1  0.5771280000000  0.5146800000000  0.5393400000000 1.0
C      1  0.5386360000000  0.4264720000000  0.4879460000000 1.0
C      1  0.4608180000000  0.4219050000000  0.5054600000000 1.0
C      1  0.4626330000000  0.5742420000000  0.4885840000000 1.0
C      1  0.5121010000000  0.4623920000000  0.4230160000000 1.0
C      1  0.4890730000000  0.4632620000000  0.5762170000000 1.0
C      1  0.4900260000000  0.5381440000000  0.4230330000000 1.0
C      1  0.5771220000000  0.4862640000000  0.4612530000000 1.0
C      1  0.4246870000000  0.4872470000000  0.5387340000000 1.0
C      1  0.4255200000000  0.5131280000000  0.4629620000000 1.0
C      1  0.4853910000000  0.5420620000000  0.5701320000000 1.0
C      1  0.5426440000000  0.5685030000000  0.4874200000000 1.0
C      1  0.5714200000000  0.4879860000000  0.5433330000000 1.0
C      1  0.4862930000000  0.4562860000000  0.4287620000000 1.0
C      1  0.5157770000000  0.5425200000000  0.4311380000000 1.0
C      1  0.5157390000000  0.4599600000000  0.5700690000000 1.0
C      1  0.5435150000000  0.4324050000000  0.5147890000000 1.0
C      1  0.4575440000000  0.5699030000000  0.5152340000000 1.0
C      1  0.4560740000000  0.4292640000000  0.4823180000000 1.0
C      1  0.5704210000000  0.5128060000000  0.4574280000000 1.0
C      1  0.4324630000000  0.4872440000000  0.4580410000000 1.0
C      1  0.4295690000000  0.5141040000000  0.5433490000000 1.0
C      1  0.4855760000000  0.5690630000000  0.5435740000000 1.0
C      1  0.5440550000000  0.4885960000000  0.5701450000000 1.0
C      1  0.5703980000000  0.5423000000000  0.4870350000000 1.0
C      1  0.4856290000000  0.4299640000000  0.4574530000000 1.0
C      1  0.5161380000000  0.4326250000000  0.5426130000000 1.0
C      1  0.5152570000000  0.5692750000000  0.4585420000000 1.0
C      1  0.5427730000000  0.5129040000000  0.4316950000000 1.0
C      1  0.4566330000000  0.5136700000000  0.5702110000000 1.0
C      1  0.4579720000000  0.4872010000000  0.4297680000000 1.0
C      1  0.5713890000000  0.4584520000000  0.5154470000000 1.0
C      1  0.4309030000000  0.4570780000000  0.4851070000000 1.0
C      1  0.4292070000000  0.5442720000000  0.5148110000000 1.0
C      1  0.5095780000000  0.5613850000000  0.5177220000000 1.0
C      1  0.5614300000000  0.5165740000000  0.5070480000000 1.0
C      1  0.5173370000000  0.5067720000000  0.5606670000000 1.0
C      1  0.5024850000000  0.4328370000000  0.4892880000000 1.0
C      1  0.4971820000000  0.5658720000000  0.4869630000000 1.0
C      1  0.4957810000000  0.4340250000000  0.5132140000000 1.0
C      1  0.5622920000000  0.4829970000000  0.4939680000000 1.0
C      1  0.4403670000000  0.5170680000000  0.4927540000000 1.0
C      1  0.4391740000000  0.4856620000000  0.5077710000000 1.0
C      1  0.5131960000000  0.4965460000000  0.4361390000000 1.0
C      1  0.4840010000000  0.5054420000000  0.4394460000000 1.0
C      1  0.4833110000000  0.4936230000000  0.5608020000000 1.0
C      1  0.5049180000000  0.5129920000000  0.5641720000000 1.0
C      1  0.5615950000000  0.5055560000000  0.5172230000000 1.0
C      1  0.5155370000000  0.5646880000000  0.5049940000000 1.0
C      1  0.5082420000000  0.4835320000000  0.4399810000000 1.0
C      1  0.4957900000000  0.4872250000000  0.5639720000000 1.0
C      1  0.4935800000000  0.5169910000000  0.4389110000000 1.0
C      1  0.5616480000000  0.4939160000000  0.4837470000000 1.0
C      1  0.4356510000000  0.4989330000000  0.5121740000000 1.0
C      1  0.4371610000000  0.5036600000000  0.4881430000000 1.0
C      1  0.5136690000000  0.4339630000000  0.4967550000000 1.0
C      1  0.4820570000000  0.4360170000000  0.5086130000000 1.0
C      1  0.4900580000000  0.5668090000000  0.4983640000000 1.0
C      1  0.5419880000000  0.5446280000000  0.5285500000000 1.0
C      1  0.5522410000000  0.5203980000000  0.5413590000000 1.0
C      1  0.5269170000000  0.5433900000000  0.5534810000000 1.0
C      1  0.5451030000000  0.4476080000000  0.4736830000000 1.0
C      1  0.4567220000000  0.5511590000000  0.4767860000000 1.0
C      1  0.4591310000000  0.4371950000000  0.5246920000000 1.0
C      1  0.5531550000000  0.4794580000000  0.4604470000000 1.0
C      1  0.4506370000000  0.5220860000000  0.4580560000000 1.0
C      1  0.4496700000000  0.4791180000000  0.5422740000000 1.0
C      1  0.5161330000000  0.4611440000000  0.4488060000000 1.0
C      1  0.4754240000000  0.5417190000000  0.4434350000000 1.0
C      1  0.4741340000000  0.4582600000000  0.5548550000000 1.0
C      1  0.5422040000000  0.5196220000000  0.5514620000000 1.0
C      1  0.5538500000000  0.5389830000000  0.5234240000000 1.0
C      1  0.5263510000000  0.5555000000000  0.5423010000000 1.0
C      1  0.5415380000000  0.4745800000000  0.4551730000000 1.0
C      1  0.4588460000000  0.4808190000000  0.5526230000000 1.0
C      1  0.4592420000000  0.5191410000000  0.4473770000000 1.0
C      1  0.5578280000000  0.4579750000000  0.4749280000000 1.0
C      1  0.4475800000000  0.4649250000000  0.5173980000000 1.0
C      1  0.4492560000000  0.5394620000000  0.4842650000000 1.0
C      1  0.5241010000000  0.4496750000000  0.4561280000000 1.0
C      1  0.4742480000000  0.4462910000000  0.5440830000000 1.0
C      1  0.4742680000000  0.5526390000000  0.4559160000000 1.0
C      1  0.4280530000000  0.4997790000000  0.5460800000000 1.0
C      1  0.5022850000000  0.5456470000000  0.4276590000000 1.0
C      1  0.5460650000000  0.4296980000000  0.5008260000000 1.0
C      1  0.4297800000000  0.5013280000000  0.4553070000000 1.0
C      1  0.5722770000000  0.4984820000000  0.4540460000000 1.0
C      1  0.5734890000000  0.5021990000000  0.5465340000000 1.0
C      1  0.5019520000000  0.4568320000000  0.5720980000000 1.0
C      1  0.4993530000000  0.5451580000000  0.5718360000000 1.0
C      1  0.5005430000000  0.4536160000000  0.4262840000000 1.0
C      1  0.5453450000000  0.5711200000000  0.5015440000000 1.0
C      1  0.4518130000000  0.4264280000000  0.4953680000000 1.0
C      1  0.4546880000000  0.5717430000000  0.5011300000000 1.0
C      1  0.4270380000000  0.5466170000000  0.5002800000000 1.0
C      1  0.5025390000000  0.4296020000000  0.5458450000000 1.0
C      1  0.5454960000000  0.4988270000000  0.4290170000000 1.0
C      1  0.4286690000000  0.4542820000000  0.4994750000000 1.0
C      1  0.5740370000000  0.4550000000000  0.5018310000000 1.0
C      1  0.5723970000000  0.5457340000000  0.5011350000000 1.0
C      1  0.5012210000000  0.5712020000000  0.4554680000000 1.0
C      1  0.4993400000000  0.5723000000000  0.5464550000000 1.0
C      1  0.4997890000000  0.4286170000000  0.4545330000000 1.0
C      1  0.5468870000000  0.5029100000000  0.5726550000000 1.0
C      1  0.4549370000000  0.5015160000000  0.4281420000000 1.0
C      1  0.4538340000000  0.4992990000000  0.5728930000000 1.0
C      1  0.5416570000000  0.5530160000000  0.5409790000000 1.0
C      1  0.5649640000000  0.5544160000000  0.5351140000000 1.0
C      1  0.5512360000000  0.5362690000000  0.5595380000000 1.0
C      1  0.5372720000000  0.4498090000000  0.4494970000000 1.0
C      1  0.4592570000000  0.5515670000000  0.4532090000000 1.0
C      1  0.4592230000000  0.4466800000000  0.5460490000000 1.0
C      1  0.5595920000000  0.4556900000000  0.4597990000000 1.0
C      1  0.4372390000000  0.5456670000000  0.4648950000000 1.0
C      1  0.4381680000000  0.4494180000000  0.5337930000000 1.0
C      1  0.5469360000000  0.4634540000000  0.4313360000000 1.0
C      1  0.4497770000000  0.5364470000000  0.4353710000000 1.0
C      1  0.4490690000000  0.4653370000000  0.5612650000000 1.0
C      1  0.5417880000000  0.5450870000000  0.5535430000000 1.0
C      1  0.5642530000000  0.5363240000000  0.5527490000000 1.0
C      1  0.5520790000000  0.5617400000000  0.5342640000000 1.0
C      1  0.5355280000000  0.4552650000000  0.4364230000000 1.0
C      1  0.4589830000000  0.4562760000000  0.5563770000000 1.0
C      1  0.4604030000000  0.5437710000000  0.4417070000000 1.0
C      1  0.5654800000000  0.4636130000000  0.4493230000000 1.0
C      1  0.4367380000000  0.4655490000000  0.5530280000000 1.0
C      1  0.4331230000000  0.5374410000000  0.4531610000000 1.0
C      1  0.5477750000000  0.4483820000000  0.4584710000000 1.0
C      1  0.4515060000000  0.4432900000000  0.5350630000000 1.0
C      1  0.4502760000000  0.5510170000000  0.4636280000000 1.0
C      1  0.4479140000000  0.5183490000000  0.5049990000000 1.0
C      1  0.5148740000000  0.5063920000000  0.4462120000000 1.0
C      1  0.5046780000000  0.4452090000000  0.5142070000000 1.0
C      1  0.4483350000000  0.4842410000000  0.4967710000000 1.0
C      1  0.5533110000000  0.5152940000000  0.4951970000000 1.0
C      1  0.5538160000000  0.4838080000000  0.5055680000000 1.0
C      1  0.5153070000000  0.4942910000000  0.5530250000000 1.0
C      1  0.4849780000000  0.5061580000000  0.5534290000000 1.0
C      1  0.4864570000000  0.4931690000000  0.4478970000000 1.0
C      1  0.5058950000000  0.5549130000000  0.4850130000000 1.0
C      1  0.4933380000000  0.4435660000000  0.4874380000000 1.0
C      1  0.4974390000000  0.5537750000000  0.5166040000000 1.0
C      1  0.4462380000000  0.5086990000000  0.5145350000000 1.0
C      1  0.5150900000000  0.4451730000000  0.5051960000000 1.0
C      1  0.5053150000000  0.5160190000000  0.4469940000000 1.0
C      1  0.4476950000000  0.4939270000000  0.4871200000000 1.0
C      1  0.5537580000000  0.4933280000000  0.5152750000000 1.0
C      1  0.5536920000000  0.5060150000000  0.4855080000000 1.0
C      1  0.5155130000000  0.5546570000000  0.4949540000000 1.0
C      1  0.4881100000000  0.5557560000000  0.5070940000000 1.0
C      1  0.4829870000000  0.4437490000000  0.4962400000000 1.0
C      1  0.5051270000000  0.4851120000000  0.5535500000000 1.0
C      1  0.4959600000000  0.4831890000000  0.4481680000000 1.0
C      1  0.4952480000000  0.5150110000000  0.5539770000000 1.0
C      1  0.5496690000000  0.4428570000000  0.5221910000000 1.0
C      1  0.4394430000000  0.5217460000000  0.5498710000000 1.0
C      1  0.5230630000000  0.5488170000000  0.4413390000000 1.0
C      1  0.5489990000000  0.5582160000000  0.4798900000000 1.0
C      1  0.4503090000000  0.4398750000000  0.4753520000000 1.0
C      1  0.4506350000000  0.5601230000000  0.5229230000000 1.0
C      1  0.4428560000000  0.4801320000000  0.4516810000000 1.0
C      1  0.5602990000000  0.5206500000000  0.4516100000000 1.0
C      1  0.5609290000000  0.4808460000000  0.5494200000000 1.0
C      1  0.5229310000000  0.4536140000000  0.5598190000000 1.0
C      1  0.4776280000000  0.5485630000000  0.5603610000000 1.0
C      1  0.4789950000000  0.4504200000000  0.4392640000000 1.0
C      1  0.5493660000000  0.5207030000000  0.4415160000000 1.0
C      1  0.4394710000000  0.5500950000000  0.5226570000000 1.0
C      1  0.5227170000000  0.4435100000000  0.5487690000000 1.0
C      1  0.5502350000000  0.4811420000000  0.5598860000000 1.0
C      1  0.4525420000000  0.4797490000000  0.4403610000000 1.0
C      1  0.4502460000000  0.5214770000000  0.5602180000000 1.0
C      1  0.4406830000000  0.4511950000000  0.4768250000000 1.0
C      1  0.5609620000000  0.4525950000000  0.5226390000000 1.0
C      1  0.5601600000000  0.5482780000000  0.4795740000000 1.0
C      1  0.5228010000000  0.5590310000000  0.4522870000000 1.0
C      1  0.4780250000000  0.5587710000000  0.5495380000000 1.0
C      1  0.4781090000000  0.4397310000000  0.4499800000000 1.0
C      1  0.5265860000000  0.5378440000000  0.4836150000000 1.0
C      1  0.5370140000000  0.4803460000000  0.5275010000000 1.0
C      1  0.4836780000000  0.5287840000000  0.5382060000000 1.0
C      1  0.5257810000000  0.4622130000000  0.5162120000000 1.0
C      1  0.4741490000000  0.5397220000000  0.5181530000000 1.0
C      1  0.4720990000000  0.4606360000000  0.4833590000000 1.0
C      1  0.5373740000000  0.5190220000000  0.4725370000000 1.0
C      1  0.4636830000000  0.4816460000000  0.4745480000000 1.0
C      1  0.4625460000000  0.5206830000000  0.5281930000000 1.0
C      1  0.4824210000000  0.4700030000000  0.4636820000000 1.0
C      1  0.5173770000000  0.5282900000000  0.4633940000000 1.0
C      1  0.5154960000000  0.4721900000000  0.5361370000000 1.0
C      1  0.5266780000000  0.4807310000000  0.5370080000000 1.0
C      1  0.5368490000000  0.5284060000000  0.4827160000000 1.0
C      1  0.4836840000000  0.5387100000000  0.5284380000000 1.0
C      1  0.5273240000000  0.5184640000000  0.4627410000000 1.0
C      1  0.4726370000000  0.5201420000000  0.5381770000000 1.0
C      1  0.4733380000000  0.4806280000000  0.4643440000000 1.0
C      1  0.5364580000000  0.4711890000000  0.5171010000000 1.0
C      1  0.4630150000000  0.4712070000000  0.4838840000000 1.0
C      1  0.4632600000000  0.5308090000000  0.5184800000000 1.0
C      1  0.4825640000000  0.4602390000000  0.4739710000000 1.0
C      1  0.5151760000000  0.4625700000000  0.5258010000000 1.0
C      1  0.5166580000000  0.5378680000000  0.4736030000000 1.0
C      1  0.4521130000000  0.4845160000000  0.5295440000000 1.0
C      1  0.4832960000000  0.5275720000000  0.4481580000000 1.0
C      1  0.5314620000000  0.4529720000000  0.4793850000000 1.0
C      1  0.4541240000000  0.5181670000000  0.4711480000000 1.0
C      1  0.5517310000000  0.4850210000000  0.4738450000000 1.0
C      1  0.5511900000000  0.5147850000000  0.5275340000000 1.0
C      1  0.4790750000000  0.4710950000000  0.5470290000000 1.0
C      1  0.5210180000000  0.5295770000000  0.5474860000000 1.0
C      1  0.5188200000000  0.4756380000000  0.4475840000000 1.0
C      1  0.5303020000000  0.5460620000000  0.5207410000000 1.0
C      1  0.4717280000000  0.4449030000000  0.5181650000000 1.0
C      1  0.4712550000000  0.5477690000000  0.4801870000000 1.0
C      1  0.4482980000000  0.5248140000000  0.4820630000000 1.0
C      1  0.4786090000000  0.4511360000000  0.5302000000000 1.0
C      1  0.5299140000000  0.4816890000000  0.4537500000000 1.0
C      1  0.4450820000000  0.4786100000000  0.5192950000000 1.0
C      1  0.5529230000000  0.4721390000000  0.4836970000000 1.0
C      1  0.5517860000000  0.5262890000000  0.5164440000000 1.0
C      1  0.4797440000000  0.5472550000000  0.4694670000000 1.0
C      1  0.5186040000000  0.5515540000000  0.5282440000000 1.0
C      1  0.5207290000000  0.4528410000000  0.4707710000000 1.0
C      1  0.5275470000000  0.5161380000000  0.5501660000000 1.0
C      1  0.4733210000000  0.5147880000000  0.4494800000000 1.0
C      1  0.4730380000000  0.4846890000000  0.5504250000000 1.0
C      1  0.5767720000000  0.4817000000000  0.5311420000000 1.0
C      1  0.4799410000000  0.5298620000000  0.5757130000000 1.0
C      1  0.5312730000000  0.5751170000000  0.4811260000000 1.0
C      1  0.5758420000000  0.5192110000000  0.4698750000000 1.0
C      1  0.4262870000000  0.4807330000000  0.4697050000000 1.0
C      1  0.4237560000000  0.5206270000000  0.5314040000000 1.0
C      1  0.4805840000000  0.4692790000000  0.4245940000000 1.0
C      1  0.5209740000000  0.5303510000000  0.4258710000000 1.0
C      1  0.5211590000000  0.4720520000000  0.5757180000000 1.0
C      1  0.5323630000000  0.4257690000000  0.5206490000000 1.0
C      1  0.4696140000000  0.5758990000000  0.5210060000000 1.0
C      1  0.4691010000000  0.4237300000000  0.4795310000000 1.0
C      1  0.5756560000000  0.5299460000000  0.4809140000000 1.0
C      1  0.4803710000000  0.5748250000000  0.5315400000000 1.0
C      1  0.5319680000000  0.4824660000000  0.5756130000000 1.0
C      1  0.5765680000000  0.4708520000000  0.5206960000000 1.0
C      1  0.4261610000000  0.4696180000000  0.4800760000000 1.0
C      1  0.4245410000000  0.5316520000000  0.5205340000000 1.0
C      1  0.4801290000000  0.4234770000000  0.4695330000000 1.0
C      1  0.5215550000000  0.4263180000000  0.5308940000000 1.0
C      1  0.5210510000000  0.5756130000000  0.4702000000000 1.0
C      1  0.5311500000000  0.5193840000000  0.4256010000000 1.0
C      1  0.4688960000000  0.5195170000000  0.5754720000000 1.0
C      1  0.4700370000000  0.4805840000000  0.4241690000000 1.0
C      1  0.5765410000000  0.5036610000000  0.5199740000000 1.0
C      1  0.5025360000000  0.5177050000000  0.5774320000000 1.0
C      1  0.5197820000000  0.5781000000000  0.5030810000000 1.0
C      1  0.5763050000000  0.4967960000000  0.4803480000000 1.0
C      1  0.4241390000000  0.5022230000000  0.4825870000000 1.0
C      1  0.4231120000000  0.4986230000000  0.5190420000000 1.0
C      1  0.5039150000000  0.4784720000000  0.4257150000000 1.0
C      1  0.4975370000000  0.5200630000000  0.4243070000000 1.0
C      1  0.4983560000000  0.4835770000000  0.5776110000000 1.0
C      1  0.5198200000000  0.4212540000000  0.4989750000000 1.0
C      1  0.4820170000000  0.5785520000000  0.4990650000000 1.0
C      1  0.4753820000000  0.4208520000000  0.5051180000000 1.0
C      1  0.5763290000000  0.5194650000000  0.5036210000000 1.0
C      1  0.5038780000000  0.5763070000000  0.5216460000000 1.0
C      1  0.5219770000000  0.5045250000000  0.5752900000000 1.0
C      1  0.5770440000000  0.4804160000000  0.4973070000000 1.0
C      1  0.4250780000000  0.4801230000000  0.5035070000000 1.0
C      1  0.4251940000000  0.5211580000000  0.4974220000000 1.0
C      1  0.5018900000000  0.4206890000000  0.4820060000000 1.0
C      1  0.4997800000000  0.4215260000000  0.5186530000000 1.0
C      1  0.4991220000000  0.5791260000000  0.4814080000000 1.0
C      1  0.5181020000000  0.4980930000000  0.4230340000000 1.0
C      1  0.4785930000000  0.4967490000000  0.5752570000000 1.0
C      1  0.4811080000000  0.5028760000000  0.4246380000000 1.0
C      1  0.5195970000000  0.5676520000000  0.5473840000000 1.0
C      1  0.5665900000000  0.5472510000000  0.5217500000000 1.0
C      1  0.5474420000000  0.5229720000000  0.5650300000000 1.0
C      1  0.5190560000000  0.4357710000000  0.4534130000000 1.0
C      1  0.4812580000000  0.5655020000000  0.4529140000000 1.0
C      1  0.4824090000000  0.4338690000000  0.5479880000000 1.0
C      1  0.5697240000000  0.4531550000000  0.4820060000000 1.0
C      1  0.4343280000000  0.5452870000000  0.4802190000000 1.0
C      1  0.4362580000000  0.4542160000000  0.5193150000000 1.0
C      1  0.5480590000000  0.4778060000000  0.4281890000000 1.0
C      1  0.4536440000000  0.5221450000000  0.4334760000000 1.0
C      1  0.4530050000000  0.4789580000000  0.5661190000000 1.0
C      1  0.5194890000000  0.5468750000000  0.5662950000000 1.0
C      1  0.5664180000000  0.5224530000000  0.5472760000000 1.0
C      1  0.5496900000000  0.5689670000000  0.5223760000000 1.0
C      1  0.5204180000000  0.4552740000000  0.4337090000000 1.0
C      1  0.4820220000000  0.4546270000000  0.5670730000000 1.0
C      1  0.4826060000000  0.5468450000000  0.4317950000000 1.0
C      1  0.5672720000000  0.4778810000000  0.4533380000000 1.0
C      1  0.4347660000000  0.4794190000000  0.5475610000000 1.0
C      1  0.4347490000000  0.5222720000000  0.4547280000000 1.0
C      1  0.5483060000000  0.4348560000000  0.4808120000000 1.0
C      1  0.4533290000000  0.4287100000000  0.5154600000000 1.0
C      1  0.4536850000000  0.5648930000000  0.4817980000000 1.0
C      1  0.5555840000000  0.4893690000000  0.4341930000000 1.0
C      1  0.4943760000000  0.4365410000000  0.5558080000000 1.0
C      1  0.4338580000000  0.5559680000000  0.4915370000000 1.0
C      1  0.5569920000000  0.5107750000000  0.5661480000000 1.0
C      1  0.4437550000000  0.4913180000000  0.5665090000000 1.0
C      1  0.4450710000000  0.5096920000000  0.4351680000000 1.0
C      1  0.4934960000000  0.5646780000000  0.4448640000000 1.0
C      1  0.5078990000000  0.4353930000000  0.4440670000000 1.0
C      1  0.5079360000000  0.5654670000000  0.5558560000000 1.0
C      1  0.4357020000000  0.4445250000000  0.5073880000000 1.0
C      1  0.5651950000000  0.5553310000000  0.5090620000000 1.0
C      1  0.5671490000000  0.4449790000000  0.4936700000000 1.0
C      1  0.5566620000000  0.4357430000000  0.4928900000000 1.0
C      1  0.4939420000000  0.5554030000000  0.4344120000000 1.0
C      1  0.4344070000000  0.4917690000000  0.5563910000000 1.0
C      1  0.5560410000000  0.5655620000000  0.5093900000000 1.0
C      1  0.4442910000000  0.5651840000000  0.4928960000000 1.0
C      1  0.4433170000000  0.4328750000000  0.5055570000000 1.0
C      1  0.4941670000000  0.4467720000000  0.5650530000000 1.0
C      1  0.5092510000000  0.4444630000000  0.4334450000000 1.0
C      1  0.5075180000000  0.5551650000000  0.5650510000000 1.0
C      1  0.4355020000000  0.5100870000000  0.4451600000000 1.0
C      1  0.5667450000000  0.5102270000000  0.5565740000000 1.0
C      1  0.5655740000000  0.4898730000000  0.4440670000000 1.0
C      1  0.5444220000000  0.4491600000000  0.5341540000000 1.0
C      1  0.4439860000000  0.5350640000000  0.5455220000000 1.0
C      1  0.5354200000000  0.5433390000000  0.4468030000000 1.0
C      1  0.5444940000000  0.5527730000000  0.4671830000000 1.0
C      1  0.4562210000000  0.4463530000000  0.4638780000000 1.0
C      1  0.4554770000000  0.5539260000000  0.5351920000000 1.0
C      1  0.4482970000000  0.4674720000000  0.4562830000000 1.0
C      1  0.5560580000000  0.5340820000000  0.4562040000000 1.0
C      1  0.5561590000000  0.4676190000000  0.5450860000000 1.0
C      1  0.5353100000000  0.4591310000000  0.5543550000000 1.0
C      1  0.4649880000000  0.5435430000000  0.5549820000000 1.0
C      1  0.4660990000000  0.4559700000000  0.4438230000000 1.0
C      1  0.5454330000000  0.5340090000000  0.4461930000000 1.0
C      1  0.4444490000000  0.5444970000000  0.5354490000000 1.0
C      1  0.5347450000000  0.4496190000000  0.5435060000000 1.0
C      1  0.5456690000000  0.4679930000000  0.5551630000000 1.0
C      1  0.4576020000000  0.4667540000000  0.4451980000000 1.0
C      1  0.4545490000000  0.5347220000000  0.5556100000000 1.0
C      1  0.4472130000000  0.4575060000000  0.4653460000000 1.0
C      1  0.5556400000000  0.4582880000000  0.5350340000000 1.0
C      1  0.5554260000000  0.5432940000000  0.4665180000000 1.0
C      1  0.5349310000000  0.5529790000000  0.4575490000000 1.0
C      1  0.4654910000000  0.5533810000000  0.5443700000000 1.0
C      1  0.4653630000000  0.4455220000000  0.4538690000000 1.0
C      1  0.4775870000000  0.4180020000000  0.4897750000000 1.0
C      1  0.4202400000000  0.4890430000000  0.4799320000000 1.0
C      1  0.4905340000000  0.4790540000000  0.4210850000000 1.0
C      1  0.4797280000000  0.5820240000000  0.5123840000000 1.0
C      1  0.5234850000000  0.4178430000000  0.5119750000000 1.0
C      1  0.5221490000000  0.5825220000000  0.4898150000000 1.0
C      1  0.4186660000000  0.5118510000000  0.5210130000000 1.0
C      1  0.5816700000000  0.4906740000000  0.5206680000000 1.0
C      1  0.5808950000000  0.5099830000000  0.4798920000000 1.0
C      1  0.4889580000000  0.5196470000000  0.5808980000000 1.0
C      1  0.5118920000000  0.4818530000000  0.5813640000000 1.0
C      1  0.5110300000000  0.5214650000000  0.4201380000000 1.0
C      1  0.4807050000000  0.4895750000000  0.4200810000000 1.0
C      1  0.4211060000000  0.4788810000000  0.4900120000000 1.0
C      1  0.4884510000000  0.4170550000000  0.4799390000000 1.0
C      1  0.4784510000000  0.5097740000000  0.5804150000000 1.0
C      1  0.5208830000000  0.5112810000000  0.4191510000000 1.0
C      1  0.5222890000000  0.4918510000000  0.5810850000000 1.0
C      1  0.4205700000000  0.5218560000000  0.5107350000000 1.0
C      1  0.5805420000000  0.5199770000000  0.4902610000000 1.0
C      1  0.5814040000000  0.4802670000000  0.5107370000000 1.0
C      1  0.4901770000000  0.5801150000000  0.5223980000000 1.0
C      1  0.5122050000000  0.5832690000000  0.4792640000000 1.0
C      1  0.5130540000000  0.4186880000000  0.5218810000000 1.0
C      1  0.5423190000000  0.4955660000000  0.4689090000000 1.0
C      1  0.4917520000000  0.4680550000000  0.5410510000000 1.0
C      1  0.4700920000000  0.5445570000000  0.4943640000000 1.0
C      1  0.5420750000000  0.5041270000000  0.5316890000000 1.0
C      1  0.4579830000000  0.4969050000000  0.5323420000000 1.0
C      1  0.4602080000000  0.5053700000000  0.4694050000000 1.0
C      1  0.4937210000000  0.5327580000000  0.4574450000000 1.0
C      1  0.5039210000000  0.4616380000000  0.4571310000000 1.0
C      1  0.5079840000000  0.5324090000000  0.5424500000000 1.0
C      1  0.4661000000000  0.4538480000000  0.5067180000000 1.0
C      1  0.5323980000000  0.5415260000000  0.5075460000000 1.0
C      1  0.5331740000000  0.4576490000000  0.4927830000000 1.0
C      1  0.5435870000000  0.4668560000000  0.4939610000000 1.0
C      1  0.4929030000000  0.5421640000000  0.4675530000000 1.0
C      1  0.4677880000000  0.4963950000000  0.5422810000000 1.0
C      1  0.5424280000000  0.5318110000000  0.5063160000000 1.0
C      1  0.4574400000000  0.5389220000000  0.4964400000000 1.0
C      1  0.4567110000000  0.4637650000000  0.5067320000000 1.0
C      1  0.4913530000000  0.4578180000000  0.5312500000000 1.0
C      1  0.5063340000000  0.4558200000000  0.4698280000000 1.0
C      1  0.5074400000000  0.5430660000000  0.5337120000000 1.0
C      1  0.4697710000000  0.5043330000000  0.4592670000000 1.0
C      1  0.5323150000000  0.5046530000000  0.5415730000000 1.0
C      1  0.5323370000000  0.4948240000000  0.4589800000000 1.0
C      1  0.5586450000000  0.4618090000000  0.4379890000000 1.0
C      1  0.4373990000000  0.5407360000000  0.4401800000000 1.0
C      1  0.4333900000000  0.4549940000000  0.5452200000000 1.0
C      1  0.5677450000000  0.5477300000000  0.5463500000000 1.0
END
