TITL C-1379267-1329-151 7.93281480541773e-07 1000000 -2148.32358663967 0 0 320 (Th) n - 1
REM
REM in /nfs/bkarasulu/CARBON/AIRSS/Generating-Clusters/GAP-ML-2020/Higher-Symm/Selected-Sizes/TryA-Only_Ih-Symm/Larger-Clusters/Try2-MINAMP_6A
REM
REM
REM
REM
REM
REM ./C.cell (31579ac4e95a012ec27f3239692ae8a5)
REM
REM compiler GCC version 9.2.1 20190827 (Red Hat 9.2.1-1)
REM options -cpp -mtune=generic -march=x86-64 -g -O0 -fpre-include=/usr/include/finclude/math-vector-fortran.h
REM seed 1688367545 1590871816 1788786232 -608437554 -752755900 -2035356747 1776891628 -1579503838 -138449408 9493127 704561772 976454156 1998268242 1094286715 131802142 1690767502 344668393 -462617204 -1149499324 -554756696 1442217148 623458677 1744639384 -625296725 -1475626282 -365410795 -1123484416 -1833449810 -1824467070 629799556 1686143969 1464510083 -1429473028
REM
CELL 1.54180  100.00000  100.00000  100.00000   90.00000   90.00000   90.00000
LATT -1
SFAC C  
C      1  0.4298870000000  0.5300440000000  0.4660490000000 1.0
C      1  0.5304200000000  0.4657050000000  0.4298390000000 1.0
C      1  0.4661200000000  0.4295060000000  0.5303600000000 1.0
C      1  0.5707740000000  0.4698400000000  0.4660400000000 1.0
C      1  0.4298930000000  0.4698370000000  0.5344940000000 1.0
C      1  0.5707680000000  0.5300270000000  0.5345040000000 1.0
C      1  0.4702310000000  0.5341660000000  0.4298360000000 1.0
C      1  0.5304250000000  0.5341710000000  0.5707160000000 1.0
C      1  0.4702330000000  0.4657130000000  0.5707120000000 1.0
C      1  0.5345770000000  0.5703900000000  0.5303850000000 1.0
C      1  0.4661180000000  0.5703690000000  0.4701940000000 1.0
C      1  0.5345780000000  0.4294840000000  0.4701680000000 1.0
C      1  0.4298910000000  0.5300390000000  0.5344930000000 1.0
C      1  0.5304230000000  0.4657080000000  0.5707130000000 1.0
C      1  0.4661200000000  0.4295050000000  0.4701910000000 1.0
C      1  0.5707690000000  0.4698460000000  0.5345020000000 1.0
C      1  0.4298880000000  0.4698320000000  0.4660490000000 1.0
C      1  0.5707740000000  0.5300330000000  0.4660380000000 1.0
C      1  0.4702290000000  0.5341640000000  0.5707140000000 1.0
C      1  0.5304230000000  0.5341730000000  0.4298350000000 1.0
C      1  0.4702340000000  0.4657120000000  0.4298370000000 1.0
C      1  0.5345780000000  0.5703900000000  0.4701680000000 1.0
C      1  0.4661190000000  0.5703690000000  0.5303580000000 1.0
C      1  0.5345760000000  0.4294840000000  0.5303840000000 1.0
C      1  0.5316200000000  0.5580710000000  0.4394780000000 1.0
C      1  0.5584720000000  0.4391400000000  0.5315870000000 1.0
C      1  0.4395320000000  0.5312310000000  0.5583970000000 1.0
C      1  0.4690410000000  0.4418160000000  0.4394890000000 1.0
C      1  0.5316170000000  0.4418070000000  0.5610730000000 1.0
C      1  0.4690340000000  0.5580600000000  0.5610610000000 1.0
C      1  0.4422190000000  0.5607290000000  0.5315410000000 1.0
C      1  0.5584740000000  0.5607370000000  0.4689620000000 1.0
C      1  0.4422190000000  0.4391430000000  0.4690040000000 1.0
C      1  0.5611180000000  0.4686480000000  0.5583960000000 1.0
C      1  0.4395350000000  0.4686380000000  0.4421490000000 1.0
C      1  0.5611200000000  0.5312360000000  0.4421460000000 1.0
C      1  0.5316200000000  0.5580720000000  0.5610750000000 1.0
C      1  0.5584760000000  0.4391360000000  0.4689660000000 1.0
C      1  0.4395300000000  0.5312380000000  0.4421470000000 1.0
C      1  0.4690400000000  0.4418160000000  0.5610610000000 1.0
C      1  0.5316160000000  0.4418070000000  0.4394810000000 1.0
C      1  0.4690340000000  0.5580600000000  0.4394910000000 1.0
C      1  0.4422170000000  0.5607300000000  0.4690100000000 1.0
C      1  0.5584720000000  0.5607340000000  0.5315900000000 1.0
C      1  0.4422200000000  0.4391460000000  0.5315460000000 1.0
C      1  0.5611190000000  0.4686350000000  0.4421470000000 1.0
C      1  0.4395360000000  0.4686460000000  0.5583950000000 1.0
C      1  0.5611180000000  0.5312250000000  0.5583970000000 1.0
C      1  0.4761530000000  0.5702900000000  0.5203010000000 1.0
C      1  0.5706970000000  0.5199690000000  0.4760640000000 1.0
C      1  0.5203620000000  0.4757370000000  0.5706330000000 1.0
C      1  0.5245570000000  0.4295600000000  0.5203150000000 1.0
C      1  0.4761530000000  0.4295850000000  0.4802480000000 1.0
C      1  0.5245590000000  0.5703140000000  0.4802370000000 1.0
C      1  0.4299650000000  0.4798990000000  0.4760710000000 1.0
C      1  0.5706920000000  0.4799080000000  0.5244730000000 1.0
C      1  0.4299690000000  0.5199740000000  0.5244690000000 1.0
C      1  0.4802950000000  0.5241400000000  0.5706390000000 1.0
C      1  0.5203610000000  0.5241450000000  0.4299160000000 1.0
C      1  0.4802980000000  0.4757380000000  0.4299140000000 1.0
C      1  0.4761530000000  0.5702890000000  0.4802500000000 1.0
C      1  0.5706910000000  0.5199660000000  0.5244740000000 1.0
C      1  0.5203600000000  0.4757350000000  0.4299190000000 1.0
C      1  0.5245580000000  0.4295610000000  0.4802370000000 1.0
C      1  0.4761530000000  0.4295840000000  0.5203020000000 1.0
C      1  0.5245580000000  0.5703150000000  0.5203150000000 1.0
C      1  0.4299690000000  0.4799020000000  0.5244700000000 1.0
C      1  0.5706970000000  0.4799050000000  0.4760650000000 1.0
C      1  0.4299640000000  0.5199760000000  0.4760710000000 1.0
C      1  0.4802960000000  0.5241410000000  0.4299120000000 1.0
C      1  0.5203630000000  0.5241430000000  0.5706350000000 1.0
C      1  0.4802970000000  0.4757390000000  0.5706360000000 1.0
C      1  0.5326980000000  0.5751690000000  0.5434990000000 1.0
C      1  0.5755520000000  0.5431420000000  0.5326440000000 1.0
C      1  0.5435410000000  0.5322970000000  0.5754930000000 1.0
C      1  0.4679850000000  0.4247270000000  0.5434770000000 1.0
C      1  0.5326970000000  0.4247070000000  0.4570530000000 1.0
C      1  0.4679800000000  0.5751480000000  0.4570770000000 1.0
C      1  0.4251190000000  0.4567200000000  0.5326170000000 1.0
C      1  0.5755590000000  0.4567260000000  0.4679050000000 1.0
C      1  0.4251140000000  0.5431600000000  0.4679320000000 1.0
C      1  0.4571160000000  0.4675830000000  0.5754900000000 1.0
C      1  0.5435360000000  0.4675720000000  0.4250590000000 1.0
C      1  0.4571150000000  0.5322980000000  0.4250560000000 1.0
C      1  0.5327000000000  0.5751690000000  0.4570530000000 1.0
C      1  0.5755580000000  0.5431480000000  0.4679020000000 1.0
C      1  0.5435380000000  0.5323040000000  0.4250560000000 1.0
C      1  0.4679850000000  0.4247270000000  0.4570740000000 1.0
C      1  0.5326960000000  0.4247080000000  0.5434990000000 1.0
C      1  0.4679810000000  0.5751480000000  0.5434750000000 1.0
C      1  0.4251160000000  0.4567150000000  0.4679290000000 1.0
C      1  0.5755530000000  0.4567310000000  0.5326410000000 1.0
C      1  0.4251180000000  0.5431560000000  0.5326130000000 1.0
C      1  0.4571180000000  0.4675790000000  0.4250580000000 1.0
C      1  0.5435390000000  0.4675800000000  0.5754900000000 1.0
C      1  0.4571130000000  0.5322940000000  0.5754910000000 1.0
C      1  0.4107730000000  0.4814630000000  0.4937390000000 1.0
C      1  0.4818570000000  0.4934060000000  0.4107250000000 1.0
C      1  0.4938130000000  0.4103850000000  0.4818030000000 1.0
C      1  0.5898800000000  0.5184140000000  0.4937380000000 1.0
C      1  0.4107730000000  0.5184100000000  0.5068050000000 1.0
C      1  0.5898800000000  0.4814630000000  0.5068050000000 1.0
C      1  0.5188060000000  0.5064720000000  0.4107280000000 1.0
C      1  0.4818560000000  0.5064720000000  0.5898270000000 1.0
C      1  0.5188050000000  0.4934060000000  0.5898250000000 1.0
C      1  0.5068800000000  0.5894940000000  0.4818000000000 1.0
C      1  0.4938130000000  0.5894900000000  0.5187480000000 1.0
C      1  0.5068790000000  0.4103790000000  0.5187510000000 1.0
C      1  0.4107740000000  0.4814640000000  0.5068060000000 1.0
C      1  0.4818570000000  0.4934050000000  0.5898270000000 1.0
C      1  0.4938130000000  0.4103840000000  0.5187480000000 1.0
C      1  0.5898790000000  0.5184130000000  0.5068050000000 1.0
C      1  0.4107720000000  0.5184100000000  0.4937380000000 1.0
C      1  0.5898820000000  0.4814630000000  0.4937380000000 1.0
C      1  0.5188050000000  0.5064730000000  0.5898250000000 1.0
C      1  0.4818560000000  0.5064720000000  0.4107240000000 1.0
C      1  0.5188060000000  0.4934050000000  0.4107280000000 1.0
C      1  0.5068800000000  0.5894950000000  0.5187510000000 1.0
C      1  0.4938130000000  0.5894890000000  0.4818020000000 1.0
C      1  0.5068800000000  0.4103790000000  0.4818000000000 1.0
C      1  0.5450050000000  0.5599370000000  0.4720740000000 1.0
C      1  0.5603170000000  0.4717580000000  0.5449260000000 1.0
C      1  0.4721420000000  0.5445890000000  0.5602620000000 1.0
C      1  0.4556900000000  0.4399510000000  0.4721080000000 1.0
C      1  0.5450020000000  0.4399380000000  0.5284770000000 1.0
C      1  0.4556900000000  0.5599230000000  0.5284390000000 1.0
C      1  0.4403370000000  0.5281260000000  0.5449260000000 1.0
C      1  0.5603190000000  0.5281240000000  0.4556150000000 1.0
C      1  0.4403370000000  0.4717440000000  0.4556190000000 1.0
C      1  0.5285090000000  0.4552770000000  0.5602660000000 1.0
C      1  0.4721470000000  0.4552870000000  0.4402890000000 1.0
C      1  0.5285100000000  0.5446020000000  0.4402840000000 1.0
C      1  0.5450020000000  0.5599360000000  0.5284790000000 1.0
C      1  0.5603200000000  0.4717480000000  0.4556170000000 1.0
C      1  0.4721420000000  0.5445900000000  0.4402890000000 1.0
C      1  0.4556910000000  0.4399520000000  0.5284420000000 1.0
C      1  0.5450060000000  0.4399360000000  0.4720750000000 1.0
C      1  0.4556880000000  0.5599230000000  0.4721130000000 1.0
C      1  0.4403340000000  0.5281330000000  0.4556180000000 1.0
C      1  0.5603160000000  0.5281140000000  0.5449270000000 1.0
C      1  0.4403400000000  0.4717510000000  0.5449250000000 1.0
C      1  0.5285060000000  0.4552770000000  0.4402870000000 1.0
C      1  0.4721460000000  0.4552870000000  0.5602620000000 1.0
C      1  0.5285120000000  0.5446020000000  0.5602690000000 1.0
C      1  0.5169020000000  0.4416640000000  0.5164340000000 1.0
C      1  0.4420710000000  0.5160970000000  0.5168070000000 1.0
C      1  0.5164890000000  0.5164830000000  0.4420190000000 1.0
C      1  0.4838260000000  0.5581900000000  0.5164390000000 1.0
C      1  0.5169050000000  0.5582090000000  0.4841180000000 1.0
C      1  0.4838240000000  0.4416850000000  0.4841130000000 1.0
C      1  0.5585890000000  0.4837730000000  0.5168060000000 1.0
C      1  0.4420660000000  0.4837770000000  0.4837310000000 1.0
C      1  0.5585930000000  0.5161000000000  0.4837280000000 1.0
C      1  0.4841660000000  0.4834040000000  0.4420160000000 1.0
C      1  0.5164890000000  0.4833990000000  0.5585300000000 1.0
C      1  0.4841660000000  0.5164760000000  0.5585370000000 1.0
C      1  0.5169040000000  0.4416650000000  0.4841190000000 1.0
C      1  0.4420670000000  0.5160960000000  0.4837290000000 1.0
C      1  0.5164880000000  0.5164830000000  0.5585320000000 1.0
C      1  0.4838250000000  0.5581880000000  0.4841120000000 1.0
C      1  0.5169030000000  0.5582110000000  0.5164340000000 1.0
C      1  0.4838250000000  0.4416840000000  0.5164380000000 1.0
C      1  0.5585940000000  0.4837750000000  0.4837280000000 1.0
C      1  0.4420700000000  0.4837770000000  0.5168070000000 1.0
C      1  0.5585880000000  0.5161010000000  0.5168060000000 1.0
C      1  0.4841670000000  0.4834040000000  0.5585350000000 1.0
C      1  0.5164900000000  0.4834000000000  0.4420220000000 1.0
C      1  0.4841660000000  0.5164770000000  0.4420140000000 1.0
C      1  0.5160830000000  0.4520860000000  0.5248690000000 1.0
C      1  0.4525020000000  0.5245240000000  0.5160070000000 1.0
C      1  0.5249290000000  0.5156750000000  0.4524380000000 1.0
C      1  0.4846210000000  0.5477670000000  0.5248770000000 1.0
C      1  0.5160870000000  0.5477890000000  0.4756810000000 1.0
C      1  0.4846160000000  0.4521110000000  0.4756780000000 1.0
C      1  0.5481760000000  0.4753240000000  0.5159980000000 1.0
C      1  0.4524950000000  0.4753490000000  0.4845390000000 1.0
C      1  0.5481820000000  0.5245490000000  0.4845420000000 1.0
C      1  0.4757250000000  0.4842140000000  0.4524340000000 1.0
C      1  0.5249240000000  0.4842020000000  0.5481060000000 1.0
C      1  0.4757280000000  0.5156650000000  0.5481170000000 1.0
C      1  0.5160870000000  0.4520880000000  0.4756850000000 1.0
C      1  0.4524970000000  0.5245230000000  0.4845350000000 1.0
C      1  0.5249230000000  0.5156770000000  0.5481080000000 1.0
C      1  0.4846190000000  0.5477650000000  0.4756750000000 1.0
C      1  0.5160840000000  0.5477900000000  0.5248710000000 1.0
C      1  0.4846190000000  0.4521090000000  0.5248740000000 1.0
C      1  0.5481820000000  0.4753250000000  0.4845420000000 1.0
C      1  0.4525000000000  0.4753490000000  0.5160040000000 1.0
C      1  0.5481760000000  0.5245510000000  0.5159980000000 1.0
C      1  0.4757300000000  0.4842130000000  0.5481140000000 1.0
C      1  0.5249310000000  0.4842040000000  0.4524410000000 1.0
C      1  0.4757230000000  0.5156650000000  0.4524310000000 1.0
C      1  0.5149070000000  0.4208140000000  0.4857310000000 1.0
C      1  0.4212190000000  0.4853930000000  0.5148220000000 1.0
C      1  0.4857890000000  0.5144930000000  0.4211630000000 1.0
C      1  0.4858040000000  0.5790400000000  0.4857340000000 1.0
C      1  0.5149070000000  0.5790610000000  0.5148190000000 1.0
C      1  0.4858030000000  0.4208330000000  0.5148160000000 1.0
C      1  0.5794390000000  0.5144780000000  0.5148230000000 1.0
C      1  0.4212150000000  0.5144820000000  0.4857200000000 1.0
C      1  0.5794450000000  0.4853970000000  0.4857160000000 1.0
C      1  0.5148730000000  0.4853880000000  0.4211700000000 1.0
C      1  0.4857890000000  0.4853870000000  0.5793860000000 1.0
C      1  0.5148740000000  0.5144910000000  0.5793840000000 1.0
C      1  0.5149070000000  0.4208130000000  0.5148200000000 1.0
C      1  0.4212150000000  0.4853920000000  0.4857190000000 1.0
C      1  0.4857880000000  0.5144920000000  0.5793880000000 1.0
C      1  0.4858030000000  0.5790410000000  0.5148160000000 1.0
C      1  0.5149070000000  0.5790600000000  0.4857310000000 1.0
C      1  0.4858040000000  0.4208340000000  0.4857330000000 1.0
C      1  0.5794440000000  0.5144790000000  0.4857160000000 1.0
C      1  0.4212190000000  0.5144820000000  0.5148210000000 1.0
C      1  0.5794400000000  0.4853970000000  0.5148220000000 1.0
C      1  0.5148750000000  0.4853890000000  0.5793810000000 1.0
C      1  0.4857900000000  0.4853870000000  0.4211650000000 1.0
C      1  0.5148730000000  0.5144920000000  0.4211680000000 1.0
C      1  0.5079760000000  0.4334640000000  0.5076830000000 1.0
C      1  0.4338660000000  0.5073460000000  0.5078830000000 1.0
C      1  0.5077380000000  0.5075550000000  0.4338180000000 1.0
C      1  0.4927480000000  0.5663930000000  0.5076840000000 1.0
C      1  0.5079770000000  0.5664090000000  0.4928680000000 1.0
C      1  0.4927470000000  0.4334810000000  0.4928660000000 1.0
C      1  0.5667890000000  0.4925290000000  0.5078820000000 1.0
C      1  0.4338630000000  0.4925290000000  0.4926550000000 1.0
C      1  0.5667920000000  0.5073450000000  0.4926530000000 1.0
C      1  0.4929230000000  0.4923260000000  0.4338150000000 1.0
C      1  0.5077390000000  0.4923260000000  0.5667330000000 1.0
C      1  0.4929220000000  0.5075540000000  0.5667380000000 1.0
C      1  0.5079760000000  0.4334650000000  0.4928680000000 1.0
C      1  0.4338630000000  0.5073450000000  0.4926540000000 1.0
C      1  0.5077380000000  0.5075550000000  0.5667340000000 1.0
C      1  0.4927480000000  0.5663920000000  0.4928660000000 1.0
C      1  0.5079770000000  0.5664100000000  0.5076820000000 1.0
C      1  0.4927470000000  0.4334800000000  0.5076840000000 1.0
C      1  0.5667930000000  0.4925300000000  0.4926530000000 1.0
C      1  0.4338660000000  0.4925290000000  0.5078840000000 1.0
C      1  0.5667880000000  0.5073450000000  0.5078820000000 1.0
C      1  0.4929230000000  0.4923260000000  0.5667370000000 1.0
C      1  0.5077390000000  0.4923260000000  0.4338200000000 1.0
C      1  0.4929220000000  0.5075550000000  0.4338140000000 1.0
C      1  0.5552600000000  0.4681000000000  0.5698840000000 1.0
C      1  0.4684930000000  0.5695460000000  0.5551970000000 1.0
C      1  0.5699600000000  0.5548720000000  0.4684170000000 1.0
C      1  0.4453930000000  0.5317740000000  0.5698830000000 1.0
C      1  0.5552600000000  0.5317850000000  0.4306580000000 1.0
C      1  0.4453970000000  0.4680950000000  0.4306620000000 1.0
C      1  0.5321690000000  0.4303180000000  0.5552180000000 1.0
C      1  0.4684990000000  0.4303300000000  0.4453520000000 1.0
C      1  0.5321730000000  0.5695600000000  0.4453340000000 1.0
C      1  0.4307290000000  0.4449980000000  0.4684550000000 1.0
C      1  0.5699570000000  0.4450070000000  0.5321290000000 1.0
C      1  0.4307300000000  0.5548730000000  0.5320880000000 1.0
C      1  0.5552580000000  0.4680880000000  0.4306610000000 1.0
C      1  0.4684920000000  0.5695460000000  0.4453540000000 1.0
C      1  0.5699560000000  0.5548670000000  0.5321330000000 1.0
C      1  0.4453940000000  0.5317810000000  0.4306610000000 1.0
C      1  0.5552610000000  0.5317750000000  0.5698860000000 1.0
C      1  0.4453960000000  0.4681020000000  0.5698830000000 1.0
C      1  0.5321690000000  0.4303180000000  0.4453350000000 1.0
C      1  0.4684990000000  0.4303300000000  0.5551990000000 1.0
C      1  0.5321710000000  0.5695600000000  0.5552190000000 1.0
C      1  0.4307310000000  0.4450020000000  0.5320930000000 1.0
C      1  0.5699600000000  0.4450020000000  0.4684210000000 1.0
C      1  0.4307280000000  0.5548770000000  0.4684600000000 1.0
C      1  0.5365060000000  0.5167640000000  0.5432990000000 1.0
C      1  0.5171640000000  0.5429880000000  0.5364590000000 1.0
C      1  0.5433850000000  0.5361400000000  0.5171070000000 1.0
C      1  0.4641430000000  0.4831110000000  0.5433150000000 1.0
C      1  0.5365160000000  0.4831080000000  0.4572430000000 1.0
C      1  0.4641350000000  0.5167690000000  0.4572240000000 1.0
C      1  0.4835070000000  0.4569080000000  0.5364590000000 1.0
C      1  0.5171610000000  0.4568970000000  0.4641000000000 1.0
C      1  0.4835060000000  0.5429650000000  0.4640900000000 1.0
C      1  0.4573040000000  0.4637630000000  0.5170990000000 1.0
C      1  0.5433910000000  0.4637350000000  0.4834420000000 1.0
C      1  0.4573040000000  0.5361080000000  0.4834500000000 1.0
C      1  0.5365140000000  0.5167660000000  0.4572440000000 1.0
C      1  0.5171630000000  0.5429830000000  0.4640950000000 1.0
C      1  0.5433890000000  0.5361380000000  0.4834420000000 1.0
C      1  0.4641380000000  0.4831100000000  0.4572310000000 1.0
C      1  0.5365090000000  0.4831090000000  0.5433000000000 1.0
C      1  0.4641400000000  0.5167680000000  0.5433210000000 1.0
C      1  0.4835060000000  0.4569100000000  0.4640920000000 1.0
C      1  0.5171620000000  0.4568910000000  0.5364550000000 1.0
C      1  0.4835070000000  0.5429670000000  0.5364620000000 1.0
C      1  0.4573000000000  0.4637630000000  0.4834490000000 1.0
C      1  0.5433860000000  0.4637350000000  0.5171060000000 1.0
C      1  0.4573070000000  0.5361090000000  0.5170990000000 1.0
C      1  0.5462450000000  0.4736030000000  0.4591960000000 1.0
C      1  0.4740040000000  0.4588640000000  0.5461870000000 1.0
C      1  0.4592590000000  0.5458450000000  0.4739560000000 1.0
C      1  0.4544080000000  0.5262720000000  0.4591920000000 1.0
C      1  0.5462390000000  0.5262650000000  0.5413510000000 1.0
C      1  0.4544150000000  0.4736090000000  0.5413520000000 1.0
C      1  0.5266620000000  0.5410270000000  0.5461940000000 1.0
C      1  0.4740010000000  0.5410120000000  0.4543640000000 1.0
C      1  0.5266590000000  0.4588520000000  0.4543630000000 1.0
C      1  0.5414250000000  0.4540080000000  0.4739380000000 1.0
C      1  0.4592610000000  0.4540300000000  0.5265960000000 1.0
C      1  0.5414210000000  0.5458640000000  0.5266130000000 1.0
C      1  0.5462410000000  0.4736080000000  0.5413500000000 1.0
C      1  0.4740040000000  0.4588640000000  0.4543640000000 1.0
C      1  0.4592610000000  0.5458450000000  0.5265940000000 1.0
C      1  0.4544120000000  0.5262690000000  0.5413540000000 1.0
C      1  0.5462450000000  0.5262700000000  0.4591940000000 1.0
C      1  0.4544110000000  0.4736060000000  0.4591950000000 1.0
C      1  0.5266610000000  0.5410260000000  0.4543590000000 1.0
C      1  0.4740020000000  0.5410120000000  0.5461880000000 1.0
C      1  0.5266600000000  0.4588510000000  0.5461900000000 1.0
C      1  0.5414210000000  0.4540100000000  0.5266120000000 1.0
C      1  0.4592590000000  0.4540280000000  0.4739540000000 1.0
C      1  0.5414240000000  0.5458650000000  0.4739370000000 1.0
C      1  0.4621260000000  0.4617330000000  0.5384780000000 1.0
C      1  0.5385400000000  0.4617220000000  0.4620660000000 1.0
C      1  0.4621220000000  0.5381450000000  0.4620720000000 1.0
C      1  0.5385400000000  0.5381510000000  0.4620640000000 1.0
C      1  0.5385380000000  0.4617240000000  0.5384850000000 1.0
C      1  0.4621240000000  0.5381440000000  0.5384780000000 1.0
C      1  0.5385380000000  0.5381500000000  0.5384870000000 1.0
C      1  0.4621240000000  0.4617310000000  0.4620710000000 1.0
END
