TITL C-1379266-1300-285 2.36254046936307e-06 1000000 -2999.9460822496 0 0 440 (Th) n - 1
REM
REM in /nfs/bkarasulu/CARBON/AIRSS/Generating-Clusters/GAP-ML-2020/Higher-Symm/Selected-Sizes/TryA-Only_Ih-Symm/Larger-Clusters/Try2-MINAMP_6A
REM
REM
REM
REM
REM
REM ./C.cell (31579ac4e95a012ec27f3239692ae8a5)
REM
REM compiler GCC version 9.2.1 20190827 (Red Hat 9.2.1-1)
REM options -cpp -mtune=generic -march=x86-64 -g -O0 -fpre-include=/usr/include/finclude/math-vector-fortran.h
REM seed -117214363 718244338 1223489986 -761271387 616669091 1325095535 -1565139378 2038633364 1059103412 -1499749841 519007706 -241859182 -963174089 -2098888465 -1067869036 1262143282 -1776109402 -1491906845 -1333914301 1871420590 645289814 -1013066482 -1679150036 706613959 -1390505425 831043598 -1415130515 760773297 -74179460 159340122 -281235616 1885345296 -1138945523
REM
CELL 1.54180  100.00000  100.00000  100.00000   90.00000   90.00000   90.00000
LATT -1
SFAC C  
C      1  0.5162490000000  0.4136710000000  0.5073210000000 1.0
C      1  0.5073460000000  0.5163440000000  0.4135500000000 1.0
C      1  0.4135750000000  0.5074420000000  0.5162240000000 1.0
C      1  0.5162490000000  0.5863790000000  0.4924870000000 1.0
C      1  0.4836100000000  0.5863790000000  0.5073210000000 1.0
C      1  0.4836100000000  0.4136710000000  0.4924870000000 1.0
C      1  0.5073460000000  0.4837060000000  0.5862590000000 1.0
C      1  0.4925120000000  0.4837060000000  0.4135500000000 1.0
C      1  0.4925130000000  0.5163440000000  0.5862590000000 1.0
C      1  0.4135750000000  0.4926080000000  0.4835850000000 1.0
C      1  0.5862840000000  0.4926080000000  0.5162240000000 1.0
C      1  0.5862840000000  0.5074420000000  0.4835850000000 1.0
C      1  0.4836100000000  0.4136710000000  0.5073210000000 1.0
C      1  0.4925130000000  0.5163440000000  0.4135500000000 1.0
C      1  0.5862840000000  0.5074420000000  0.5162240000000 1.0
C      1  0.4836100000000  0.5863790000000  0.4924870000000 1.0
C      1  0.5162490000000  0.5863790000000  0.5073210000000 1.0
C      1  0.5162490000000  0.4136710000000  0.4924870000000 1.0
C      1  0.4925120000000  0.4837060000000  0.5862590000000 1.0
C      1  0.5073460000000  0.4837060000000  0.4135500000000 1.0
C      1  0.5073460000000  0.5163440000000  0.5862590000000 1.0
C      1  0.5862840000000  0.4926080000000  0.4835850000000 1.0
C      1  0.4135750000000  0.4926080000000  0.5162240000000 1.0
C      1  0.4135750000000  0.5074420000000  0.4835850000000 1.0
C      1  0.5253250000000  0.5501130000000  0.4362820000000 1.0
C      1  0.4363070000000  0.5254210000000  0.5499930000000 1.0
C      1  0.5500180000000  0.4364020000000  0.5253000000000 1.0
C      1  0.5253250000000  0.4499370000000  0.5635270000000 1.0
C      1  0.4745340000000  0.4499370000000  0.4362820000000 1.0
C      1  0.4745340000000  0.5501130000000  0.5635270000000 1.0
C      1  0.4363070000000  0.4746290000000  0.4498160000000 1.0
C      1  0.5635520000000  0.4746290000000  0.5499930000000 1.0
C      1  0.5635520000000  0.5254210000000  0.4498160000000 1.0
C      1  0.5500180000000  0.5636480000000  0.4745090000000 1.0
C      1  0.4498410000000  0.5636480000000  0.5253000000000 1.0
C      1  0.4498410000000  0.4364020000000  0.4745090000000 1.0
C      1  0.4745340000000  0.5501130000000  0.4362820000000 1.0
C      1  0.5635520000000  0.5254210000000  0.5499930000000 1.0
C      1  0.4498410000000  0.4364020000000  0.5253000000000 1.0
C      1  0.4745340000000  0.4499370000000  0.5635270000000 1.0
C      1  0.5253250000000  0.4499370000000  0.4362820000000 1.0
C      1  0.5253250000000  0.5501130000000  0.5635270000000 1.0
C      1  0.5635520000000  0.4746290000000  0.4498160000000 1.0
C      1  0.4363070000000  0.4746290000000  0.5499930000000 1.0
C      1  0.4363070000000  0.5254210000000  0.4498160000000 1.0
C      1  0.4498410000000  0.5636480000000  0.4745090000000 1.0
C      1  0.5500180000000  0.5636480000000  0.5253000000000 1.0
C      1  0.5500180000000  0.4364020000000  0.4745090000000 1.0
C      1  0.4791470000000  0.4412320000000  0.4930400000000 1.0
C      1  0.4930650000000  0.4792430000000  0.4411120000000 1.0
C      1  0.4411370000000  0.4931600000000  0.4791220000000 1.0
C      1  0.4791470000000  0.5588180000000  0.5067690000000 1.0
C      1  0.5207120000000  0.5588180000000  0.4930400000000 1.0
C      1  0.5207120000000  0.4412320000000  0.5067690000000 1.0
C      1  0.4930650000000  0.5208080000000  0.5586970000000 1.0
C      1  0.5067940000000  0.5208080000000  0.4411120000000 1.0
C      1  0.5067940000000  0.4792430000000  0.5586970000000 1.0
C      1  0.4411370000000  0.5068900000000  0.5206870000000 1.0
C      1  0.5587220000000  0.5068900000000  0.4791220000000 1.0
C      1  0.5587220000000  0.4931600000000  0.5206870000000 1.0
C      1  0.5207120000000  0.4412320000000  0.4930400000000 1.0
C      1  0.5067940000000  0.4792430000000  0.4411120000000 1.0
C      1  0.5587220000000  0.4931600000000  0.4791220000000 1.0
C      1  0.5207120000000  0.5588180000000  0.5067690000000 1.0
C      1  0.4791470000000  0.5588180000000  0.4930400000000 1.0
C      1  0.4791470000000  0.4412320000000  0.5067690000000 1.0
C      1  0.5067940000000  0.5208080000000  0.5586970000000 1.0
C      1  0.4930650000000  0.5208080000000  0.4411120000000 1.0
C      1  0.4930650000000  0.4792430000000  0.5586970000000 1.0
C      1  0.5587220000000  0.5068900000000  0.5206870000000 1.0
C      1  0.4411370000000  0.5068900000000  0.4791220000000 1.0
C      1  0.4411370000000  0.4931600000000  0.5206870000000 1.0
C      1  0.4674080000000  0.5455790000000  0.5250030000000 1.0
C      1  0.5250280000000  0.4675040000000  0.5454580000000 1.0
C      1  0.5454830000000  0.5251240000000  0.4673830000000 1.0
C      1  0.4674080000000  0.4544710000000  0.4748060000000 1.0
C      1  0.5324510000000  0.4544710000000  0.5250030000000 1.0
C      1  0.5324510000000  0.5455790000000  0.4748060000000 1.0
C      1  0.5250280000000  0.5325460000000  0.4543510000000 1.0
C      1  0.4748310000000  0.5325460000000  0.5454580000000 1.0
C      1  0.4748310000000  0.4675040000000  0.4543510000000 1.0
C      1  0.5454830000000  0.4749270000000  0.5324260000000 1.0
C      1  0.4543760000000  0.4749270000000  0.4673830000000 1.0
C      1  0.4543760000000  0.5251240000000  0.5324260000000 1.0
C      1  0.5324510000000  0.5455790000000  0.5250030000000 1.0
C      1  0.4748310000000  0.4675040000000  0.5454580000000 1.0
C      1  0.4543760000000  0.5251240000000  0.4673830000000 1.0
C      1  0.5324510000000  0.4544710000000  0.4748060000000 1.0
C      1  0.4674080000000  0.4544710000000  0.5250030000000 1.0
C      1  0.4674080000000  0.5455790000000  0.4748060000000 1.0
C      1  0.4748310000000  0.5325460000000  0.4543510000000 1.0
C      1  0.5250280000000  0.5325460000000  0.5454580000000 1.0
C      1  0.5250280000000  0.4675040000000  0.4543510000000 1.0
C      1  0.4543760000000  0.4749270000000  0.5324260000000 1.0
C      1  0.5454830000000  0.4749270000000  0.4673830000000 1.0
C      1  0.5454830000000  0.5251240000000  0.5324260000000 1.0
C      1  0.5478180000000  0.5160130000000  0.5634950000000 1.0
C      1  0.5635200000000  0.5479140000000  0.5158930000000 1.0
C      1  0.5159180000000  0.5636160000000  0.5477930000000 1.0
C      1  0.5478180000000  0.4840370000000  0.4363140000000 1.0
C      1  0.4520410000000  0.4840370000000  0.5634950000000 1.0
C      1  0.4520410000000  0.5160130000000  0.4363140000000 1.0
C      1  0.5635200000000  0.4521360000000  0.4839160000000 1.0
C      1  0.4363390000000  0.4521360000000  0.5158930000000 1.0
C      1  0.4363390000000  0.5479140000000  0.4839160000000 1.0
C      1  0.5159180000000  0.4364340000000  0.4520160000000 1.0
C      1  0.4839410000000  0.4364340000000  0.5477930000000 1.0
C      1  0.4839410000000  0.5636160000000  0.4520160000000 1.0
C      1  0.4520410000000  0.5160130000000  0.5634950000000 1.0
C      1  0.4363390000000  0.5479140000000  0.5158930000000 1.0
C      1  0.4839410000000  0.5636160000000  0.5477930000000 1.0
C      1  0.4520410000000  0.4840370000000  0.4363140000000 1.0
C      1  0.5478180000000  0.4840370000000  0.5634950000000 1.0
C      1  0.5478180000000  0.5160130000000  0.4363140000000 1.0
C      1  0.4363390000000  0.4521360000000  0.4839160000000 1.0
C      1  0.5635200000000  0.4521360000000  0.5158930000000 1.0
C      1  0.5635200000000  0.5479140000000  0.4839160000000 1.0
C      1  0.4839410000000  0.4364340000000  0.4520160000000 1.0
C      1  0.5159180000000  0.4364340000000  0.5477930000000 1.0
C      1  0.5159180000000  0.5636160000000  0.4520160000000 1.0
C      1  0.4526480000000  0.4359750000000  0.4885090000000 1.0
C      1  0.4885340000000  0.4527430000000  0.4358540000000 1.0
C      1  0.4358790000000  0.4886300000000  0.4526230000000 1.0
C      1  0.4526480000000  0.5640760000000  0.5112990000000 1.0
C      1  0.5472110000000  0.5640760000000  0.4885090000000 1.0
C      1  0.5472110000000  0.4359750000000  0.5112990000000 1.0
C      1  0.4885340000000  0.5473070000000  0.5639550000000 1.0
C      1  0.5113240000000  0.5473070000000  0.4358540000000 1.0
C      1  0.5113240000000  0.4527430000000  0.5639550000000 1.0
C      1  0.4358790000000  0.5114200000000  0.5471860000000 1.0
C      1  0.5639800000000  0.5114200000000  0.4526230000000 1.0
C      1  0.5639800000000  0.4886300000000  0.5471860000000 1.0
C      1  0.5472110000000  0.4359750000000  0.4885090000000 1.0
C      1  0.5113240000000  0.4527430000000  0.4358540000000 1.0
C      1  0.5639800000000  0.4886300000000  0.4526230000000 1.0
C      1  0.5472110000000  0.5640760000000  0.5112990000000 1.0
C      1  0.4526480000000  0.5640760000000  0.4885090000000 1.0
C      1  0.4526480000000  0.4359750000000  0.5112990000000 1.0
C      1  0.5113240000000  0.5473070000000  0.5639550000000 1.0
C      1  0.4885340000000  0.5473070000000  0.4358540000000 1.0
C      1  0.4885340000000  0.4527430000000  0.5639550000000 1.0
C      1  0.5639800000000  0.5114200000000  0.5471860000000 1.0
C      1  0.4358790000000  0.5114200000000  0.4526230000000 1.0
C      1  0.4358790000000  0.4886300000000  0.5471860000000 1.0
C      1  0.4192540000000  0.4925890000000  0.5296480000000 1.0
C      1  0.5296730000000  0.4193500000000  0.4924690000000 1.0
C      1  0.4924940000000  0.5297690000000  0.4192290000000 1.0
C      1  0.4192540000000  0.5074610000000  0.4701600000000 1.0
C      1  0.5806050000000  0.5074610000000  0.5296480000000 1.0
C      1  0.5806050000000  0.4925890000000  0.4701600000000 1.0
C      1  0.5296730000000  0.5807010000000  0.5073400000000 1.0
C      1  0.4701850000000  0.5807010000000  0.4924690000000 1.0
C      1  0.4701850000000  0.4193500000000  0.5073400000000 1.0
C      1  0.4924940000000  0.4702810000000  0.5805800000000 1.0
C      1  0.5073650000000  0.4702810000000  0.4192290000000 1.0
C      1  0.5073650000000  0.5297690000000  0.5805800000000 1.0
C      1  0.5806050000000  0.4925890000000  0.5296480000000 1.0
C      1  0.4701850000000  0.4193500000000  0.4924690000000 1.0
C      1  0.5073650000000  0.5297690000000  0.4192290000000 1.0
C      1  0.5806050000000  0.5074610000000  0.4701600000000 1.0
C      1  0.4192540000000  0.5074610000000  0.5296480000000 1.0
C      1  0.4192540000000  0.4925890000000  0.4701600000000 1.0
C      1  0.4701850000000  0.5807010000000  0.5073400000000 1.0
C      1  0.5296730000000  0.5807010000000  0.4924690000000 1.0
C      1  0.5296730000000  0.4193500000000  0.5073400000000 1.0
C      1  0.5073650000000  0.4702810000000  0.5805800000000 1.0
C      1  0.4924940000000  0.4702810000000  0.4192290000000 1.0
C      1  0.4924940000000  0.5297690000000  0.5805800000000 1.0
C      1  0.4882130000000  0.4277410000000  0.5261590000000 1.0
C      1  0.5261840000000  0.4883090000000  0.4276200000000 1.0
C      1  0.4276460000000  0.5262800000000  0.4881880000000 1.0
C      1  0.4882130000000  0.5723090000000  0.4736490000000 1.0
C      1  0.5116460000000  0.5723090000000  0.5261590000000 1.0
C      1  0.5116460000000  0.4277410000000  0.4736490000000 1.0
C      1  0.5261840000000  0.5117410000000  0.5721880000000 1.0
C      1  0.4736740000000  0.5117410000000  0.4276200000000 1.0
C      1  0.4736740000000  0.4883090000000  0.5721880000000 1.0
C      1  0.4276460000000  0.4737700000000  0.5116210000000 1.0
C      1  0.5722130000000  0.4737700000000  0.4881880000000 1.0
C      1  0.5722130000000  0.5262800000000  0.5116210000000 1.0
C      1  0.5116460000000  0.4277410000000  0.5261590000000 1.0
C      1  0.4736740000000  0.4883090000000  0.4276200000000 1.0
C      1  0.5722130000000  0.5262800000000  0.4881880000000 1.0
C      1  0.5116460000000  0.5723090000000  0.4736490000000 1.0
C      1  0.4882130000000  0.5723090000000  0.5261590000000 1.0
C      1  0.4882130000000  0.4277410000000  0.4736490000000 1.0
C      1  0.4736740000000  0.5117410000000  0.5721880000000 1.0
C      1  0.5261840000000  0.5117410000000  0.4276200000000 1.0
C      1  0.5261840000000  0.4883090000000  0.5721880000000 1.0
C      1  0.5722130000000  0.4737700000000  0.5116210000000 1.0
C      1  0.4276460000000  0.4737700000000  0.4881880000000 1.0
C      1  0.4276460000000  0.5262800000000  0.5116210000000 1.0
C      1  0.4928190000000  0.5826810000000  0.4825700000000 1.0
C      1  0.4825950000000  0.4929140000000  0.5825610000000 1.0
C      1  0.5825860000000  0.4826900000000  0.4927940000000 1.0
C      1  0.4928190000000  0.4173690000000  0.5172390000000 1.0
C      1  0.5070400000000  0.4173690000000  0.4825700000000 1.0
C      1  0.5070400000000  0.5826810000000  0.5172390000000 1.0
C      1  0.4825950000000  0.5071360000000  0.4172480000000 1.0
C      1  0.5172640000000  0.5071360000000  0.5825610000000 1.0
C      1  0.5172640000000  0.4929140000000  0.4172480000000 1.0
C      1  0.5825860000000  0.5173600000000  0.5070150000000 1.0
C      1  0.4172730000000  0.5173600000000  0.4927940000000 1.0
C      1  0.4172730000000  0.4826900000000  0.5070150000000 1.0
C      1  0.5070400000000  0.5826810000000  0.4825700000000 1.0
C      1  0.5172640000000  0.4929140000000  0.5825610000000 1.0
C      1  0.4172730000000  0.4826900000000  0.4927940000000 1.0
C      1  0.5070400000000  0.4173690000000  0.5172390000000 1.0
C      1  0.4928190000000  0.4173690000000  0.4825700000000 1.0
C      1  0.4928190000000  0.5826810000000  0.5172390000000 1.0
C      1  0.5172640000000  0.5071360000000  0.4172480000000 1.0
C      1  0.4825950000000  0.5071360000000  0.5825610000000 1.0
C      1  0.4825950000000  0.4929140000000  0.4172480000000 1.0
C      1  0.4172730000000  0.5173600000000  0.5070150000000 1.0
C      1  0.5825860000000  0.5173600000000  0.4927940000000 1.0
C      1  0.5825860000000  0.4826900000000  0.5070150000000 1.0
C      1  0.4421070000000  0.5189780000000  0.4874840000000 1.0
C      1  0.4875090000000  0.4422020000000  0.5188570000000 1.0
C      1  0.5188820000000  0.4876050000000  0.4420820000000 1.0
C      1  0.4421070000000  0.4810720000000  0.5123240000000 1.0
C      1  0.5577520000000  0.4810720000000  0.4874840000000 1.0
C      1  0.5577520000000  0.5189780000000  0.5123240000000 1.0
C      1  0.4875100000000  0.5578480000000  0.4809520000000 1.0
C      1  0.5123490000000  0.5578480000000  0.5188570000000 1.0
C      1  0.5123490000000  0.4422020000000  0.4809520000000 1.0
C      1  0.5188820000000  0.5124450000000  0.5577270000000 1.0
C      1  0.4809770000000  0.5124450000000  0.4420820000000 1.0
C      1  0.4809770000000  0.4876050000000  0.5577270000000 1.0
C      1  0.5577520000000  0.5189780000000  0.4874840000000 1.0
C      1  0.5123490000000  0.4422020000000  0.5188570000000 1.0
C      1  0.4809770000000  0.4876050000000  0.4420820000000 1.0
C      1  0.5577520000000  0.4810720000000  0.5123240000000 1.0
C      1  0.4421070000000  0.4810720000000  0.4874840000000 1.0
C      1  0.4421070000000  0.5189780000000  0.5123240000000 1.0
C      1  0.5123490000000  0.5578480000000  0.4809520000000 1.0
C      1  0.4875100000000  0.5578480000000  0.5188570000000 1.0
C      1  0.4875090000000  0.4422020000000  0.4809520000000 1.0
C      1  0.4809770000000  0.5124450000000  0.5577270000000 1.0
C      1  0.5188820000000  0.5124450000000  0.4420820000000 1.0
C      1  0.5188820000000  0.4876050000000  0.5577270000000 1.0
C      1  0.4641300000000  0.4390160000000  0.5260630000000 1.0
C      1  0.5260880000000  0.4642250000000  0.4388960000000 1.0
C      1  0.4389210000000  0.5261830000000  0.4641040000000 1.0
C      1  0.4641300000000  0.5610340000000  0.4737460000000 1.0
C      1  0.5357290000000  0.5610340000000  0.5260630000000 1.0
C      1  0.5357290000000  0.4390160000000  0.4737460000000 1.0
C      1  0.5260880000000  0.5358250000000  0.5609130000000 1.0
C      1  0.4737710000000  0.5358250000000  0.4388960000000 1.0
C      1  0.4737710000000  0.4642250000000  0.5609130000000 1.0
C      1  0.4389210000000  0.4738670000000  0.5357040000000 1.0
C      1  0.5609380000000  0.4738670000000  0.4641040000000 1.0
C      1  0.5609380000000  0.5261830000000  0.5357040000000 1.0
C      1  0.5357290000000  0.4390160000000  0.5260630000000 1.0
C      1  0.4737710000000  0.4642250000000  0.4388960000000 1.0
C      1  0.5609380000000  0.5261830000000  0.4641040000000 1.0
C      1  0.5357290000000  0.5610340000000  0.4737460000000 1.0
C      1  0.4641300000000  0.5610340000000  0.5260630000000 1.0
C      1  0.4641300000000  0.4390160000000  0.4737460000000 1.0
C      1  0.4737710000000  0.5358250000000  0.5609130000000 1.0
C      1  0.5260880000000  0.5358250000000  0.4388960000000 1.0
C      1  0.5260880000000  0.4642250000000  0.5609130000000 1.0
C      1  0.5609380000000  0.4738670000000  0.5357040000000 1.0
C      1  0.4389210000000  0.4738670000000  0.4641040000000 1.0
C      1  0.4389210000000  0.5261830000000  0.5357040000000 1.0
C      1  0.4871840000000  0.5327170000000  0.4328310000000 1.0
C      1  0.4328560000000  0.4872790000000  0.5325960000000 1.0
C      1  0.5326210000000  0.4329520000000  0.4871590000000 1.0
C      1  0.4871840000000  0.4673330000000  0.5669780000000 1.0
C      1  0.5126750000000  0.4673330000000  0.4328310000000 1.0
C      1  0.5126750000000  0.5327170000000  0.5669780000000 1.0
C      1  0.4328560000000  0.5127710000000  0.4672130000000 1.0
C      1  0.5670030000000  0.5127710000000  0.5325960000000 1.0
C      1  0.5670030000000  0.4872790000000  0.4672130000000 1.0
C      1  0.5326210000000  0.5670980000000  0.5126500000000 1.0
C      1  0.4672380000000  0.5670980000000  0.4871590000000 1.0
C      1  0.4672380000000  0.4329520000000  0.5126500000000 1.0
C      1  0.5126750000000  0.5327170000000  0.4328310000000 1.0
C      1  0.5670030000000  0.4872790000000  0.5325960000000 1.0
C      1  0.4672380000000  0.4329520000000  0.4871590000000 1.0
C      1  0.5126750000000  0.4673330000000  0.5669780000000 1.0
C      1  0.4871840000000  0.4673330000000  0.4328310000000 1.0
C      1  0.4871840000000  0.5327170000000  0.5669780000000 1.0
C      1  0.5670030000000  0.5127710000000  0.4672130000000 1.0
C      1  0.4328560000000  0.5127710000000  0.5325960000000 1.0
C      1  0.4328560000000  0.4872790000000  0.4672130000000 1.0
C      1  0.4672380000000  0.5670980000000  0.5126500000000 1.0
C      1  0.5326210000000  0.5670980000000  0.4871590000000 1.0
C      1  0.5326210000000  0.4329520000000  0.5126500000000 1.0
C      1  0.5397430000000  0.4923320000000  0.4281140000000 1.0
C      1  0.4281390000000  0.5398390000000  0.4922110000000 1.0
C      1  0.4922360000000  0.4282350000000  0.5397180000000 1.0
C      1  0.5397430000000  0.5077180000000  0.5716950000000 1.0
C      1  0.4601150000000  0.5077180000000  0.4281140000000 1.0
C      1  0.4601150000000  0.4923320000000  0.5716950000000 1.0
C      1  0.4281390000000  0.4602110000000  0.5075980000000 1.0
C      1  0.5717200000000  0.4602110000000  0.4922110000000 1.0
C      1  0.5717200000000  0.5398390000000  0.5075980000000 1.0
C      1  0.4922360000000  0.5718150000000  0.4600900000000 1.0
C      1  0.5076230000000  0.5718150000000  0.5397180000000 1.0
C      1  0.5076230000000  0.4282350000000  0.4600900000000 1.0
C      1  0.4601150000000  0.4923320000000  0.4281140000000 1.0
C      1  0.5717200000000  0.5398390000000  0.4922110000000 1.0
C      1  0.5076230000000  0.4282350000000  0.5397180000000 1.0
C      1  0.4601150000000  0.5077180000000  0.5716950000000 1.0
C      1  0.5397430000000  0.5077180000000  0.4281140000000 1.0
C      1  0.5397430000000  0.4923320000000  0.5716950000000 1.0
C      1  0.5717200000000  0.4602110000000  0.5075980000000 1.0
C      1  0.4281390000000  0.4602110000000  0.4922110000000 1.0
C      1  0.4281390000000  0.5398390000000  0.5075980000000 1.0
C      1  0.5076230000000  0.5718150000000  0.4600900000000 1.0
C      1  0.4922360000000  0.5718150000000  0.5397180000000 1.0
C      1  0.4922360000000  0.4282350000000  0.4600900000000 1.0
C      1  0.4705410000000  0.4406210000000  0.5537630000000 1.0
C      1  0.5537880000000  0.4706370000000  0.4405000000000 1.0
C      1  0.4405250000000  0.5538840000000  0.4705160000000 1.0
C      1  0.4705410000000  0.5594290000000  0.4460450000000 1.0
C      1  0.5293180000000  0.5594290000000  0.5537630000000 1.0
C      1  0.5293180000000  0.4406210000000  0.4460450000000 1.0
C      1  0.5537880000000  0.5294130000000  0.5593080000000 1.0
C      1  0.4460710000000  0.5294130000000  0.4405000000000 1.0
C      1  0.4460710000000  0.4706370000000  0.5593080000000 1.0
C      1  0.4405250000000  0.4461660000000  0.5292930000000 1.0
C      1  0.5593330000000  0.4461660000000  0.4705160000000 1.0
C      1  0.5593330000000  0.5538840000000  0.5292930000000 1.0
C      1  0.5293180000000  0.4406210000000  0.5537630000000 1.0
C      1  0.4460710000000  0.4706370000000  0.4405000000000 1.0
C      1  0.5593330000000  0.5538840000000  0.4705160000000 1.0
C      1  0.5293180000000  0.5594290000000  0.4460450000000 1.0
C      1  0.4705410000000  0.5594290000000  0.5537630000000 1.0
C      1  0.4705410000000  0.4406210000000  0.4460450000000 1.0
C      1  0.4460710000000  0.5294130000000  0.5593080000000 1.0
C      1  0.5537880000000  0.5294130000000  0.4405000000000 1.0
C      1  0.5537880000000  0.4706370000000  0.5593080000000 1.0
C      1  0.5593330000000  0.4461660000000  0.5292930000000 1.0
C      1  0.4405250000000  0.4461660000000  0.4705160000000 1.0
C      1  0.4405250000000  0.5538840000000  0.5292930000000 1.0
C      1  0.4529070000000  0.5267780000000  0.5174910000000 1.0
C      1  0.5175160000000  0.4530030000000  0.5266570000000 1.0
C      1  0.5266820000000  0.5176110000000  0.4528820000000 1.0
C      1  0.4529070000000  0.4732720000000  0.4823180000000 1.0
C      1  0.5469520000000  0.4732720000000  0.5174910000000 1.0
C      1  0.5469520000000  0.5267780000000  0.4823180000000 1.0
C      1  0.5175160000000  0.5470470000000  0.4731510000000 1.0
C      1  0.4823430000000  0.5470470000000  0.5266570000000 1.0
C      1  0.4823430000000  0.4530030000000  0.4731520000000 1.0
C      1  0.5266820000000  0.4824390000000  0.5469260000000 1.0
C      1  0.4731770000000  0.4824390000000  0.4528820000000 1.0
C      1  0.4731770000000  0.5176110000000  0.5469260000000 1.0
C      1  0.5469520000000  0.5267780000000  0.5174910000000 1.0
C      1  0.4823430000000  0.4530030000000  0.5266570000000 1.0
C      1  0.4731770000000  0.5176110000000  0.4528820000000 1.0
C      1  0.5469520000000  0.4732720000000  0.4823180000000 1.0
C      1  0.4529070000000  0.4732720000000  0.5174910000000 1.0
C      1  0.4529070000000  0.5267780000000  0.4823180000000 1.0
C      1  0.4823430000000  0.5470470000000  0.4731520000000 1.0
C      1  0.5175160000000  0.5470470000000  0.5266570000000 1.0
C      1  0.5175160000000  0.4530030000000  0.4731520000000 1.0
C      1  0.4731770000000  0.4824390000000  0.5469260000000 1.0
C      1  0.5266820000000  0.4824390000000  0.4528820000000 1.0
C      1  0.5266820000000  0.5176110000000  0.5469260000000 1.0
C      1  0.5502910000000  0.4926390000000  0.5509140000000 1.0
C      1  0.5509390000000  0.5503870000000  0.4925180000000 1.0
C      1  0.4925430000000  0.5510340000000  0.5502660000000 1.0
C      1  0.5502910000000  0.5074110000000  0.4488950000000 1.0
C      1  0.4495680000000  0.5074110000000  0.5509140000000 1.0
C      1  0.4495680000000  0.4926390000000  0.4488950000000 1.0
C      1  0.5509390000000  0.4496630000000  0.5072900000000 1.0
C      1  0.4489200000000  0.4496630000000  0.4925180000000 1.0
C      1  0.4489200000000  0.5503870000000  0.5072900000000 1.0
C      1  0.4925430000000  0.4490160000000  0.4495430000000 1.0
C      1  0.5073150000000  0.4490160000000  0.5502660000000 1.0
C      1  0.5073150000000  0.5510340000000  0.4495430000000 1.0
C      1  0.4495680000000  0.4926390000000  0.5509140000000 1.0
C      1  0.4489200000000  0.5503870000000  0.4925180000000 1.0
C      1  0.5073150000000  0.5510340000000  0.5502660000000 1.0
C      1  0.4495680000000  0.5074110000000  0.4488950000000 1.0
C      1  0.5502910000000  0.5074110000000  0.5509140000000 1.0
C      1  0.5502910000000  0.4926390000000  0.4488950000000 1.0
C      1  0.4489200000000  0.4496630000000  0.5072900000000 1.0
C      1  0.5509390000000  0.4496630000000  0.4925180000000 1.0
C      1  0.5509390000000  0.5503870000000  0.5072900000000 1.0
C      1  0.5073150000000  0.4490160000000  0.4495430000000 1.0
C      1  0.4925430000000  0.4490160000000  0.5502660000000 1.0
C      1  0.4925430000000  0.5510340000000  0.4495430000000 1.0
C      1  0.4602480000000  0.4858140000000  0.5415470000000 1.0
C      1  0.5415720000000  0.4603430000000  0.4856940000000 1.0
C      1  0.4857190000000  0.5416670000000  0.4602230000000 1.0
C      1  0.4602480000000  0.5142360000000  0.4582620000000 1.0
C      1  0.5396110000000  0.5142360000000  0.5415470000000 1.0
C      1  0.5396110000000  0.4858140000000  0.4582620000000 1.0
C      1  0.5415720000000  0.5397070000000  0.5141150000000 1.0
C      1  0.4582870000000  0.5397070000000  0.4856940000000 1.0
C      1  0.4582870000000  0.4603430000000  0.5141150000000 1.0
C      1  0.4857190000000  0.4583830000000  0.5395860000000 1.0
C      1  0.5141400000000  0.4583830000000  0.4602230000000 1.0
C      1  0.5141400000000  0.5416670000000  0.5395860000000 1.0
C      1  0.5396110000000  0.4858140000000  0.5415470000000 1.0
C      1  0.4582870000000  0.4603430000000  0.4856940000000 1.0
C      1  0.5141400000000  0.5416670000000  0.4602230000000 1.0
C      1  0.5396110000000  0.5142360000000  0.4582620000000 1.0
C      1  0.4602480000000  0.5142360000000  0.5415470000000 1.0
C      1  0.4602480000000  0.4858140000000  0.4582620000000 1.0
C      1  0.4582870000000  0.5397070000000  0.5141150000000 1.0
C      1  0.5415720000000  0.5397070000000  0.4856940000000 1.0
C      1  0.5415720000000  0.4603430000000  0.5141150000000 1.0
C      1  0.5141400000000  0.4583830000000  0.5395860000000 1.0
C      1  0.4857190000000  0.4583830000000  0.4602230000000 1.0
C      1  0.4857190000000  0.5416670000000  0.5395860000000 1.0
C      1  0.5544840000000  0.5512780000000  0.4568050000000 1.0
C      1  0.4568300000000  0.5545800000000  0.5511570000000 1.0
C      1  0.5511820000000  0.4569260000000  0.5544590000000 1.0
C      1  0.5544840000000  0.4487720000000  0.5430040000000 1.0
C      1  0.4453750000000  0.4487720000000  0.4568050000000 1.0
C      1  0.4453750000000  0.5512780000000  0.5430040000000 1.0
C      1  0.4568300000000  0.4454700000000  0.4486520000000 1.0
C      1  0.5430290000000  0.4454700000000  0.5511570000000 1.0
C      1  0.5430290000000  0.5545800000000  0.4486520000000 1.0
C      1  0.5511820000000  0.5431240000000  0.4453500000000 1.0
C      1  0.4486770000000  0.5431240000000  0.5544590000000 1.0
C      1  0.4486770000000  0.4569260000000  0.4453500000000 1.0
C      1  0.4453750000000  0.5512780000000  0.4568050000000 1.0
C      1  0.5430290000000  0.5545800000000  0.5511570000000 1.0
C      1  0.4486770000000  0.4569260000000  0.5544590000000 1.0
C      1  0.4453750000000  0.4487720000000  0.5430040000000 1.0
C      1  0.5544840000000  0.4487720000000  0.4568050000000 1.0
C      1  0.5544840000000  0.5512780000000  0.5430040000000 1.0
C      1  0.5430290000000  0.4454700000000  0.4486520000000 1.0
C      1  0.4568300000000  0.4454700000000  0.5511570000000 1.0
C      1  0.4568300000000  0.5545800000000  0.4486520000000 1.0
C      1  0.4486770000000  0.5431240000000  0.4453500000000 1.0
C      1  0.5511820000000  0.5431240000000  0.5544590000000 1.0
C      1  0.5511820000000  0.4569260000000  0.4453500000000 1.0
C      1  0.5350390000000  0.5351340000000  0.4647950000000 1.0
C      1  0.4648200000000  0.5351340000000  0.5350130000000 1.0
C      1  0.5350390000000  0.4649160000000  0.5350130000000 1.0
C      1  0.4648200000000  0.5351340000000  0.4647950000000 1.0
C      1  0.4648200000000  0.4649160000000  0.5350130000000 1.0
C      1  0.5350390000000  0.4649160000000  0.4647950000000 1.0
C      1  0.4648200000000  0.4649160000000  0.4647950000000 1.0
C      1  0.5350390000000  0.5351340000000  0.5350130000000 1.0
END
