TITL C-1379266-1300-32 -8.27186584547834e-07 1000000 -1867.93127721694 0 0 260 (Th) n - 1
REM
REM in /nfs/bkarasulu/CARBON/AIRSS/Generating-Clusters/GAP-ML-2020/Higher-Symm/Selected-Sizes/TryA-Only_Ih-Symm/Larger-Clusters/Try2-MINAMP_6A
REM
REM
REM
REM
REM
REM ./C.cell (31579ac4e95a012ec27f3239692ae8a5)
REM
REM compiler GCC version 9.2.1 20190827 (Red Hat 9.2.1-1)
REM options -cpp -mtune=generic -march=x86-64 -g -O0 -fpre-include=/usr/include/finclude/math-vector-fortran.h
REM seed 2124023300 -285981432 1474686517 -1958052051 1606797461 1723745985 1052249968 1762916267 -22949326 1203010839 2086974093 1815214175 -1162910133 1942691098 -1250170051 -999128920 129051794 -40035044 -930176488 -1403910827 1654714556 903318130 -1954094232 -1226680429 1404391032 1271832048 779241165 976239758 1736430599 290287159 249849627 2099378655 -1162480409
REM
CELL 1.54180  100.00000  100.00000  100.00000   90.00000   90.00000   90.00000
LATT -1
SFAC C  
C      1  0.5132790000000  0.4471810000000  0.5541110000000 1.0
C      1  0.5541770000000  0.5133020000000  0.4470920000000 1.0
C      1  0.4471580000000  0.5541990000000  0.5132130000000 1.0
C      1  0.4868980000000  0.4471810000000  0.4459340000000 1.0
C      1  0.5132790000000  0.5530410000000  0.4459340000000 1.0
C      1  0.4868980000000  0.5530410000000  0.5541110000000 1.0
C      1  0.4460010000000  0.5133020000000  0.5529530000000 1.0
C      1  0.5541770000000  0.4869200000000  0.5529530000000 1.0
C      1  0.4460010000000  0.4869200000000  0.4470920000000 1.0
C      1  0.5530190000000  0.5541990000000  0.4868320000000 1.0
C      1  0.4471580000000  0.4460230000000  0.4868320000000 1.0
C      1  0.5530190000000  0.4460230000000  0.5132130000000 1.0
C      1  0.5132790000000  0.5530410000000  0.5541110000000 1.0
C      1  0.5541770000000  0.4869200000000  0.4470920000000 1.0
C      1  0.4471580000000  0.4460230000000  0.5132130000000 1.0
C      1  0.4868980000000  0.5530410000000  0.4459340000000 1.0
C      1  0.5132790000000  0.4471810000000  0.4459340000000 1.0
C      1  0.4868980000000  0.4471810000000  0.5541110000000 1.0
C      1  0.4460010000000  0.4869200000000  0.5529530000000 1.0
C      1  0.5541770000000  0.5133020000000  0.5529530000000 1.0
C      1  0.4460010000000  0.5133020000000  0.4470920000000 1.0
C      1  0.5530190000000  0.4460230000000  0.4868320000000 1.0
C      1  0.4471580000000  0.5541990000000  0.4868320000000 1.0
C      1  0.5530190000000  0.5541990000000  0.5132130000000 1.0
C      1  0.5690840000000  0.5361010000000  0.5210350000000 1.0
C      1  0.5211010000000  0.5691070000000  0.5360130000000 1.0
C      1  0.5360790000000  0.5211240000000  0.5690180000000 1.0
C      1  0.4310930000000  0.5361010000000  0.4790100000000 1.0
C      1  0.5690840000000  0.4641210000000  0.4790100000000 1.0
C      1  0.4310930000000  0.4641210000000  0.5210350000000 1.0
C      1  0.4790760000000  0.5691070000000  0.4640320000000 1.0
C      1  0.5211010000000  0.4311150000000  0.4640320000000 1.0
C      1  0.4790760000000  0.4311150000000  0.5360130000000 1.0
C      1  0.4640980000000  0.5211240000000  0.4310270000000 1.0
C      1  0.5360790000000  0.4790990000000  0.4310270000000 1.0
C      1  0.4640980000000  0.4790990000000  0.5690180000000 1.0
C      1  0.5690840000000  0.4641210000000  0.5210350000000 1.0
C      1  0.5211010000000  0.4311150000000  0.5360130000000 1.0
C      1  0.5360790000000  0.4790990000000  0.5690180000000 1.0
C      1  0.4310930000000  0.4641210000000  0.4790100000000 1.0
C      1  0.5690840000000  0.5361010000000  0.4790100000000 1.0
C      1  0.4310930000000  0.5361010000000  0.5210350000000 1.0
C      1  0.4790760000000  0.4311150000000  0.4640320000000 1.0
C      1  0.5211010000000  0.5691070000000  0.4640320000000 1.0
C      1  0.4790760000000  0.5691070000000  0.5360130000000 1.0
C      1  0.4640980000000  0.4790990000000  0.4310270000000 1.0
C      1  0.5360790000000  0.5211240000000  0.4310270000000 1.0
C      1  0.4640980000000  0.5211240000000  0.5690180000000 1.0
C      1  0.5073500000000  0.4268190000000  0.4841680000000 1.0
C      1  0.4842340000000  0.5073720000000  0.4267310000000 1.0
C      1  0.4267970000000  0.4842560000000  0.5072840000000 1.0
C      1  0.4928270000000  0.4268190000000  0.5158770000000 1.0
C      1  0.5073500000000  0.5734030000000  0.5158770000000 1.0
C      1  0.4928270000000  0.5734030000000  0.4841680000000 1.0
C      1  0.5159440000000  0.5073720000000  0.5733140000000 1.0
C      1  0.4842340000000  0.4928500000000  0.5733140000000 1.0
C      1  0.5159440000000  0.4928500000000  0.4267310000000 1.0
C      1  0.5733810000000  0.4842560000000  0.4927610000000 1.0
C      1  0.4267970000000  0.5159660000000  0.4927610000000 1.0
C      1  0.5733810000000  0.5159660000000  0.5072840000000 1.0
C      1  0.5073500000000  0.5734030000000  0.4841680000000 1.0
C      1  0.4842340000000  0.4928500000000  0.4267310000000 1.0
C      1  0.4267970000000  0.5159660000000  0.5072840000000 1.0
C      1  0.4928270000000  0.5734030000000  0.5158770000000 1.0
C      1  0.5073500000000  0.4268190000000  0.5158770000000 1.0
C      1  0.4928270000000  0.4268190000000  0.4841680000000 1.0
C      1  0.5159440000000  0.4928500000000  0.5733140000000 1.0
C      1  0.4842340000000  0.5073720000000  0.5733140000000 1.0
C      1  0.5159440000000  0.5073720000000  0.4267310000000 1.0
C      1  0.5733810000000  0.5159660000000  0.4927610000000 1.0
C      1  0.4267970000000  0.4842560000000  0.4927610000000 1.0
C      1  0.5733810000000  0.4842560000000  0.5072840000000 1.0
C      1  0.4666980000000  0.5527640000000  0.5385600000000 1.0
C      1  0.5386260000000  0.4667200000000  0.5526760000000 1.0
C      1  0.5527420000000  0.5386490000000  0.4666320000000 1.0
C      1  0.5334800000000  0.5527640000000  0.4614850000000 1.0
C      1  0.4666980000000  0.4474580000000  0.4614850000000 1.0
C      1  0.5334800000000  0.4474580000000  0.5385600000000 1.0
C      1  0.4615510000000  0.4667200000000  0.4473690000000 1.0
C      1  0.5386260000000  0.5335020000000  0.4473690000000 1.0
C      1  0.4615510000000  0.5335020000000  0.5526760000000 1.0
C      1  0.4474350000000  0.5386490000000  0.5334130000000 1.0
C      1  0.5527420000000  0.4615740000000  0.5334130000000 1.0
C      1  0.4474350000000  0.4615740000000  0.4666320000000 1.0
C      1  0.4666980000000  0.4474580000000  0.5385600000000 1.0
C      1  0.5386260000000  0.5335020000000  0.5526760000000 1.0
C      1  0.5527420000000  0.4615740000000  0.4666320000000 1.0
C      1  0.5334800000000  0.4474580000000  0.4614850000000 1.0
C      1  0.4666980000000  0.5527640000000  0.4614850000000 1.0
C      1  0.5334800000000  0.5527640000000  0.5385600000000 1.0
C      1  0.4615510000000  0.5335020000000  0.4473690000000 1.0
C      1  0.5386260000000  0.4667200000000  0.4473690000000 1.0
C      1  0.4615510000000  0.4667200000000  0.5526760000000 1.0
C      1  0.4474350000000  0.4615740000000  0.5334130000000 1.0
C      1  0.5527420000000  0.5386490000000  0.5334130000000 1.0
C      1  0.4474350000000  0.5386490000000  0.4666320000000 1.0
C      1  0.5302920000000  0.5638590000000  0.5139750000000 1.0
C      1  0.5140410000000  0.5303150000000  0.5637700000000 1.0
C      1  0.5638370000000  0.5140640000000  0.5302260000000 1.0
C      1  0.4698850000000  0.5638590000000  0.4860700000000 1.0
C      1  0.5302920000000  0.4363630000000  0.4860700000000 1.0
C      1  0.4698850000000  0.4363630000000  0.5139750000000 1.0
C      1  0.4861360000000  0.5303150000000  0.4362750000000 1.0
C      1  0.5140410000000  0.4699070000000  0.4362750000000 1.0
C      1  0.4861360000000  0.4699070000000  0.5637700000000 1.0
C      1  0.4363410000000  0.5140640000000  0.4698190000000 1.0
C      1  0.5638370000000  0.4861590000000  0.4698190000000 1.0
C      1  0.4363410000000  0.4861590000000  0.5302260000000 1.0
C      1  0.5302920000000  0.4363630000000  0.5139750000000 1.0
C      1  0.5140410000000  0.4699070000000  0.5637700000000 1.0
C      1  0.5638370000000  0.4861590000000  0.5302260000000 1.0
C      1  0.4698850000000  0.4363630000000  0.4860700000000 1.0
C      1  0.5302920000000  0.5638590000000  0.4860700000000 1.0
C      1  0.4698850000000  0.5638590000000  0.5139750000000 1.0
C      1  0.4861360000000  0.4699070000000  0.4362750000000 1.0
C      1  0.5140410000000  0.5303150000000  0.4362750000000 1.0
C      1  0.4861360000000  0.5303150000000  0.5637700000000 1.0
C      1  0.4363410000000  0.4861590000000  0.4698190000000 1.0
C      1  0.5638370000000  0.5140640000000  0.4698190000000 1.0
C      1  0.4363410000000  0.5140640000000  0.5302260000000 1.0
C      1  0.4313930000000  0.5074120000000  0.5180640000000 1.0
C      1  0.5181300000000  0.4314160000000  0.5073230000000 1.0
C      1  0.5073890000000  0.5181520000000  0.4313270000000 1.0
C      1  0.5687840000000  0.5074120000000  0.4819810000000 1.0
C      1  0.4313930000000  0.4928110000000  0.4819810000000 1.0
C      1  0.5687840000000  0.4928110000000  0.5180640000000 1.0
C      1  0.4820470000000  0.4314160000000  0.4927220000000 1.0
C      1  0.5181300000000  0.5688060000000  0.4927220000000 1.0
C      1  0.4820470000000  0.5688060000000  0.5073230000000 1.0
C      1  0.4927880000000  0.5181520000000  0.5687180000000 1.0
C      1  0.5073890000000  0.4820700000000  0.5687180000000 1.0
C      1  0.4927880000000  0.4820700000000  0.4313270000000 1.0
C      1  0.4313930000000  0.4928110000000  0.5180640000000 1.0
C      1  0.5181300000000  0.5688060000000  0.5073230000000 1.0
C      1  0.5073890000000  0.4820700000000  0.4313270000000 1.0
C      1  0.5687840000000  0.4928110000000  0.4819810000000 1.0
C      1  0.4313930000000  0.5074120000000  0.4819810000000 1.0
C      1  0.5687840000000  0.5074120000000  0.5180640000000 1.0
C      1  0.4820470000000  0.5688060000000  0.4927220000000 1.0
C      1  0.5181300000000  0.4314160000000  0.4927220000000 1.0
C      1  0.4820470000000  0.4314160000000  0.5073230000000 1.0
C      1  0.4927880000000  0.4820700000000  0.5687180000000 1.0
C      1  0.5073890000000  0.5181520000000  0.5687180000000 1.0
C      1  0.4927880000000  0.5181520000000  0.4313270000000 1.0
C      1  0.5418320000000  0.5594680000000  0.4929940000000 1.0
C      1  0.4930600000000  0.5418540000000  0.5593790000000 1.0
C      1  0.5594460000000  0.4930830000000  0.5417660000000 1.0
C      1  0.4583460000000  0.5594680000000  0.5070510000000 1.0
C      1  0.5418320000000  0.4407540000000  0.5070510000000 1.0
C      1  0.4583460000000  0.4407540000000  0.4929940000000 1.0
C      1  0.5071170000000  0.5418540000000  0.4406660000000 1.0
C      1  0.4930600000000  0.4583680000000  0.4406660000000 1.0
C      1  0.5071170000000  0.4583680000000  0.5593790000000 1.0
C      1  0.4407320000000  0.4930830000000  0.4582790000000 1.0
C      1  0.5594460000000  0.5071390000000  0.4582790000000 1.0
C      1  0.4407320000000  0.5071390000000  0.5417660000000 1.0
C      1  0.5418320000000  0.4407540000000  0.4929940000000 1.0
C      1  0.4930600000000  0.4583680000000  0.5593790000000 1.0
C      1  0.5594460000000  0.5071390000000  0.5417660000000 1.0
C      1  0.4583460000000  0.4407540000000  0.5070510000000 1.0
C      1  0.5418320000000  0.5594680000000  0.5070510000000 1.0
C      1  0.4583460000000  0.5594680000000  0.4929940000000 1.0
C      1  0.5071170000000  0.4583680000000  0.4406660000000 1.0
C      1  0.4930600000000  0.5418540000000  0.4406660000000 1.0
C      1  0.5071170000000  0.5418540000000  0.5593790000000 1.0
C      1  0.4407320000000  0.5071390000000  0.4582790000000 1.0
C      1  0.5594460000000  0.4930830000000  0.4582790000000 1.0
C      1  0.4407320000000  0.4930830000000  0.5417660000000 1.0
C      1  0.5222850000000  0.5586770000000  0.5465840000000 1.0
C      1  0.5466500000000  0.5223070000000  0.5585890000000 1.0
C      1  0.5586550000000  0.5466730000000  0.5222190000000 1.0
C      1  0.4778920000000  0.5586770000000  0.4534610000000 1.0
C      1  0.5222850000000  0.4415450000000  0.4534610000000 1.0
C      1  0.4778920000000  0.4415450000000  0.5465840000000 1.0
C      1  0.4535270000000  0.5223070000000  0.4414560000000 1.0
C      1  0.5466500000000  0.4779150000000  0.4414560000000 1.0
C      1  0.4535270000000  0.4779150000000  0.5585890000000 1.0
C      1  0.4415220000000  0.5466730000000  0.4778260000000 1.0
C      1  0.5586550000000  0.4535490000000  0.4778260000000 1.0
C      1  0.4415220000000  0.4535490000000  0.5222190000000 1.0
C      1  0.5222850000000  0.4415450000000  0.5465840000000 1.0
C      1  0.5466500000000  0.4779150000000  0.5585890000000 1.0
C      1  0.5586550000000  0.4535490000000  0.5222190000000 1.0
C      1  0.4778920000000  0.4415450000000  0.4534610000000 1.0
C      1  0.5222850000000  0.5586770000000  0.4534610000000 1.0
C      1  0.4778920000000  0.5586770000000  0.5465840000000 1.0
C      1  0.4535270000000  0.4779150000000  0.4414560000000 1.0
C      1  0.5466500000000  0.5223070000000  0.4414560000000 1.0
C      1  0.4535270000000  0.5223070000000  0.5585890000000 1.0
C      1  0.4415220000000  0.4535490000000  0.4778260000000 1.0
C      1  0.5586550000000  0.5466730000000  0.4778260000000 1.0
C      1  0.4415220000000  0.5466730000000  0.5222190000000 1.0
C      1  0.5623230000000  0.4720220000000  0.4694440000000 1.0
C      1  0.4695100000000  0.5623450000000  0.4719340000000 1.0
C      1  0.4720000000000  0.4695330000000  0.5622560000000 1.0
C      1  0.4378550000000  0.4720220000000  0.5306010000000 1.0
C      1  0.5623230000000  0.5282000000000  0.5306010000000 1.0
C      1  0.4378550000000  0.5282000000000  0.4694440000000 1.0
C      1  0.5306670000000  0.5623450000000  0.5281110000000 1.0
C      1  0.4695100000000  0.4378770000000  0.5281110000000 1.0
C      1  0.5306670000000  0.4378770000000  0.4719340000000 1.0
C      1  0.5281780000000  0.4695330000000  0.4377890000000 1.0
C      1  0.4720000000000  0.5306900000000  0.4377890000000 1.0
C      1  0.5281780000000  0.5306900000000  0.5622560000000 1.0
C      1  0.5623230000000  0.5282000000000  0.4694440000000 1.0
C      1  0.4695100000000  0.4378770000000  0.4719340000000 1.0
C      1  0.4720000000000  0.5306900000000  0.5622560000000 1.0
C      1  0.4378550000000  0.5282000000000  0.5306010000000 1.0
C      1  0.5623230000000  0.4720220000000  0.5306010000000 1.0
C      1  0.4378550000000  0.4720220000000  0.4694440000000 1.0
C      1  0.5306670000000  0.4378770000000  0.5281110000000 1.0
C      1  0.4695100000000  0.5623450000000  0.5281110000000 1.0
C      1  0.5306670000000  0.5623450000000  0.4719340000000 1.0
C      1  0.5281780000000  0.5306900000000  0.4377890000000 1.0
C      1  0.4720000000000  0.4695330000000  0.4377890000000 1.0
C      1  0.5281780000000  0.4695330000000  0.5622560000000 1.0
C      1  0.4892730000000  0.4240060000000  0.4699120000000 1.0
C      1  0.4699780000000  0.4892950000000  0.4239170000000 1.0
C      1  0.4239830000000  0.4700010000000  0.4892060000000 1.0
C      1  0.5109050000000  0.4240060000000  0.5301330000000 1.0
C      1  0.4892730000000  0.5762160000000  0.5301330000000 1.0
C      1  0.5109050000000  0.5762160000000  0.4699120000000 1.0
C      1  0.5301990000000  0.4892950000000  0.5761280000000 1.0
C      1  0.4699780000000  0.5109270000000  0.5761280000000 1.0
C      1  0.5301990000000  0.5109270000000  0.4239170000000 1.0
C      1  0.5761940000000  0.4700010000000  0.5108390000000 1.0
C      1  0.4239830000000  0.5302210000000  0.5108390000000 1.0
C      1  0.5761940000000  0.5302210000000  0.4892060000000 1.0
C      1  0.4892730000000  0.5762160000000  0.4699120000000 1.0
C      1  0.4699780000000  0.5109270000000  0.4239170000000 1.0
C      1  0.4239830000000  0.5302210000000  0.4892060000000 1.0
C      1  0.5109050000000  0.5762160000000  0.5301330000000 1.0
C      1  0.4892730000000  0.4240060000000  0.5301330000000 1.0
C      1  0.5109050000000  0.4240060000000  0.4699120000000 1.0
C      1  0.5301990000000  0.5109270000000  0.5761280000000 1.0
C      1  0.4699780000000  0.4892950000000  0.5761280000000 1.0
C      1  0.5301990000000  0.4892950000000  0.4239170000000 1.0
C      1  0.5761940000000  0.5302210000000  0.5108390000000 1.0
C      1  0.4239830000000  0.4700010000000  0.5108390000000 1.0
C      1  0.5761940000000  0.4700010000000  0.4892060000000 1.0
C      1  0.5377200000000  0.5001110000000  0.4192670000000 1.0
C      1  0.4193340000000  0.5377420000000  0.5000220000000 1.0
C      1  0.5000890000000  0.4193560000000  0.4623910000000 1.0
C      1  0.4624580000000  0.5001110000000  0.5807780000000 1.0
C      1  0.5808440000000  0.5377420000000  0.5000220000000 1.0
C      1  0.4193340000000  0.4624800000000  0.5000220000000 1.0
C      1  0.5808440000000  0.4624800000000  0.5000220000000 1.0
C      1  0.5000890000000  0.5808660000000  0.5376540000000 1.0
C      1  0.5000890000000  0.4193560000000  0.5376540000000 1.0
C      1  0.5000890000000  0.5808660000000  0.4623910000000 1.0
C      1  0.5377200000000  0.5001110000000  0.5807780000000 1.0
C      1  0.4624580000000  0.5001110000000  0.4192670000000 1.0
C      1  0.4590230000000  0.4590460000000  0.5410880000000 1.0
C      1  0.5411540000000  0.4590460000000  0.4589570000000 1.0
C      1  0.4590230000000  0.5411770000000  0.4589570000000 1.0
C      1  0.5411540000000  0.5411770000000  0.5410880000000 1.0
C      1  0.4590230000000  0.5411770000000  0.5410880000000 1.0
C      1  0.5411540000000  0.5411770000000  0.4589570000000 1.0
C      1  0.5411540000000  0.4590460000000  0.5410880000000 1.0
C      1  0.4590230000000  0.4590460000000  0.4589570000000 1.0
END
