TITL C-1379268-1316-287 3.21550091585707e-07 1000000 -2433.84169685329 0 0 340 (C1) n - 1
REM
REM in /nfs/bkarasulu/CARBON/AIRSS/Generating-Clusters/GAP-ML-2020/Higher-Symm/Selected-Sizes/TryA-Only_Ih-Symm/Larger-Clusters/Try2-MINAMP_6A
REM
REM
REM
REM
REM
REM ./C.cell (31579ac4e95a012ec27f3239692ae8a5)
REM
REM compiler GCC version 9.2.1 20190827 (Red Hat 9.2.1-1)
REM options -cpp -mtune=generic -march=x86-64 -g -O0 -fpre-include=/usr/include/finclude/math-vector-fortran.h
REM seed 2110117731 -885174504 589106751 605255110 163492576 105298445 131319443 704348696 725419576 1379805242 -1253021034 -1815228060 -2026712561 2096449444 1772172909 -221655370 -689397969 2036077959 -211549764 -1887012051 865165174 -220160305 -2081505494 1318799047 -2010522571 2079857952 1537783484 -550965574 -1739492452 412558590 -1733580282 -1521383731 1487505869
REM
CELL 1.54180  100.00000  100.00000  100.00000   90.00000   90.00000   90.00000
LATT -1
SFAC C  
C      1  0.5396890000000  0.5001040000000  0.5627050000000 1.0
C      1  0.4997980000000  0.5627370000000  0.5400720000000 1.0
C      1  0.5701740000000  0.5494750000000  0.5010760000000 1.0
C      1  0.4612410000000  0.4980690000000  0.5641500000000 1.0
C      1  0.5505500000000  0.4988160000000  0.4334880000000 1.0
C      1  0.4513280000000  0.5010250000000  0.4304500000000 1.0
C      1  0.5002290000000  0.4401160000000  0.5406640000000 1.0
C      1  0.5019220000000  0.4324100000000  0.4522150000000 1.0
C      1  0.4978450000000  0.5683400000000  0.4521860000000 1.0
C      1  0.4303820000000  0.4516290000000  0.5015320000000 1.0
C      1  0.5634580000000  0.4578240000000  0.4993190000000 1.0
C      1  0.4359180000000  0.5409510000000  0.4998650000000 1.0
C      1  0.5014990000000  0.5526970000000  0.5661990000000 1.0
C      1  0.5643910000000  0.5017310000000  0.5498190000000 1.0
C      1  0.5528190000000  0.5693480000000  0.5012810000000 1.0
C      1  0.4998990000000  0.4588810000000  0.5613780000000 1.0
C      1  0.4982700000000  0.5501090000000  0.4330090000000 1.0
C      1  0.5015160000000  0.4492650000000  0.4320070000000 1.0
C      1  0.4380210000000  0.4968340000000  0.5486210000000 1.0
C      1  0.4311440000000  0.5008590000000  0.4475780000000 1.0
C      1  0.5632460000000  0.4991120000000  0.4584200000000 1.0
C      1  0.4477280000000  0.4320460000000  0.5012340000000 1.0
C      1  0.4498320000000  0.5648390000000  0.4989900000000 1.0
C      1  0.5515030000000  0.4320750000000  0.4989550000000 1.0
C      1  0.5333730000000  0.5421160000000  0.5167980000000 1.0
C      1  0.5401130000000  0.5212780000000  0.5288180000000 1.0
C      1  0.5198300000000  0.5334330000000  0.5356650000000 1.0
C      1  0.4644510000000  0.4615990000000  0.5177240000000 1.0
C      1  0.5275730000000  0.4571770000000  0.4793440000000 1.0
C      1  0.4688810000000  0.5378470000000  0.4769410000000 1.0
C      1  0.4554100000000  0.4830510000000  0.5264890000000 1.0
C      1  0.5379180000000  0.4854810000000  0.4647400000000 1.0
C      1  0.4593870000000  0.5185180000000  0.4649700000000 1.0
C      1  0.4755870000000  0.4743260000000  0.5360410000000 1.0
C      1  0.5204760000000  0.4678330000000  0.4564900000000 1.0
C      1  0.4791950000000  0.5303110000000  0.4557550000000 1.0
C      1  0.5422750000000  0.5314830000000  0.5181660000000 1.0
C      1  0.5213320000000  0.5424230000000  0.5251530000000 1.0
C      1  0.5287230000000  0.5218260000000  0.5368310000000 1.0
C      1  0.4543720000000  0.4712570000000  0.5178320000000 1.0
C      1  0.4596960000000  0.5274660000000  0.4764460000000 1.0
C      1  0.5374780000000  0.4651150000000  0.4854530000000 1.0
C      1  0.4754780000000  0.4631850000000  0.5268940000000 1.0
C      1  0.4790490000000  0.5391560000000  0.4666940000000 1.0
C      1  0.5171190000000  0.4583800000000  0.4675700000000 1.0
C      1  0.4679390000000  0.4864500000000  0.5326720000000 1.0
C      1  0.4691440000000  0.5196610000000  0.4549360000000 1.0
C      1  0.5283370000000  0.4798330000000  0.4561410000000 1.0
C      1  0.4388360000000  0.5483150000000  0.5115300000000 1.0
C      1  0.5504870000000  0.5105980000000  0.4404740000000 1.0
C      1  0.5114380000000  0.4412920000000  0.5488340000000 1.0
C      1  0.5605400000000  0.4506850000000  0.5109520000000 1.0
C      1  0.4379940000000  0.4507370000000  0.4899550000000 1.0
C      1  0.5614290000000  0.5503250000000  0.4902470000000 1.0
C      1  0.4502750000000  0.4897810000000  0.4384610000000 1.0
C      1  0.5477800000000  0.4889020000000  0.5598200000000 1.0
C      1  0.4538260000000  0.5092880000000  0.5598970000000 1.0
C      1  0.4887660000000  0.5595360000000  0.5481380000000 1.0
C      1  0.5096350000000  0.5612230000000  0.4512430000000 1.0
C      1  0.4902420000000  0.4393710000000  0.4513720000000 1.0
C      1  0.5515300000000  0.4393970000000  0.5106350000000 1.0
C      1  0.5096660000000  0.5509160000000  0.4406960000000 1.0
C      1  0.4436180000000  0.5089660000000  0.5498350000000 1.0
C      1  0.4482390000000  0.5590710000000  0.5112470000000 1.0
C      1  0.4480960000000  0.4400350000000  0.4900500000000 1.0
C      1  0.5517160000000  0.5615170000000  0.4900550000000 1.0
C      1  0.4905610000000  0.4494260000000  0.4404420000000 1.0
C      1  0.4897770000000  0.5507840000000  0.5593300000000 1.0
C      1  0.5113370000000  0.4510720000000  0.5589210000000 1.0
C      1  0.5583190000000  0.4896200000000  0.5501190000000 1.0
C      1  0.5596920000000  0.5108590000000  0.4515780000000 1.0
C      1  0.4391180000000  0.4896410000000  0.4480690000000 1.0
C      1  0.4760390000000  0.4410920000000  0.5398400000000 1.0
C      1  0.4381730000000  0.5397980000000  0.4751840000000 1.0
C      1  0.5445210000000  0.4750920000000  0.4378080000000 1.0
C      1  0.5244410000000  0.5626060000000  0.5393630000000 1.0
C      1  0.4747300000000  0.5618060000000  0.4565320000000 1.0
C      1  0.5251350000000  0.4362900000000  0.4552850000000 1.0
C      1  0.5595170000000  0.4580930000000  0.4758340000000 1.0
C      1  0.4357180000000  0.4560240000000  0.5253780000000 1.0
C      1  0.5634280000000  0.5435400000000  0.5243180000000 1.0
C      1  0.4550140000000  0.5250790000000  0.4348420000000 1.0
C      1  0.5385120000000  0.5246870000000  0.5596160000000 1.0
C      1  0.4603040000000  0.4731330000000  0.5630820000000 1.0
C      1  0.4397780000000  0.4752940000000  0.5453850000000 1.0
C      1  0.5437020000000  0.4382040000000  0.4759800000000 1.0
C      1  0.4744940000000  0.5454780000000  0.4361200000000 1.0
C      1  0.5600810000000  0.5239520000000  0.5441160000000 1.0
C      1  0.5598860000000  0.4753560000000  0.4582720000000 1.0
C      1  0.4372550000000  0.5233560000000  0.4534090000000 1.0
C      1  0.4558910000000  0.5592930000000  0.4762430000000 1.0
C      1  0.4543400000000  0.4383380000000  0.5235600000000 1.0
C      1  0.5466790000000  0.5630940000000  0.5233460000000 1.0
C      1  0.5254060000000  0.4537850000000  0.4361680000000 1.0
C      1  0.5223900000000  0.5457030000000  0.5586410000000 1.0
C      1  0.4755560000000  0.4565320000000  0.5616410000000 1.0
C      1  0.4896520000000  0.4972630000000  0.5678550000000 1.0
C      1  0.4997170000000  0.5670780000000  0.4916900000000 1.0
C      1  0.5658460000000  0.4860510000000  0.4970410000000 1.0
C      1  0.5108760000000  0.4983220000000  0.5667960000000 1.0
C      1  0.4899010000000  0.5009580000000  0.4347130000000 1.0
C      1  0.5101610000000  0.5008140000000  0.4316550000000 1.0
C      1  0.4989680000000  0.4338210000000  0.4926490000000 1.0
C      1  0.4985180000000  0.4348740000000  0.5136250000000 1.0
C      1  0.5001630000000  0.5664080000000  0.5126180000000 1.0
C      1  0.4313780000000  0.5131020000000  0.4983370000000 1.0
C      1  0.5615230000000  0.5065520000000  0.4974180000000 1.0
C      1  0.4334090000000  0.4922000000000  0.4986860000000 1.0
C      1  0.5003340000000  0.4872090000000  0.5679710000000 1.0
C      1  0.5654640000000  0.4965540000000  0.4866710000000 1.0
C      1  0.4897260000000  0.5668090000000  0.5018780000000 1.0
C      1  0.5001500000000  0.5078580000000  0.5653950000000 1.0
C      1  0.5003900000000  0.4905080000000  0.4329380000000 1.0
C      1  0.4995770000000  0.5112630000000  0.4337870000000 1.0
C      1  0.4331460000000  0.5027970000000  0.4883610000000 1.0
C      1  0.4316910000000  0.5021550000000  0.5086870000000 1.0
C      1  0.5621220000000  0.4966390000000  0.5073490000000 1.0
C      1  0.5086250000000  0.4316620000000  0.5029980000000 1.0
C      1  0.5102200000000  0.5663060000000  0.5021810000000 1.0
C      1  0.4892480000000  0.4382870000000  0.5029950000000 1.0
C      1  0.5316680000000  0.5528630000000  0.4590640000000 1.0
C      1  0.5536310000000  0.4567380000000  0.5335090000000 1.0
C      1  0.4582340000000  0.5322470000000  0.5533360000000 1.0
C      1  0.4685120000000  0.4485580000000  0.4592530000000 1.0
C      1  0.5345830000000  0.4458530000000  0.5436840000000 1.0
C      1  0.4659480000000  0.5530700000000  0.5436560000000 1.0
C      1  0.4462590000000  0.5424370000000  0.5342520000000 1.0
C      1  0.5516670000000  0.5425850000000  0.4690890000000 1.0
C      1  0.4477620000000  0.4588390000000  0.4684710000000 1.0
C      1  0.5440460000000  0.4658430000000  0.5542370000000 1.0
C      1  0.4585760000000  0.4683450000000  0.4484490000000 1.0
C      1  0.5417700000000  0.5326110000000  0.4487020000000 1.0
C      1  0.5518930000000  0.5331050000000  0.4585470000000 1.0
C      1  0.4558650000000  0.5527450000000  0.5336620000000 1.0
C      1  0.5344740000000  0.4555820000000  0.5540320000000 1.0
C      1  0.4480680000000  0.4686240000000  0.4580240000000 1.0
C      1  0.4481200000000  0.5317000000000  0.5433570000000 1.0
C      1  0.5532260000000  0.4669400000000  0.5434200000000 1.0
C      1  0.5437990000000  0.4465660000000  0.5328710000000 1.0
C      1  0.5417710000000  0.5528320000000  0.4692060000000 1.0
C      1  0.4579340000000  0.4488740000000  0.4690100000000 1.0
C      1  0.4677940000000  0.5425360000000  0.5531270000000 1.0
C      1  0.4689400000000  0.4584260000000  0.4490730000000 1.0
C      1  0.5317570000000  0.5428780000000  0.4488590000000 1.0
C      1  0.4952820000000  0.4816290000000  0.4542960000000 1.0
C      1  0.4846290000000  0.4584390000000  0.4884570000000 1.0
C      1  0.4530870000000  0.4939440000000  0.4805090000000 1.0
C      1  0.5081360000000  0.5184490000000  0.4546360000000 1.0
C      1  0.4887320000000  0.5151220000000  0.5455100000000 1.0
C      1  0.5099350000000  0.4792290000000  0.5499170000000 1.0
C      1  0.5174100000000  0.5465370000000  0.4924130000000 1.0
C      1  0.4809740000000  0.5472360000000  0.5102710000000 1.0
C      1  0.5182890000000  0.4517610000000  0.5088990000000 1.0
C      1  0.5454600000000  0.5046820000000  0.4771270000000 1.0
C      1  0.4520890000000  0.5097110000000  0.5139570000000 1.0
C      1  0.5431420000000  0.4850910000000  0.5160030000000 1.0
C      1  0.4839570000000  0.4912310000000  0.4557820000000 1.0
C      1  0.4533740000000  0.4832440000000  0.4912400000000 1.0
C      1  0.4958920000000  0.4537700000000  0.4800900000000 1.0
C      1  0.5172230000000  0.5069800000000  0.4530670000000 1.0
C      1  0.5205710000000  0.4892990000000  0.5492100000000 1.0
C      1  0.4804920000000  0.5032930000000  0.5483130000000 1.0
C      1  0.5419390000000  0.5151630000000  0.4862120000000 1.0
C      1  0.5461440000000  0.4764160000000  0.5050820000000 1.0
C      1  0.4514020000000  0.5220670000000  0.5055420000000 1.0
C      1  0.5067070000000  0.5478780000000  0.4817040000000 1.0
C      1  0.5100510000000  0.4534140000000  0.5205920000000 1.0
C      1  0.4907510000000  0.5460510000000  0.5213560000000 1.0
C      1  0.4801990000000  0.5661720000000  0.5283910000000 1.0
C      1  0.5631180000000  0.5261890000000  0.4833840000000 1.0
C      1  0.5288020000000  0.4800590000000  0.5685670000000 1.0
C      1  0.5194350000000  0.4336900000000  0.5288540000000 1.0
C      1  0.4823280000000  0.4355290000000  0.4744250000000 1.0
C      1  0.5176510000000  0.5667060000000  0.4736840000000 1.0
C      1  0.4339480000000  0.4737170000000  0.4817850000000 1.0
C      1  0.5657590000000  0.4715370000000  0.5179610000000 1.0
C      1  0.4331020000000  0.5279330000000  0.5193180000000 1.0
C      1  0.4737700000000  0.5175480000000  0.5662120000000 1.0
C      1  0.5275550000000  0.5183280000000  0.4354500000000 1.0
C      1  0.4735650000000  0.4826810000000  0.4364090000000 1.0
C      1  0.5636600000000  0.4820510000000  0.5269450000000 1.0
C      1  0.5276700000000  0.5660550000000  0.4838160000000 1.0
C      1  0.4838210000000  0.5269390000000  0.5644280000000 1.0
C      1  0.4352360000000  0.5173300000000  0.5280890000000 1.0
C      1  0.4342010000000  0.4834540000000  0.4714140000000 1.0
C      1  0.5647940000000  0.5174810000000  0.4725070000000 1.0
C      1  0.4725690000000  0.4378160000000  0.4846160000000 1.0
C      1  0.4706430000000  0.5655420000000  0.5183390000000 1.0
C      1  0.5285880000000  0.4335080000000  0.5183690000000 1.0
C      1  0.5193590000000  0.4702330000000  0.5683000000000 1.0
C      1  0.5175380000000  0.5283890000000  0.4359000000000 1.0
C      1  0.4835790000000  0.4725830000000  0.4360420000000 1.0
C      1  0.4468380000000  0.5588780000000  0.4873130000000 1.0
C      1  0.5617810000000  0.4872150000000  0.4510540000000 1.0
C      1  0.4880870000000  0.4518850000000  0.5582940000000 1.0
C      1  0.5527310000000  0.4387070000000  0.4871560000000 1.0
C      1  0.4442820000000  0.4364700000000  0.5135960000000 1.0
C      1  0.5567700000000  0.5643550000000  0.5134230000000 1.0
C      1  0.4355730000000  0.5131330000000  0.4434710000000 1.0
C      1  0.5585780000000  0.5132690000000  0.5535190000000 1.0
C      1  0.4424460000000  0.4857440000000  0.5545780000000 1.0
C      1  0.5126340000000  0.5559800000000  0.5594990000000 1.0
C      1  0.4857320000000  0.5545160000000  0.4363490000000 1.0
C      1  0.5140330000000  0.4449240000000  0.4356730000000 1.0
C      1  0.5613150000000  0.4507440000000  0.4874950000000 1.0
C      1  0.4856560000000  0.5641150000000  0.4475290000000 1.0
C      1  0.4545020000000  0.4857790000000  0.5629360000000 1.0
C      1  0.4380960000000  0.5469590000000  0.4873990000000 1.0
C      1  0.4343250000000  0.4472270000000  0.5140550000000 1.0
C      1  0.5659480000000  0.5529570000000  0.5136630000000 1.0
C      1  0.5139680000000  0.4351870000000  0.4464080000000 1.0
C      1  0.5122870000000  0.5628500000000  0.5463720000000 1.0
C      1  0.4881310000000  0.4428370000000  0.5469160000000 1.0
C      1  0.5456950000000  0.5126840000000  0.5607970000000 1.0
C      1  0.5532530000000  0.4866860000000  0.4389860000000 1.0
C      1  0.4464180000000  0.5135470000000  0.4335680000000 1.0
C      1  0.5039010000000  0.5623970000000  0.4787510000000 1.0
C      1  0.5615670000000  0.4729600000000  0.5028190000000 1.0
C      1  0.4761410000000  0.5022010000000  0.5632700000000 1.0
C      1  0.4960240000000  0.4383110000000  0.4795520000000 1.0
C      1  0.5047960000000  0.4399660000000  0.5261360000000 1.0
C      1  0.4950670000000  0.5611990000000  0.5256330000000 1.0
C      1  0.4366660000000  0.5262460000000  0.5037950000000 1.0
C      1  0.5549460000000  0.5185130000000  0.4932400000000 1.0
C      1  0.4389060000000  0.4795420000000  0.4947430000000 1.0
C      1  0.5251380000000  0.4946010000000  0.5630120000000 1.0
C      1  0.4790850000000  0.4954710000000  0.4422490000000 1.0
C      1  0.5216680000000  0.5049520000000  0.4386360000000 1.0
C      1  0.5610580000000  0.5023760000000  0.4736690000000 1.0
C      1  0.4773170000000  0.5608070000000  0.5055960000000 1.0
C      1  0.5047750000000  0.4735360000000  0.5631860000000 1.0
C      1  0.4391370000000  0.4973310000000  0.4762470000000 1.0
C      1  0.4391610000000  0.5056860000000  0.5201290000000 1.0
C      1  0.5560630000000  0.4922040000000  0.5193390000000 1.0
C      1  0.5213140000000  0.4372330000000  0.5059080000000 1.0
C      1  0.5220400000000  0.5602910000000  0.4966880000000 1.0
C      1  0.4793420000000  0.4463260000000  0.4959930000000 1.0
C      1  0.4953460000000  0.5194100000000  0.5582000000000 1.0
C      1  0.4970110000000  0.4783170000000  0.4394830000000 1.0
C      1  0.5043640000000  0.5228410000000  0.4407460000000 1.0
C      1  0.4413500000000  0.4518960000000  0.5383680000000 1.0
C      1  0.4510150000000  0.5382590000000  0.4401690000000 1.0
C      1  0.5385580000000  0.4407970000000  0.4518030000000 1.0
C      1  0.5582800000000  0.5476310000000  0.5375930000000 1.0
C      1  0.4416290000000  0.5457000000000  0.4621390000000 1.0
C      1  0.5578180000000  0.4522430000000  0.4627040000000 1.0
C      1  0.5484490000000  0.4615210000000  0.4417050000000 1.0
C      1  0.4533540000000  0.4612680000000  0.5584450000000 1.0
C      1  0.5449590000000  0.5377220000000  0.5564870000000 1.0
C      1  0.4613050000000  0.5577180000000  0.4522840000000 1.0
C      1  0.5373360000000  0.5586460000000  0.5452650000000 1.0
C      1  0.4629330000000  0.4421440000000  0.5461340000000 1.0
C      1  0.4515660000000  0.4418080000000  0.5374160000000 1.0
C      1  0.5388750000000  0.4505720000000  0.4410470000000 1.0
C      1  0.4411350000000  0.5370970000000  0.4507290000000 1.0
C      1  0.5488120000000  0.5584690000000  0.5368540000000 1.0
C      1  0.5482120000000  0.4414490000000  0.4625310000000 1.0
C      1  0.4515460000000  0.5562570000000  0.4627130000000 1.0
C      1  0.4610410000000  0.5486090000000  0.4409650000000 1.0
C      1  0.4631880000000  0.4509220000000  0.5573690000000 1.0
C      1  0.5360670000000  0.5487810000000  0.5556950000000 1.0
C      1  0.5579820000000  0.4620790000000  0.4526250000000 1.0
C      1  0.5563440000000  0.5374340000000  0.5475540000000 1.0
C      1  0.4427460000000  0.4618530000000  0.5487400000000 1.0
C      1  0.4838560000000  0.5336700000000  0.5259540000000 1.0
C      1  0.5296000000000  0.5222530000000  0.4837850000000 1.0
C      1  0.5243660000000  0.4848790000000  0.5360610000000 1.0
C      1  0.5131080000000  0.4659070000000  0.5263840000000 1.0
C      1  0.5030970000000  0.4617540000000  0.4706910000000 1.0
C      1  0.5103770000000  0.5353200000000  0.4762610000000 1.0
C      1  0.4662060000000  0.4787390000000  0.4865640000000 1.0
C      1  0.5364130000000  0.4682160000000  0.4987810000000 1.0
C      1  0.4638100000000  0.5267890000000  0.5118480000000 1.0
C      1  0.4730230000000  0.4993630000000  0.5366560000000 1.0
C      1  0.5253260000000  0.5060090000000  0.4645380000000 1.0
C      1  0.4773090000000  0.4879430000000  0.4678280000000 1.0
C      1  0.5314320000000  0.4822620000000  0.5237280000000 1.0
C      1  0.5214370000000  0.5338400000000  0.4869550000000 1.0
C      1  0.4833040000000  0.5215630000000  0.5338100000000 1.0
C      1  0.4642800000000  0.5145160000000  0.5195500000000 1.0
C      1  0.4658170000000  0.4894740000000  0.4758890000000 1.0
C      1  0.5360520000000  0.4983450000000  0.4687790000000 1.0
C      1  0.4781600000000  0.4706820000000  0.4847660000000 1.0
C      1  0.4739910000000  0.5356080000000  0.5148770000000 1.0
C      1  0.5264660000000  0.4632280000000  0.5072450000000 1.0
C      1  0.5131130000000  0.4746550000000  0.5370520000000 1.0
C      1  0.5116090000000  0.5247830000000  0.4670510000000 1.0
C      1  0.4956900000000  0.4729240000000  0.4658460000000 1.0
C      1  0.5231010000000  0.4380270000000  0.5417130000000 1.0
C      1  0.4376960000000  0.5405730000000  0.5231190000000 1.0
C      1  0.5404390000000  0.5209990000000  0.4404100000000 1.0
C      1  0.4769460000000  0.5614370000000  0.5412310000000 1.0
C      1  0.5202650000000  0.5613760000000  0.4607440000000 1.0
C      1  0.4798110000000  0.4399060000000  0.4611910000000 1.0
C      1  0.5617550000000  0.4588000000000  0.5221550000000 1.0
C      1  0.4388630000000  0.4605750000000  0.4795980000000 1.0
C      1  0.5596890000000  0.5400150000000  0.4807110000000 1.0
C      1  0.4602940000000  0.4797330000000  0.4399800000000 1.0
C      1  0.5414590000000  0.4769330000000  0.5626700000000 1.0
C      1  0.4610610000000  0.5209670000000  0.5614160000000 1.0
C      1  0.4415550000000  0.5195300000000  0.5406640000000 1.0
C      1  0.5416790000000  0.4387810000000  0.5209930000000 1.0
C      1  0.5202390000000  0.5413780000000  0.4406380000000 1.0
C      1  0.5597360000000  0.4791740000000  0.5404970000000 1.0
C      1  0.5604860000000  0.5219280000000  0.4599700000000 1.0
C      1  0.4394230000000  0.4800330000000  0.4586800000000 1.0
C      1  0.4577550000000  0.5603560000000  0.5217220000000 1.0
C      1  0.4591180000000  0.4410830000000  0.4809130000000 1.0
C      1  0.5407590000000  0.5612630000000  0.4806440000000 1.0
C      1  0.4806420000000  0.4597010000000  0.4408910000000 1.0
C      1  0.4800760000000  0.5402370000000  0.5601620000000 1.0
C      1  0.5230500000000  0.4577800000000  0.5622370000000 1.0
C      1  0.5219180000000  0.4661090000000  0.4416780000000 1.0
C      1  0.4649800000000  0.4466710000000  0.5190540000000 1.0
C      1  0.4442830000000  0.5187360000000  0.4647210000000 1.0
C      1  0.4777510000000  0.5325920000000  0.4405500000000 1.0
C      1  0.5181800000000  0.5345830000000  0.5504630000000 1.0
C      1  0.4810270000000  0.4743260000000  0.5486600000000 1.0
C      1  0.5349730000000  0.5572320000000  0.5182780000000 1.0
C      1  0.4685550000000  0.5532550000000  0.4788290000000 1.0
C      1  0.5301920000000  0.4428700000000  0.4778650000000 1.0
C      1  0.5498220000000  0.4778420000000  0.4683080000000 1.0
C      1  0.4412360000000  0.4795450000000  0.5318840000000 1.0
C      1  0.5555700000000  0.5210240000000  0.5309940000000 1.0
C      1  0.4677310000000  0.5220800000000  0.4398610000000 1.0
C      1  0.4398460000000  0.4689980000000  0.5220230000000 1.0
C      1  0.5206460000000  0.4416880000000  0.4672640000000 1.0
C      1  0.5310620000000  0.4774420000000  0.4413520000000 1.0
C      1  0.5264530000000  0.5225920000000  0.5523110000000 1.0
C      1  0.4743710000000  0.4707880000000  0.5610680000000 1.0
C      1  0.5574360000000  0.5312410000000  0.5206860000000 1.0
C      1  0.5497540000000  0.4684030000000  0.4781390000000 1.0
C      1  0.4443270000000  0.5273100000000  0.4765940000000 1.0
C      1  0.4786210000000  0.5546350000000  0.4682550000000 1.0
C      1  0.4765810000000  0.4482610000000  0.5277250000000 1.0
C      1  0.5229440000000  0.5575750000000  0.5264300000000 1.0
C      1  0.4846210000000  0.4770310000000  0.4737170000000 1.0
C      1  0.5222110000000  0.5168550000000  0.4727410000000 1.0
C      1  0.4732170000000  0.5117780000000  0.5295760000000 1.0
C      1  0.5236230000000  0.4715700000000  0.5181430000000 1.0
END
