TITL C-1379267-1329-156 1.3398784260598e-06 1000000 -2574.79877656437 0 0 380 (Th) n - 1
REM
REM in /nfs/bkarasulu/CARBON/AIRSS/Generating-Clusters/GAP-ML-2020/Higher-Symm/Selected-Sizes/TryA-Only_Ih-Symm/Larger-Clusters/Try2-MINAMP_6A
REM
REM
REM
REM
REM
REM ./C.cell (31579ac4e95a012ec27f3239692ae8a5)
REM
REM compiler GCC version 9.2.1 20190827 (Red Hat 9.2.1-1)
REM options -cpp -mtune=generic -march=x86-64 -g -O0 -fpre-include=/usr/include/finclude/math-vector-fortran.h
REM seed 230666136 -584790993 380423444 -1451454874 -1031263537 958720405 -1082167417 -213567022 1238977003 1021293947 1167036533 737149801 -1462197350 41264161 -64566127 564657266 -107383641 109434772 -1534560653 -923203728 -1026395822 -1259800541 276571198 497036638 123906105 -948061786 1716458000 1732148781 1850513953 -510259093 1201058619 920629207 1189425008
REM
CELL 1.54180  100.00000  100.00000  100.00000   90.00000   90.00000   90.00000
LATT -1
SFAC C  
C      1  0.5629830000000  0.5076520000000  0.5214960000000 1.0
C      1  0.5213360000000  0.5630770000000  0.5077180000000 1.0
C      1  0.5075580000000  0.5214290000000  0.5631430000000 1.0
C      1  0.4371510000000  0.4926690000000  0.5214960000000 1.0
C      1  0.4371510000000  0.5076520000000  0.4789580000000 1.0
C      1  0.5629830000000  0.4926690000000  0.4789580000000 1.0
C      1  0.4787980000000  0.4372440000000  0.5077180000000 1.0
C      1  0.4787980000000  0.5630760000000  0.4927360000000 1.0
C      1  0.5213360000000  0.4372440000000  0.4927360000000 1.0
C      1  0.4925760000000  0.4788920000000  0.5631430000000 1.0
C      1  0.4925760000000  0.5214290000000  0.4373110000000 1.0
C      1  0.5075580000000  0.4788920000000  0.4373110000000 1.0
C      1  0.5629830000000  0.5076520000000  0.4789580000000 1.0
C      1  0.5213360000000  0.5630770000000  0.4927360000000 1.0
C      1  0.5075580000000  0.5214290000000  0.4373110000000 1.0
C      1  0.4371510000000  0.4926690000000  0.4789580000000 1.0
C      1  0.4371510000000  0.5076520000000  0.5214960000000 1.0
C      1  0.5629830000000  0.4926690000000  0.5214960000000 1.0
C      1  0.4787980000000  0.4372440000000  0.4927360000000 1.0
C      1  0.4787980000000  0.5630760000000  0.5077180000000 1.0
C      1  0.5213360000000  0.4372440000000  0.5077180000000 1.0
C      1  0.4925760000000  0.4788920000000  0.4373110000000 1.0
C      1  0.4925760000000  0.5214290000000  0.5631430000000 1.0
C      1  0.5075580000000  0.4788920000000  0.5631430000000 1.0
C      1  0.4550970000000  0.4924660000000  0.4411340000000 1.0
C      1  0.4409730000000  0.4551900000000  0.4925330000000 1.0
C      1  0.4923720000000  0.4410670000000  0.4552570000000 1.0
C      1  0.5450370000000  0.5078550000000  0.4411340000000 1.0
C      1  0.5450370000000  0.4924660000000  0.5593210000000 1.0
C      1  0.4550970000000  0.5078550000000  0.5593210000000 1.0
C      1  0.5591600000000  0.5451300000000  0.4925330000000 1.0
C      1  0.5591600000000  0.4551900000000  0.5079220000000 1.0
C      1  0.4409730000000  0.5451300000000  0.5079220000000 1.0
C      1  0.5077610000000  0.5592540000000  0.4552570000000 1.0
C      1  0.5077610000000  0.4410670000000  0.5451970000000 1.0
C      1  0.4923720000000  0.5592540000000  0.5451970000000 1.0
C      1  0.4550970000000  0.4924660000000  0.5593210000000 1.0
C      1  0.4409730000000  0.4551900000000  0.5079220000000 1.0
C      1  0.4923720000000  0.4410670000000  0.5451970000000 1.0
C      1  0.5450370000000  0.5078550000000  0.5593210000000 1.0
C      1  0.5450370000000  0.4924660000000  0.4411340000000 1.0
C      1  0.4550970000000  0.5078550000000  0.4411340000000 1.0
C      1  0.5591600000000  0.5451300000000  0.5079220000000 1.0
C      1  0.5591600000000  0.4551900000000  0.4925330000000 1.0
C      1  0.4409730000000  0.5451300000000  0.4925330000000 1.0
C      1  0.5077610000000  0.5592540000000  0.5451970000000 1.0
C      1  0.5077610000000  0.4410670000000  0.4552570000000 1.0
C      1  0.4923720000000  0.5592540000000  0.4552570000000 1.0
C      1  0.5667240000000  0.5192740000000  0.4487580000000 1.0
C      1  0.4485980000000  0.5668180000000  0.5193410000000 1.0
C      1  0.5191810000000  0.4486910000000  0.5668850000000 1.0
C      1  0.4334090000000  0.4810470000000  0.4487580000000 1.0
C      1  0.4334090000000  0.5192740000000  0.5516960000000 1.0
C      1  0.5667240000000  0.4810470000000  0.5516960000000 1.0
C      1  0.5515360000000  0.4335030000000  0.5193410000000 1.0
C      1  0.5515360000000  0.5668180000000  0.4811130000000 1.0
C      1  0.4485980000000  0.4335030000000  0.4811130000000 1.0
C      1  0.4809530000000  0.5516290000000  0.5668850000000 1.0
C      1  0.4809530000000  0.4486920000000  0.4335700000000 1.0
C      1  0.5191810000000  0.5516290000000  0.4335700000000 1.0
C      1  0.5667240000000  0.5192740000000  0.5516960000000 1.0
C      1  0.4485980000000  0.5668180000000  0.4811130000000 1.0
C      1  0.5191810000000  0.4486910000000  0.4335700000000 1.0
C      1  0.4334090000000  0.4810470000000  0.5516960000000 1.0
C      1  0.4334090000000  0.5192740000000  0.4487580000000 1.0
C      1  0.5667240000000  0.4810470000000  0.4487580000000 1.0
C      1  0.5515360000000  0.4335030000000  0.4811130000000 1.0
C      1  0.5515360000000  0.5668180000000  0.5193410000000 1.0
C      1  0.4485980000000  0.4335030000000  0.5193410000000 1.0
C      1  0.4809530000000  0.5516290000000  0.4335700000000 1.0
C      1  0.4809530000000  0.4486920000000  0.5668850000000 1.0
C      1  0.5191810000000  0.5516290000000  0.5668850000000 1.0
C      1  0.5631010000000  0.4471210000000  0.5533960000000 1.0
C      1  0.5532360000000  0.5631950000000  0.4471880000000 1.0
C      1  0.4470280000000  0.5533290000000  0.5632620000000 1.0
C      1  0.4370320000000  0.5532000000000  0.5533960000000 1.0
C      1  0.4370320000000  0.4471210000000  0.4470580000000 1.0
C      1  0.5631010000000  0.5532000000000  0.4470580000000 1.0
C      1  0.4468980000000  0.4371260000000  0.4471880000000 1.0
C      1  0.4468980000000  0.5631950000000  0.5532660000000 1.0
C      1  0.5532360000000  0.4371260000000  0.5532660000000 1.0
C      1  0.5531060000000  0.4469910000000  0.5632620000000 1.0
C      1  0.5531060000000  0.5533290000000  0.4371930000000 1.0
C      1  0.4470280000000  0.4469910000000  0.4371930000000 1.0
C      1  0.5631010000000  0.4471210000000  0.4470580000000 1.0
C      1  0.5532360000000  0.5631950000000  0.5532660000000 1.0
C      1  0.4470280000000  0.5533290000000  0.4371930000000 1.0
C      1  0.4370320000000  0.5532000000000  0.4470580000000 1.0
C      1  0.4370320000000  0.4471210000000  0.5533960000000 1.0
C      1  0.5631010000000  0.5532000000000  0.5533960000000 1.0
C      1  0.4468980000000  0.4371260000000  0.5532660000000 1.0
C      1  0.4468980000000  0.5631950000000  0.4471880000000 1.0
C      1  0.5532360000000  0.4371260000000  0.4471880000000 1.0
C      1  0.5531060000000  0.4469910000000  0.4371930000000 1.0
C      1  0.5531060000000  0.5533290000000  0.5632620000000 1.0
C      1  0.4470280000000  0.4469910000000  0.5632620000000 1.0
C      1  0.4294580000000  0.5440110000000  0.4540920000000 1.0
C      1  0.4539320000000  0.4295520000000  0.5440780000000 1.0
C      1  0.5439180000000  0.4540250000000  0.4296190000000 1.0
C      1  0.5706750000000  0.4563090000000  0.4540920000000 1.0
C      1  0.5706750000000  0.5440110000000  0.5463620000000 1.0
C      1  0.4294580000000  0.4563090000000  0.5463620000000 1.0
C      1  0.5462020000000  0.5707690000000  0.5440780000000 1.0
C      1  0.5462020000000  0.4295520000000  0.4563760000000 1.0
C      1  0.4539320000000  0.5707690000000  0.4563760000000 1.0
C      1  0.4562160000000  0.5462960000000  0.4296190000000 1.0
C      1  0.4562160000000  0.4540250000000  0.5708360000000 1.0
C      1  0.5439180000000  0.5462960000000  0.5708360000000 1.0
C      1  0.4294580000000  0.5440110000000  0.5463620000000 1.0
C      1  0.4539320000000  0.4295520000000  0.4563760000000 1.0
C      1  0.5439180000000  0.4540250000000  0.5708360000000 1.0
C      1  0.5706750000000  0.4563090000000  0.5463620000000 1.0
C      1  0.5706750000000  0.5440110000000  0.4540920000000 1.0
C      1  0.4294580000000  0.4563090000000  0.4540920000000 1.0
C      1  0.5462020000000  0.5707690000000  0.4563760000000 1.0
C      1  0.5462020000000  0.4295520000000  0.5440780000000 1.0
C      1  0.4539320000000  0.5707690000000  0.5440780000000 1.0
C      1  0.4562160000000  0.5462950000000  0.5708360000000 1.0
C      1  0.4562160000000  0.4540250000000  0.4296190000000 1.0
C      1  0.5439180000000  0.5462960000000  0.4296190000000 1.0
C      1  0.4939220000000  0.4493470000000  0.4274350000000 1.0
C      1  0.4272750000000  0.4940160000000  0.4494140000000 1.0
C      1  0.4492540000000  0.4273680000000  0.4940830000000 1.0
C      1  0.5062110000000  0.5509740000000  0.4274350000000 1.0
C      1  0.5062110000000  0.4493470000000  0.5730190000000 1.0
C      1  0.4939220000000  0.5509740000000  0.5730190000000 1.0
C      1  0.5728590000000  0.5063050000000  0.4494140000000 1.0
C      1  0.5728590000000  0.4940160000000  0.5510400000000 1.0
C      1  0.4272750000000  0.5063050000000  0.5510400000000 1.0
C      1  0.5508800000000  0.5729520000000  0.4940830000000 1.0
C      1  0.5508800000000  0.4273680000000  0.5063720000000 1.0
C      1  0.4492540000000  0.5729520000000  0.5063720000000 1.0
C      1  0.4939220000000  0.4493470000000  0.5730190000000 1.0
C      1  0.4272750000000  0.4940160000000  0.5510400000000 1.0
C      1  0.4492540000000  0.4273680000000  0.5063720000000 1.0
C      1  0.5062110000000  0.5509740000000  0.5730190000000 1.0
C      1  0.5062110000000  0.4493470000000  0.4274350000000 1.0
C      1  0.4939220000000  0.5509740000000  0.4274350000000 1.0
C      1  0.5728590000000  0.5063050000000  0.5510400000000 1.0
C      1  0.5728590000000  0.4940160000000  0.4494140000000 1.0
C      1  0.4272750000000  0.5063050000000  0.4494140000000 1.0
C      1  0.5508800000000  0.5729520000000  0.5063720000000 1.0
C      1  0.5508800000000  0.4273680000000  0.4940830000000 1.0
C      1  0.4492540000000  0.5729520000000  0.4940830000000 1.0
C      1  0.4742010000000  0.4572410000000  0.4565430000000 1.0
C      1  0.4563820000000  0.4742940000000  0.4573080000000 1.0
C      1  0.4571480000000  0.4564760000000  0.4743610000000 1.0
C      1  0.5259330000000  0.5430800000000  0.4565430000000 1.0
C      1  0.5259330000000  0.4572410000000  0.5439120000000 1.0
C      1  0.4742010000000  0.5430800000000  0.5439120000000 1.0
C      1  0.5437510000000  0.5260260000000  0.4573080000000 1.0
C      1  0.5437510000000  0.4742940000000  0.5431460000000 1.0
C      1  0.4563820000000  0.5260260000000  0.5431460000000 1.0
C      1  0.5429860000000  0.5438450000000  0.4743610000000 1.0
C      1  0.5429860000000  0.4564760000000  0.5260930000000 1.0
C      1  0.4571480000000  0.5438450000000  0.5260930000000 1.0
C      1  0.4742010000000  0.4572410000000  0.5439120000000 1.0
C      1  0.4563820000000  0.4742940000000  0.5431460000000 1.0
C      1  0.4571480000000  0.4564760000000  0.5260930000000 1.0
C      1  0.5259330000000  0.5430800000000  0.5439120000000 1.0
C      1  0.5259330000000  0.4572410000000  0.4565430000000 1.0
C      1  0.4742010000000  0.5430800000000  0.4565430000000 1.0
C      1  0.5437510000000  0.5260260000000  0.5431460000000 1.0
C      1  0.5437510000000  0.4742940000000  0.4573080000000 1.0
C      1  0.4563820000000  0.5260260000000  0.4573080000000 1.0
C      1  0.5429860000000  0.5438450000000  0.5260930000000 1.0
C      1  0.5429860000000  0.4564760000000  0.4743610000000 1.0
C      1  0.4571480000000  0.5438450000000  0.4743610000000 1.0
C      1  0.4857520000000  0.4886010000000  0.4299120000000 1.0
C      1  0.4297520000000  0.4858460000000  0.4886680000000 1.0
C      1  0.4885070000000  0.4298460000000  0.4859120000000 1.0
C      1  0.5143820000000  0.5117200000000  0.4299120000000 1.0
C      1  0.5143810000000  0.4886010000000  0.5705420000000 1.0
C      1  0.4857520000000  0.5117200000000  0.5705420000000 1.0
C      1  0.5703820000000  0.5144750000000  0.4886680000000 1.0
C      1  0.5703820000000  0.4858460000000  0.5117870000000 1.0
C      1  0.4297520000000  0.5144750000000  0.5117870000000 1.0
C      1  0.5116260000000  0.5704750000000  0.4859120000000 1.0
C      1  0.5116260000000  0.4298450000000  0.5145420000000 1.0
C      1  0.4885070000000  0.5704750000000  0.5145420000000 1.0
C      1  0.4857520000000  0.4886010000000  0.5705420000000 1.0
C      1  0.4297520000000  0.4858460000000  0.5117870000000 1.0
C      1  0.4885070000000  0.4298460000000  0.5145420000000 1.0
C      1  0.5143810000000  0.5117200000000  0.5705420000000 1.0
C      1  0.5143820000000  0.4886010000000  0.4299120000000 1.0
C      1  0.4857520000000  0.5117200000000  0.4299120000000 1.0
C      1  0.5703820000000  0.5144750000000  0.5117870000000 1.0
C      1  0.5703820000000  0.4858460000000  0.4886680000000 1.0
C      1  0.4297520000000  0.5144750000000  0.4886680000000 1.0
C      1  0.5116260000000  0.5704750000000  0.5145420000000 1.0
C      1  0.5116260000000  0.4298450000000  0.4859120000000 1.0
C      1  0.4885070000000  0.5704750000000  0.4859120000000 1.0
C      1  0.5398970000000  0.5152530000000  0.5334160000000 1.0
C      1  0.5332550000000  0.5399910000000  0.5153200000000 1.0
C      1  0.5151590000000  0.5333490000000  0.5400580000000 1.0
C      1  0.4602360000000  0.4850680000000  0.5334160000000 1.0
C      1  0.4602360000000  0.5152530000000  0.4670390000000 1.0
C      1  0.5398970000000  0.4850680000000  0.4670390000000 1.0
C      1  0.4668780000000  0.4603300000000  0.5153200000000 1.0
C      1  0.4668780000000  0.5399910000000  0.4851350000000 1.0
C      1  0.5332550000000  0.4603300000000  0.4851350000000 1.0
C      1  0.4849740000000  0.4669720000000  0.5400580000000 1.0
C      1  0.4849740000000  0.5333490000000  0.4603970000000 1.0
C      1  0.5151590000000  0.4669720000000  0.4603970000000 1.0
C      1  0.5398970000000  0.5152530000000  0.4670390000000 1.0
C      1  0.5332550000000  0.5399910000000  0.4851350000000 1.0
C      1  0.5151590000000  0.5333490000000  0.4603970000000 1.0
C      1  0.4602360000000  0.4850680000000  0.4670390000000 1.0
C      1  0.4602360000000  0.5152530000000  0.5334160000000 1.0
C      1  0.5398970000000  0.4850680000000  0.5334160000000 1.0
C      1  0.4668780000000  0.4603300000000  0.4851350000000 1.0
C      1  0.4668780000000  0.5399910000000  0.5153200000000 1.0
C      1  0.5332550000000  0.4603300000000  0.5153200000000 1.0
C      1  0.4849740000000  0.4669720000000  0.4603970000000 1.0
C      1  0.4849740000000  0.5333490000000  0.5400580000000 1.0
C      1  0.5151590000000  0.4669720000000  0.5400580000000 1.0
C      1  0.4506700000000  0.5075940000000  0.5264370000000 1.0
C      1  0.5262760000000  0.4507630000000  0.5076600000000 1.0
C      1  0.5075000000000  0.5263700000000  0.4508300000000 1.0
C      1  0.5494640000000  0.4927270000000  0.5264370000000 1.0
C      1  0.5494640000000  0.5075940000000  0.4740180000000 1.0
C      1  0.4506700000000  0.4927270000000  0.4740180000000 1.0
C      1  0.4738570000000  0.5495570000000  0.5076600000000 1.0
C      1  0.4738570000000  0.4507630000000  0.4927940000000 1.0
C      1  0.5262760000000  0.5495570000000  0.4927940000000 1.0
C      1  0.4926340000000  0.4739510000000  0.4508300000000 1.0
C      1  0.4926340000000  0.5263700000000  0.5496240000000 1.0
C      1  0.5075000000000  0.4739510000000  0.5496240000000 1.0
C      1  0.4506700000000  0.5075940000000  0.4740180000000 1.0
C      1  0.5262760000000  0.4507630000000  0.4927940000000 1.0
C      1  0.5075000000000  0.5263700000000  0.5496240000000 1.0
C      1  0.5494640000000  0.4927270000000  0.4740180000000 1.0
C      1  0.5494640000000  0.5075940000000  0.5264370000000 1.0
C      1  0.4506700000000  0.4927270000000  0.5264370000000 1.0
C      1  0.4738570000000  0.5495570000000  0.4927940000000 1.0
C      1  0.4738570000000  0.4507630000000  0.5076600000000 1.0
C      1  0.5262760000000  0.5495570000000  0.5076600000000 1.0
C      1  0.4926340000000  0.4739510000000  0.5496240000000 1.0
C      1  0.4926340000000  0.5263700000000  0.4508300000000 1.0
C      1  0.5075000000000  0.4739510000000  0.4508300000000 1.0
C      1  0.5074940000000  0.4176560000000  0.5073170000000 1.0
C      1  0.5071560000000  0.5075880000000  0.4177230000000 1.0
C      1  0.4175620000000  0.5072500000000  0.5076550000000 1.0
C      1  0.4926390000000  0.5826650000000  0.5073170000000 1.0
C      1  0.4926390000000  0.4176560000000  0.4931380000000 1.0
C      1  0.5074940000000  0.5826650000000  0.4931380000000 1.0
C      1  0.4929770000000  0.4927330000000  0.4177230000000 1.0
C      1  0.4929770000000  0.5075880000000  0.5827320000000 1.0
C      1  0.5071560000000  0.4927330000000  0.5827320000000 1.0
C      1  0.5825710000000  0.4930710000000  0.5076550000000 1.0
C      1  0.5825710000000  0.5072500000000  0.4928000000000 1.0
C      1  0.4175620000000  0.4930710000000  0.4928000000000 1.0
C      1  0.5074940000000  0.4176560000000  0.4931380000000 1.0
C      1  0.5071560000000  0.5075880000000  0.5827320000000 1.0
C      1  0.4175620000000  0.5072500000000  0.4928000000000 1.0
C      1  0.4926390000000  0.5826650000000  0.4931380000000 1.0
C      1  0.4926390000000  0.4176560000000  0.5073170000000 1.0
C      1  0.5074940000000  0.5826650000000  0.5073170000000 1.0
C      1  0.4929770000000  0.4927330000000  0.5827320000000 1.0
C      1  0.4929770000000  0.5075880000000  0.4177230000000 1.0
C      1  0.5071560000000  0.4927330000000  0.4177230000000 1.0
C      1  0.5825710000000  0.4930710000000  0.4928000000000 1.0
C      1  0.5825710000000  0.5072500000000  0.5076550000000 1.0
C      1  0.4175620000000  0.4930710000000  0.5076550000000 1.0
C      1  0.5473440000000  0.5721940000000  0.4688430000000 1.0
C      1  0.4686820000000  0.5474380000000  0.5722600000000 1.0
C      1  0.5721000000000  0.4687760000000  0.5475050000000 1.0
C      1  0.4527890000000  0.4281270000000  0.4688430000000 1.0
C      1  0.4527890000000  0.5721940000000  0.5316120000000 1.0
C      1  0.5473440000000  0.4281270000000  0.5316120000000 1.0
C      1  0.5314510000000  0.4528830000000  0.5722600000000 1.0
C      1  0.5314510000000  0.5474380000000  0.4281940000000 1.0
C      1  0.4686820000000  0.4528830000000  0.4281940000000 1.0
C      1  0.4280330000000  0.5315450000000  0.5475050000000 1.0
C      1  0.4280340000000  0.4687760000000  0.4529500000000 1.0
C      1  0.5721000000000  0.5315450000000  0.4529500000000 1.0
C      1  0.5473440000000  0.5721940000000  0.5316120000000 1.0
C      1  0.4686820000000  0.5474380000000  0.4281940000000 1.0
C      1  0.5721000000000  0.4687760000000  0.4529500000000 1.0
C      1  0.4527890000000  0.4281270000000  0.5316120000000 1.0
C      1  0.4527890000000  0.5721940000000  0.4688430000000 1.0
C      1  0.5473440000000  0.4281270000000  0.4688430000000 1.0
C      1  0.5314510000000  0.4528830000000  0.4281940000000 1.0
C      1  0.5314510000000  0.5474380000000  0.5722600000000 1.0
C      1  0.4686820000000  0.4528830000000  0.5722600000000 1.0
C      1  0.4280330000000  0.5315450000000  0.4529500000000 1.0
C      1  0.4280330000000  0.4687760000000  0.5475050000000 1.0
C      1  0.5721000000000  0.5315450000000  0.5475050000000 1.0
C      1  0.4691580000000  0.4918320000000  0.5550940000000 1.0
C      1  0.5549340000000  0.4692520000000  0.4918990000000 1.0
C      1  0.4917380000000  0.5550280000000  0.4693180000000 1.0
C      1  0.5309760000000  0.5084890000000  0.5550940000000 1.0
C      1  0.5309760000000  0.4918320000000  0.4453600000000 1.0
C      1  0.4691580000000  0.5084890000000  0.4453600000000 1.0
C      1  0.4452000000000  0.5310690000000  0.4918990000000 1.0
C      1  0.4451990000000  0.4692520000000  0.5085560000000 1.0
C      1  0.5549340000000  0.5310690000000  0.5085560000000 1.0
C      1  0.5083950000000  0.4452930000000  0.4693180000000 1.0
C      1  0.5083950000000  0.5550280000000  0.5311360000000 1.0
C      1  0.4917380000000  0.4452930000000  0.5311360000000 1.0
C      1  0.4691580000000  0.4918320000000  0.4453600000000 1.0
C      1  0.5549340000000  0.4692520000000  0.5085560000000 1.0
C      1  0.4917380000000  0.5550280000000  0.5311360000000 1.0
C      1  0.5309760000000  0.5084890000000  0.4453600000000 1.0
C      1  0.5309760000000  0.4918320000000  0.5550940000000 1.0
C      1  0.4691580000000  0.5084890000000  0.5550940000000 1.0
C      1  0.4452000000000  0.5310690000000  0.5085560000000 1.0
C      1  0.4451990000000  0.4692520000000  0.4918990000000 1.0
C      1  0.5549340000000  0.5310690000000  0.4918990000000 1.0
C      1  0.5083950000000  0.4452930000000  0.5311360000000 1.0
C      1  0.5083950000000  0.5550280000000  0.4693180000000 1.0
C      1  0.4917380000000  0.4452930000000  0.4693180000000 1.0
C      1  0.5401190000000  0.4698770000000  0.4932500000000 1.0
C      1  0.4930890000000  0.5402120000000  0.4699440000000 1.0
C      1  0.4697830000000  0.4931830000000  0.5402790000000 1.0
C      1  0.4600150000000  0.5304440000000  0.4932500000000 1.0
C      1  0.4600150000000  0.4698770000000  0.5072050000000 1.0
C      1  0.5401190000000  0.5304440000000  0.5072050000000 1.0
C      1  0.5070440000000  0.4601080000000  0.4699440000000 1.0
C      1  0.5070440000000  0.5402120000000  0.5305110000000 1.0
C      1  0.4930890000000  0.4601080000000  0.5305110000000 1.0
C      1  0.5303500000000  0.5071380000000  0.5402790000000 1.0
C      1  0.5303500000000  0.4931830000000  0.4601750000000 1.0
C      1  0.4697830000000  0.5071380000000  0.4601750000000 1.0
C      1  0.5401190000000  0.4698770000000  0.5072050000000 1.0
C      1  0.4930890000000  0.5402120000000  0.5305110000000 1.0
C      1  0.4697830000000  0.4931830000000  0.4601750000000 1.0
C      1  0.4600150000000  0.5304440000000  0.5072050000000 1.0
C      1  0.4600150000000  0.4698770000000  0.4932500000000 1.0
C      1  0.5401190000000  0.5304440000000  0.4932500000000 1.0
C      1  0.5070440000000  0.4601080000000  0.5305110000000 1.0
C      1  0.5070440000000  0.5402120000000  0.4699440000000 1.0
C      1  0.4930890000000  0.4601080000000  0.4699440000000 1.0
C      1  0.5303500000000  0.5071380000000  0.4601750000000 1.0
C      1  0.5303500000000  0.4931830000000  0.5402790000000 1.0
C      1  0.4697830000000  0.5071380000000  0.5402790000000 1.0
C      1  0.4815010000000  0.5537910000000  0.5523600000000 1.0
C      1  0.5521990000000  0.4815950000000  0.5538570000000 1.0
C      1  0.5536970000000  0.5522930000000  0.4816620000000 1.0
C      1  0.5186320000000  0.4465300000000  0.5523600000000 1.0
C      1  0.5186320000000  0.5537910000000  0.4480950000000 1.0
C      1  0.4815010000000  0.4465300000000  0.4480950000000 1.0
C      1  0.4479340000000  0.5187260000000  0.5538570000000 1.0
C      1  0.4479340000000  0.4815950000000  0.4465970000000 1.0
C      1  0.5521990000000  0.5187260000000  0.4465970000000 1.0
C      1  0.4464360000000  0.4480280000000  0.4816620000000 1.0
C      1  0.4464360000000  0.5522930000000  0.5187930000000 1.0
C      1  0.5536970000000  0.4480280000000  0.5187930000000 1.0
C      1  0.4815010000000  0.5537910000000  0.4480950000000 1.0
C      1  0.5521990000000  0.4815950000000  0.4465970000000 1.0
C      1  0.5536970000000  0.5522930000000  0.5187930000000 1.0
C      1  0.5186320000000  0.4465300000000  0.4480950000000 1.0
C      1  0.5186320000000  0.5537910000000  0.5523600000000 1.0
C      1  0.4815010000000  0.4465300000000  0.5523600000000 1.0
C      1  0.4479340000000  0.5187260000000  0.4465970000000 1.0
C      1  0.4479340000000  0.4815950000000  0.5538570000000 1.0
C      1  0.5521990000000  0.5187260000000  0.5538570000000 1.0
C      1  0.4464360000000  0.4480280000000  0.5187930000000 1.0
C      1  0.4464360000000  0.5522930000000  0.4816620000000 1.0
C      1  0.5536970000000  0.4480280000000  0.4816620000000 1.0
C      1  0.5215040000000  0.5001600000000  0.4365810000000 1.0
C      1  0.4786300000000  0.5001600000000  0.5638730000000 1.0
C      1  0.4364210000000  0.4787240000000  0.5002270000000 1.0
C      1  0.5000670000000  0.4365140000000  0.4787900000000 1.0
C      1  0.4786300000000  0.5001600000000  0.4365810000000 1.0
C      1  0.5637130000000  0.5215970000000  0.5002270000000 1.0
C      1  0.5637130000000  0.4787240000000  0.5002270000000 1.0
C      1  0.4364210000000  0.5215970000000  0.5002270000000 1.0
C      1  0.5000670000000  0.5638070000000  0.4787900000000 1.0
C      1  0.5000670000000  0.4365140000000  0.5216640000000 1.0
C      1  0.5000670000000  0.5638070000000  0.5216640000000 1.0
C      1  0.5215040000000  0.5001600000000  0.5638730000000 1.0
C      1  0.4604650000000  0.5397620000000  0.4606250000000 1.0
C      1  0.5396690000000  0.4605580000000  0.4606250000000 1.0
C      1  0.4604650000000  0.5397620000000  0.5398290000000 1.0
C      1  0.5396690000000  0.4605580000000  0.5398290000000 1.0
C      1  0.5396690000000  0.5397620000000  0.5398290000000 1.0
C      1  0.4604650000000  0.4605580000000  0.5398290000000 1.0
C      1  0.5396690000000  0.5397620000000  0.4606250000000 1.0
C      1  0.4604650000000  0.4605580000000  0.4606250000000 1.0
END
