TITL C-1379265-1223-479 -2.36142189067888e-09 1000000 -2210.71751115207 0 0 320 (Th) n - 1
REM
REM in /nfs/bkarasulu/CARBON/AIRSS/Generating-Clusters/GAP-ML-2020/Higher-Symm/Selected-Sizes/TryA-Only_Ih-Symm/Larger-Clusters/Try2-MINAMP_6A
REM
REM
REM
REM
REM
REM ./C.cell (31579ac4e95a012ec27f3239692ae8a5)
REM
REM compiler GCC version 9.2.1 20190827 (Red Hat 9.2.1-1)
REM options -cpp -mtune=generic -march=x86-64 -g -O0 -fpre-include=/usr/include/finclude/math-vector-fortran.h
REM seed -127327868 1834804458 -672020575 325531338 -588428462 1607285759 -4760910 -757552625 1166227503 878662648 986227019 1852471219 232207066 1244229591 660364946 957858807 766435953 -1669621784 377774906 1485208948 1638937897 999613497 -1396470985 -927704349 132399789 -586412265 1598415972 -1075167130 -244191410 -1771865715 -1242717159 -280849900 1037071376
REM
CELL 1.54180  100.00000  100.00000  100.00000   90.00000   90.00000   90.00000
LATT -1
SFAC C  
C      1  0.5166910000000  0.5067840000000  0.5840540000000 1.0
C      1  0.5839760000000  0.5167160000000  0.5068350000000 1.0
C      1  0.5067590000000  0.5840010000000  0.5167700000000 1.0
C      1  0.5166910000000  0.4930580000000  0.4158960000000 1.0
C      1  0.4831010000000  0.4930580000000  0.5840540000000 1.0
C      1  0.4831000000000  0.5067840000000  0.4158960000000 1.0
C      1  0.5839740000000  0.4831260000000  0.4931090000000 1.0
C      1  0.4158180000000  0.4831260000000  0.5068410000000 1.0
C      1  0.4158150000000  0.5167160000000  0.4931150000000 1.0
C      1  0.5067570000000  0.4158420000000  0.4831790000000 1.0
C      1  0.4930330000000  0.4158430000000  0.5167700000000 1.0
C      1  0.4930320000000  0.5840000000000  0.4831800000000 1.0
C      1  0.4831010000000  0.5067840000000  0.5840540000000 1.0
C      1  0.4158180000000  0.5167160000000  0.5068410000000 1.0
C      1  0.4930330000000  0.5840000000000  0.5167700000000 1.0
C      1  0.4831000000000  0.4930580000000  0.4158960000000 1.0
C      1  0.5166910000000  0.4930580000000  0.5840540000000 1.0
C      1  0.5166910000000  0.5067840000000  0.4158960000000 1.0
C      1  0.4158150000000  0.4831260000000  0.4931150000000 1.0
C      1  0.5839760000000  0.4831260000000  0.5068350000000 1.0
C      1  0.5839740000000  0.5167160000000  0.4931090000000 1.0
C      1  0.4930320000000  0.4158430000000  0.4831800000000 1.0
C      1  0.5067590000000  0.4158420000000  0.5167700000000 1.0
C      1  0.5067570000000  0.5840000000000  0.4831790000000 1.0
C      1  0.4377530000000  0.4698370000000  0.4927000000000 1.0
C      1  0.4926210000000  0.4377800000000  0.4698900000000 1.0
C      1  0.4698100000000  0.4926480000000  0.4378330000000 1.0
C      1  0.4377550000000  0.5300050000000  0.5072470000000 1.0
C      1  0.5620370000000  0.5300050000000  0.4927040000000 1.0
C      1  0.5620380000000  0.4698370000000  0.5072500000000 1.0
C      1  0.4926250000000  0.5620620000000  0.5300590000000 1.0
C      1  0.5071680000000  0.5620620000000  0.4698910000000 1.0
C      1  0.5071720000000  0.4377790000000  0.5300590000000 1.0
C      1  0.4698130000000  0.5071950000000  0.5621150000000 1.0
C      1  0.5299800000000  0.5071950000000  0.4378340000000 1.0
C      1  0.5299810000000  0.4926480000000  0.5621180000000 1.0
C      1  0.5620370000000  0.4698370000000  0.4927040000000 1.0
C      1  0.5071680000000  0.4377800000000  0.4698910000000 1.0
C      1  0.5299800000000  0.4926480000000  0.4378340000000 1.0
C      1  0.5620380000000  0.5300050000000  0.5072500000000 1.0
C      1  0.4377530000000  0.5300060000000  0.4927000000000 1.0
C      1  0.4377550000000  0.4698370000000  0.5072470000000 1.0
C      1  0.5071720000000  0.5620630000000  0.5300590000000 1.0
C      1  0.4926210000000  0.5620630000000  0.4698900000000 1.0
C      1  0.4926250000000  0.4377800000000  0.5300590000000 1.0
C      1  0.5299810000000  0.5071940000000  0.5621180000000 1.0
C      1  0.4698100000000  0.5071940000000  0.4378330000000 1.0
C      1  0.4698130000000  0.4926480000000  0.5621150000000 1.0
C      1  0.4934330000000  0.5666820000000  0.4346640000000 1.0
C      1  0.4345870000000  0.4934570000000  0.5667310000000 1.0
C      1  0.5666580000000  0.4346110000000  0.4935130000000 1.0
C      1  0.4934330000000  0.4331600000000  0.5652850000000 1.0
C      1  0.5063610000000  0.4331600000000  0.4346650000000 1.0
C      1  0.5063600000000  0.5666820000000  0.5652870000000 1.0
C      1  0.4345830000000  0.5063850000000  0.4332090000000 1.0
C      1  0.5652090000000  0.5063850000000  0.5667410000000 1.0
C      1  0.5652070000000  0.4934570000000  0.4332190000000 1.0
C      1  0.5666600000000  0.5652320000000  0.5064410000000 1.0
C      1  0.4331360000000  0.5652330000000  0.4935090000000 1.0
C      1  0.4331370000000  0.4346100000000  0.5064370000000 1.0
C      1  0.5063610000000  0.5666820000000  0.4346650000000 1.0
C      1  0.5652090000000  0.4934570000000  0.5667410000000 1.0
C      1  0.4331360000000  0.4346090000000  0.4935090000000 1.0
C      1  0.5063600000000  0.4331600000000  0.5652870000000 1.0
C      1  0.4934330000000  0.4331610000000  0.4346640000000 1.0
C      1  0.4934330000000  0.5666820000000  0.5652850000000 1.0
C      1  0.5652070000000  0.5063850000000  0.4332190000000 1.0
C      1  0.4345870000000  0.5063850000000  0.5667310000000 1.0
C      1  0.4345830000000  0.4934570000000  0.4332090000000 1.0
C      1  0.4331370000000  0.5652320000000  0.5064370000000 1.0
C      1  0.5666580000000  0.5652310000000  0.4935130000000 1.0
C      1  0.5666600000000  0.4346100000000  0.5064410000000 1.0
C      1  0.4600150000000  0.5070560000000  0.5409590000000 1.0
C      1  0.5408850000000  0.4600320000000  0.5071140000000 1.0
C      1  0.5070300000000  0.5409080000000  0.4600880000000 1.0
C      1  0.4600030000000  0.4927860000000  0.4589850000000 1.0
C      1  0.5397880000000  0.4927860000000  0.5409650000000 1.0
C      1  0.5397780000000  0.5070560000000  0.4589900000000 1.0
C      1  0.5408820000000  0.5398080000000  0.4928430000000 1.0
C      1  0.4589110000000  0.5398060000000  0.5071070000000 1.0
C      1  0.4589080000000  0.4600350000000  0.4928370000000 1.0
C      1  0.5070340000000  0.4589330000000  0.5398630000000 1.0
C      1  0.4927590000000  0.4589350000000  0.4600880000000 1.0
C      1  0.4927640000000  0.5409080000000  0.5398610000000 1.0
C      1  0.5397880000000  0.5070570000000  0.5409650000000 1.0
C      1  0.4589110000000  0.4600370000000  0.5071070000000 1.0
C      1  0.4927590000000  0.5409080000000  0.4600880000000 1.0
C      1  0.5397780000000  0.4927860000000  0.4589910000000 1.0
C      1  0.4600150000000  0.4927860000000  0.5409590000000 1.0
C      1  0.4600030000000  0.5070570000000  0.4589850000000 1.0
C      1  0.4589080000000  0.5398080000000  0.4928370000000 1.0
C      1  0.5408850000000  0.5398100000000  0.5071140000000 1.0
C      1  0.5408820000000  0.4600340000000  0.4928430000000 1.0
C      1  0.4927640000000  0.4589350000000  0.5398610000000 1.0
C      1  0.5070300000000  0.4589350000000  0.4600880000000 1.0
C      1  0.5070340000000  0.5409090000000  0.5398630000000 1.0
C      1  0.5603570000000  0.4817530000000  0.5628880000000 1.0
C      1  0.5628070000000  0.5603780000000  0.4818090000000 1.0
C      1  0.4817280000000  0.5628300000000  0.5604320000000 1.0
C      1  0.5603560000000  0.5180900000000  0.4370730000000 1.0
C      1  0.4394380000000  0.5180900000000  0.5628780000000 1.0
C      1  0.4394350000000  0.4817530000000  0.4370620000000 1.0
C      1  0.5628050000000  0.4394600000000  0.5181460000000 1.0
C      1  0.4369910000000  0.4394590000000  0.4818040000000 1.0
C      1  0.4369890000000  0.5603800000000  0.5181410000000 1.0
C      1  0.4817280000000  0.4370130000000  0.4395140000000 1.0
C      1  0.5180650000000  0.4370140000000  0.5604370000000 1.0
C      1  0.5180650000000  0.5628280000000  0.4395160000000 1.0
C      1  0.4394380000000  0.4817530000000  0.5628780000000 1.0
C      1  0.4369910000000  0.5603830000000  0.4818040000000 1.0
C      1  0.5180650000000  0.5628280000000  0.5604370000000 1.0
C      1  0.4394350000000  0.5180900000000  0.4370620000000 1.0
C      1  0.5603570000000  0.5180900000000  0.5628880000000 1.0
C      1  0.5603560000000  0.4817530000000  0.4370730000000 1.0
C      1  0.4369890000000  0.4394630000000  0.5181410000000 1.0
C      1  0.5628070000000  0.4394640000000  0.4818090000000 1.0
C      1  0.5628050000000  0.5603820000000  0.5181460000000 1.0
C      1  0.5180650000000  0.4370140000000  0.4395160000000 1.0
C      1  0.4817280000000  0.4370130000000  0.5604320000000 1.0
C      1  0.4817280000000  0.5628290000000  0.4395140000000 1.0
C      1  0.5409330000000  0.5292820000000  0.4496100000000 1.0
C      1  0.4495290000000  0.5409580000000  0.5293340000000 1.0
C      1  0.5292600000000  0.4495520000000  0.5410150000000 1.0
C      1  0.5409350000000  0.4705590000000  0.5503480000000 1.0
C      1  0.4588570000000  0.4705590000000  0.4496030000000 1.0
C      1  0.4588600000000  0.5292820000000  0.5503400000000 1.0
C      1  0.4495270000000  0.4588830000000  0.4706110000000 1.0
C      1  0.5502660000000  0.4588830000000  0.5293390000000 1.0
C      1  0.5502650000000  0.5409580000000  0.4706160000000 1.0
C      1  0.5292560000000  0.5502890000000  0.4589390000000 1.0
C      1  0.4705370000000  0.5502900000000  0.5410100000000 1.0
C      1  0.4705330000000  0.4495530000000  0.4589350000000 1.0
C      1  0.4588570000000  0.5292830000000  0.4496030000000 1.0
C      1  0.5502660000000  0.5409590000000  0.5293390000000 1.0
C      1  0.4705370000000  0.4495530000000  0.5410100000000 1.0
C      1  0.4588600000000  0.4705600000000  0.5503400000000 1.0
C      1  0.5409330000000  0.4705610000000  0.4496100000000 1.0
C      1  0.5409350000000  0.5292830000000  0.5503480000000 1.0
C      1  0.5502650000000  0.4588850000000  0.4706160000000 1.0
C      1  0.4495290000000  0.4588840000000  0.5293340000000 1.0
C      1  0.4495270000000  0.5409590000000  0.4706110000000 1.0
C      1  0.4705330000000  0.5502900000000  0.4589350000000 1.0
C      1  0.5292600000000  0.5502900000000  0.5410150000000 1.0
C      1  0.5292560000000  0.4495540000000  0.4589390000000 1.0
C      1  0.5261880000000  0.4431340000000  0.5530270000000 1.0
C      1  0.5529460000000  0.5262120000000  0.4431930000000 1.0
C      1  0.4431080000000  0.5529690000000  0.5262640000000 1.0
C      1  0.5261860000000  0.5567080000000  0.4469270000000 1.0
C      1  0.4736070000000  0.5567110000000  0.5530210000000 1.0
C      1  0.4736050000000  0.4431320000000  0.4469240000000 1.0
C      1  0.5529460000000  0.4736300000000  0.5567700000000 1.0
C      1  0.4468460000000  0.4736300000000  0.4431810000000 1.0
C      1  0.4468480000000  0.5262120000000  0.5567570000000 1.0
C      1  0.4431110000000  0.4468690000000  0.4736830000000 1.0
C      1  0.5566840000000  0.4468700000000  0.5262670000000 1.0
C      1  0.5566880000000  0.5529670000000  0.4736860000000 1.0
C      1  0.4736070000000  0.4431320000000  0.5530210000000 1.0
C      1  0.4468460000000  0.5262120000000  0.4431810000000 1.0
C      1  0.5566840000000  0.5529720000000  0.5262670000000 1.0
C      1  0.4736050000000  0.5567100000000  0.4469240000000 1.0
C      1  0.5261880000000  0.5567080000000  0.5530270000000 1.0
C      1  0.5261860000000  0.4431350000000  0.4469270000000 1.0
C      1  0.4468480000000  0.4736310000000  0.5567570000000 1.0
C      1  0.5529460000000  0.4736310000000  0.4431930000000 1.0
C      1  0.5529460000000  0.5262120000000  0.5567700000000 1.0
C      1  0.5566880000000  0.4468750000000  0.4736860000000 1.0
C      1  0.4431080000000  0.4468730000000  0.5262640000000 1.0
C      1  0.4431110000000  0.5529730000000  0.4736830000000 1.0
C      1  0.4847340000000  0.4491050000000  0.5343120000000 1.0
C      1  0.5342320000000  0.4847560000000  0.4491590000000 1.0
C      1  0.4490770000000  0.5342600000000  0.4848070000000 1.0
C      1  0.4847290000000  0.5507380000000  0.4656360000000 1.0
C      1  0.5150640000000  0.5507390000000  0.5343150000000 1.0
C      1  0.5150590000000  0.4491050000000  0.4656380000000 1.0
C      1  0.5342370000000  0.5150860000000  0.5507940000000 1.0
C      1  0.4655540000000  0.5150860000000  0.4491570000000 1.0
C      1  0.4655610000000  0.4847560000000  0.5507900000000 1.0
C      1  0.4490810000000  0.4655840000000  0.5151380000000 1.0
C      1  0.5507110000000  0.4655830000000  0.4848130000000 1.0
C      1  0.5507150000000  0.5342600000000  0.5151430000000 1.0
C      1  0.5150640000000  0.4491030000000  0.5343150000000 1.0
C      1  0.4655540000000  0.4847560000000  0.4491570000000 1.0
C      1  0.5507110000000  0.5342590000000  0.4848130000000 1.0
C      1  0.5150590000000  0.5507370000000  0.4656380000000 1.0
C      1  0.4847340000000  0.5507370000000  0.5343120000000 1.0
C      1  0.4847290000000  0.4491040000000  0.4656360000000 1.0
C      1  0.4655610000000  0.5150860000000  0.5507900000000 1.0
C      1  0.5342320000000  0.5150860000000  0.4491590000000 1.0
C      1  0.5342370000000  0.4847560000000  0.5507940000000 1.0
C      1  0.5507150000000  0.4655820000000  0.5151430000000 1.0
C      1  0.4490770000000  0.4655830000000  0.4848070000000 1.0
C      1  0.4490810000000  0.5342590000000  0.5151380000000 1.0
C      1  0.5622110000000  0.4836760000000  0.5318210000000 1.0
C      1  0.5317350000000  0.5622270000000  0.4837300000000 1.0
C      1  0.4836520000000  0.5317640000000  0.5622830000000 1.0
C      1  0.5621980000000  0.5161690000000  0.4681320000000 1.0
C      1  0.4375940000000  0.5161690000000  0.5318180000000 1.0
C      1  0.4375800000000  0.4836770000000  0.4681290000000 1.0
C      1  0.5317450000000  0.4376070000000  0.5162210000000 1.0
C      1  0.4680470000000  0.4376110000000  0.4837270000000 1.0
C      1  0.4680570000000  0.5622240000000  0.5162210000000 1.0
C      1  0.4836480000000  0.4680780000000  0.4376670000000 1.0
C      1  0.5161450000000  0.4680750000000  0.5622850000000 1.0
C      1  0.5161400000000  0.5317660000000  0.4376660000000 1.0
C      1  0.4375940000000  0.4836740000000  0.5318180000000 1.0
C      1  0.4680470000000  0.5622310000000  0.4837270000000 1.0
C      1  0.5161450000000  0.5317670000000  0.5622850000000 1.0
C      1  0.4375800000000  0.5161660000000  0.4681290000000 1.0
C      1  0.5622110000000  0.5161660000000  0.5318210000000 1.0
C      1  0.5621980000000  0.4836730000000  0.4681320000000 1.0
C      1  0.4680570000000  0.4376190000000  0.5162210000000 1.0
C      1  0.5317350000000  0.4376150000000  0.4837300000000 1.0
C      1  0.5317450000000  0.5622360000000  0.5162210000000 1.0
C      1  0.5161400000000  0.4680770000000  0.4376660000000 1.0
C      1  0.4836520000000  0.4680780000000  0.5622830000000 1.0
C      1  0.4836480000000  0.5317640000000  0.4376670000000 1.0
C      1  0.5829230000000  0.4929550000000  0.5179360000000 1.0
C      1  0.5178580000000  0.5829450000000  0.4930080000000 1.0
C      1  0.4929310000000  0.5178840000000  0.5829980000000 1.0
C      1  0.5829140000000  0.5068870000000  0.4820090000000 1.0
C      1  0.4168770000000  0.5068870000000  0.5179410000000 1.0
C      1  0.4168680000000  0.4929550000000  0.4820150000000 1.0
C      1  0.5178590000000  0.4168960000000  0.5069400000000 1.0
C      1  0.4819320000000  0.4168990000000  0.4930090000000 1.0
C      1  0.4819330000000  0.5829420000000  0.5069410000000 1.0
C      1  0.4929290000000  0.4819580000000  0.4169520000000 1.0
C      1  0.5068620000000  0.4819580000000  0.5829980000000 1.0
C      1  0.5068610000000  0.5178840000000  0.4169520000000 1.0
C      1  0.4168770000000  0.4929550000000  0.5179410000000 1.0
C      1  0.4819320000000  0.5829430000000  0.4930090000000 1.0
C      1  0.5068620000000  0.5178840000000  0.5829980000000 1.0
C      1  0.4168680000000  0.5068870000000  0.4820150000000 1.0
C      1  0.5829230000000  0.5068870000000  0.5179360000000 1.0
C      1  0.5829140000000  0.4929550000000  0.4820090000000 1.0
C      1  0.4819330000000  0.4169000000000  0.5069410000000 1.0
C      1  0.5178580000000  0.4168980000000  0.4930080000000 1.0
C      1  0.5178590000000  0.5829460000000  0.5069400000000 1.0
C      1  0.5068610000000  0.4819580000000  0.4169520000000 1.0
C      1  0.4929310000000  0.4819580000000  0.5829980000000 1.0
C      1  0.4929290000000  0.5178840000000  0.4169520000000 1.0
C      1  0.4920710000000  0.4658430000000  0.5526920000000 1.0
C      1  0.5526080000000  0.4920940000000  0.4659000000000 1.0
C      1  0.4658160000000  0.5526380000000  0.4921450000000 1.0
C      1  0.4920670000000  0.5339990000000  0.4472580000000 1.0
C      1  0.5077260000000  0.5340010000000  0.5526930000000 1.0
C      1  0.5077220000000  0.4658430000000  0.4472580000000 1.0
C      1  0.5526190000000  0.5077490000000  0.5340580000000 1.0
C      1  0.4471720000000  0.5077490000000  0.4658930000000 1.0
C      1  0.4471840000000  0.4920940000000  0.5340500000000 1.0
C      1  0.4658200000000  0.4472070000000  0.5078000000000 1.0
C      1  0.5339740000000  0.4472040000000  0.4921500000000 1.0
C      1  0.5339770000000  0.5526420000000  0.5078050000000 1.0
C      1  0.5077260000000  0.4658420000000  0.5526930000000 1.0
C      1  0.4471720000000  0.4920940000000  0.4658930000000 1.0
C      1  0.5339740000000  0.5526380000000  0.4921500000000 1.0
C      1  0.5077220000000  0.5339990000000  0.4472580000000 1.0
C      1  0.4920710000000  0.5339990000000  0.5526920000000 1.0
C      1  0.4920670000000  0.4658430000000  0.4472580000000 1.0
C      1  0.4471840000000  0.5077480000000  0.5340500000000 1.0
C      1  0.5526080000000  0.5077480000000  0.4659000000000 1.0
C      1  0.5526190000000  0.4920940000000  0.5340580000000 1.0
C      1  0.5339770000000  0.4472010000000  0.5078050000000 1.0
C      1  0.4658160000000  0.4472040000000  0.4921450000000 1.0
C      1  0.4658200000000  0.5526350000000  0.5078000000000 1.0
C      1  0.5738400000000  0.4748250000000  0.5132720000000 1.0
C      1  0.5131920000000  0.5738620000000  0.4748780000000 1.0
C      1  0.4748000000000  0.5132190000000  0.5739160000000 1.0
C      1  0.5738360000000  0.5250180000000  0.4866770000000 1.0
C      1  0.4259560000000  0.5250180000000  0.5132730000000 1.0
C      1  0.4259520000000  0.4748250000000  0.4866780000000 1.0
C      1  0.5131950000000  0.4259780000000  0.5250710000000 1.0
C      1  0.4865970000000  0.4259800000000  0.4748780000000 1.0
C      1  0.4866000000000  0.5738620000000  0.5250720000000 1.0
C      1  0.4747980000000  0.4866240000000  0.4260330000000 1.0
C      1  0.5249930000000  0.4866240000000  0.5739170000000 1.0
C      1  0.5249920000000  0.5132190000000  0.4260340000000 1.0
C      1  0.4259560000000  0.4748240000000  0.5132730000000 1.0
C      1  0.4865970000000  0.5738630000000  0.4748780000000 1.0
C      1  0.5249930000000  0.5132190000000  0.5739170000000 1.0
C      1  0.4259520000000  0.5250170000000  0.4866780000000 1.0
C      1  0.5738400000000  0.5250170000000  0.5132720000000 1.0
C      1  0.5738360000000  0.4748240000000  0.4866770000000 1.0
C      1  0.4866000000000  0.4259810000000  0.5250720000000 1.0
C      1  0.5131920000000  0.4259800000000  0.4748780000000 1.0
C      1  0.5131950000000  0.5738640000000  0.5250710000000 1.0
C      1  0.5249920000000  0.4866240000000  0.4260340000000 1.0
C      1  0.4748000000000  0.4866240000000  0.5739160000000 1.0
C      1  0.4747980000000  0.5132190000000  0.4260330000000 1.0
C      1  0.5733410000000  0.5161860000000  0.4754860000000 1.0
C      1  0.4754090000000  0.5733690000000  0.5162390000000 1.0
C      1  0.5161610000000  0.4754320000000  0.5734270000000 1.0
C      1  0.5733520000000  0.4836570000000  0.5244630000000 1.0
C      1  0.4264390000000  0.4836570000000  0.4754870000000 1.0
C      1  0.4264500000000  0.5161860000000  0.5244640000000 1.0
C      1  0.4754060000000  0.4264710000000  0.4837100000000 1.0
C      1  0.5243860000000  0.4264670000000  0.5162390000000 1.0
C      1  0.5243830000000  0.5733720000000  0.4837110000000 1.0
C      1  0.5161590000000  0.5244100000000  0.4265240000000 1.0
C      1  0.4836330000000  0.5244100000000  0.5734260000000 1.0
C      1  0.4836310000000  0.4754330000000  0.4265240000000 1.0
C      1  0.4264390000000  0.5161850000000  0.4754870000000 1.0
C      1  0.5243860000000  0.5733750000000  0.5162390000000 1.0
C      1  0.4836330000000  0.4754330000000  0.5734260000000 1.0
C      1  0.4264500000000  0.4836560000000  0.5244640000000 1.0
C      1  0.5733410000000  0.4836560000000  0.4754860000000 1.0
C      1  0.5733520000000  0.5161850000000  0.5244630000000 1.0
C      1  0.5243830000000  0.4264710000000  0.4837110000000 1.0
C      1  0.4754090000000  0.4264740000000  0.5162390000000 1.0
C      1  0.4754060000000  0.5733720000000  0.4837100000000 1.0
C      1  0.4836310000000  0.5244090000000  0.4265240000000 1.0
C      1  0.5161610000000  0.5244100000000  0.5734270000000 1.0
C      1  0.5161590000000  0.4754330000000  0.4265240000000 1.0
C      1  0.5398320000000  0.5398570000000  0.4600420000000 1.0
C      1  0.4599620000000  0.5398580000000  0.5399080000000 1.0
C      1  0.5398350000000  0.4599840000000  0.5399150000000 1.0
C      1  0.4599580000000  0.4599850000000  0.4600350000000 1.0
C      1  0.4599580000000  0.5398580000000  0.4600350000000 1.0
C      1  0.5398350000000  0.5398580000000  0.5399150000000 1.0
C      1  0.4599620000000  0.4599850000000  0.5399080000000 1.0
C      1  0.5398320000000  0.4599850000000  0.4600420000000 1.0
END
