TITL C-1379265-1223-239 -1.6574500807597e-06 1000000 -3425.9809763405 0 0 480 (Th) n - 1
REM
REM in /nfs/bkarasulu/CARBON/AIRSS/Generating-Clusters/GAP-ML-2020/Higher-Symm/Selected-Sizes/TryA-Only_Ih-Symm/Larger-Clusters/Try2-MINAMP_6A
REM
REM
REM
REM
REM
REM ./C.cell (31579ac4e95a012ec27f3239692ae8a5)
REM
REM compiler GCC version 9.2.1 20190827 (Red Hat 9.2.1-1)
REM options -cpp -mtune=generic -march=x86-64 -g -O0 -fpre-include=/usr/include/finclude/math-vector-fortran.h
REM seed 1605147571 2089949145 -810876446 922501586 1991928518 273649499 1836707288 -591852595 -299119559 645746483 816036544 -2057467306 -104909212 -119471167 1226845319 -578172747 825871759 1872808504 -246770064 -1691492749 -760482964 -2049862379 768216581 2099876641 859826492 1875148396 969843933 -842150464 -1161555864 -1222244360 -976725651 -2067786104 1509857717
REM
CELL 1.54180  100.00000  100.00000  100.00000   90.00000   90.00000   90.00000
LATT -1
SFAC C  
C      1  0.5370390000000  0.5406030000000  0.5287550000000 1.0
C      1  0.5287550000000  0.5370390000000  0.5406030000000 1.0
C      1  0.5406030000000  0.5287550000000  0.5370390000000 1.0
C      1  0.5370390000000  0.4593970000000  0.4712450000000 1.0
C      1  0.4629610000000  0.4593970000000  0.5287550000000 1.0
C      1  0.4629610000000  0.5406030000000  0.4712450000000 1.0
C      1  0.5287550000000  0.4629610000000  0.4593970000000 1.0
C      1  0.4712450000000  0.4629610000000  0.5406030000000 1.0
C      1  0.4712450000000  0.5370390000000  0.4593970000000 1.0
C      1  0.5406030000000  0.4712450000000  0.4629610000000 1.0
C      1  0.4593970000000  0.4712450000000  0.5370390000000 1.0
C      1  0.4593970000000  0.5287550000000  0.4629610000000 1.0
C      1  0.4629610000000  0.5406030000000  0.5287550000000 1.0
C      1  0.4712450000000  0.5370390000000  0.5406030000000 1.0
C      1  0.4593970000000  0.5287550000000  0.5370390000000 1.0
C      1  0.4629610000000  0.4593970000000  0.4712450000000 1.0
C      1  0.5370390000000  0.4593970000000  0.5287550000000 1.0
C      1  0.5370390000000  0.5406030000000  0.4712450000000 1.0
C      1  0.4712450000000  0.4629610000000  0.4593970000000 1.0
C      1  0.5287550000000  0.4629610000000  0.5406030000000 1.0
C      1  0.5287550000000  0.5370390000000  0.4593970000000 1.0
C      1  0.4593970000000  0.4712450000000  0.4629610000000 1.0
C      1  0.5406030000000  0.4712450000000  0.5370390000000 1.0
C      1  0.5406030000000  0.5287550000000  0.4629610000000 1.0
C      1  0.4739550000000  0.5738720000000  0.5355860000000 1.0
C      1  0.5355860000000  0.4739550000000  0.5738720000000 1.0
C      1  0.5738720000000  0.5355860000000  0.4739550000000 1.0
C      1  0.4739550000000  0.4261280000000  0.4644140000000 1.0
C      1  0.5260450000000  0.4261280000000  0.5355860000000 1.0
C      1  0.5260450000000  0.5738720000000  0.4644140000000 1.0
C      1  0.5355860000000  0.5260450000000  0.4261280000000 1.0
C      1  0.4644140000000  0.5260450000000  0.5738720000000 1.0
C      1  0.4644140000000  0.4739550000000  0.4261280000000 1.0
C      1  0.5738720000000  0.4644140000000  0.5260450000000 1.0
C      1  0.4261280000000  0.4644140000000  0.4739550000000 1.0
C      1  0.4261280000000  0.5355860000000  0.5260450000000 1.0
C      1  0.5260450000000  0.5738720000000  0.5355860000000 1.0
C      1  0.4644140000000  0.4739550000000  0.5738720000000 1.0
C      1  0.4261280000000  0.5355860000000  0.4739550000000 1.0
C      1  0.5260450000000  0.4261280000000  0.4644140000000 1.0
C      1  0.4739550000000  0.4261280000000  0.5355860000000 1.0
C      1  0.4739550000000  0.5738720000000  0.4644140000000 1.0
C      1  0.4644140000000  0.5260450000000  0.4261280000000 1.0
C      1  0.5355860000000  0.5260450000000  0.5738720000000 1.0
C      1  0.5355860000000  0.4739550000000  0.4261280000000 1.0
C      1  0.4261280000000  0.4644140000000  0.5260450000000 1.0
C      1  0.5738720000000  0.4644140000000  0.4739550000000 1.0
C      1  0.5738720000000  0.5355860000000  0.5260450000000 1.0
C      1  0.5476250000000  0.4853540000000  0.5160040000000 1.0
C      1  0.5160040000000  0.5476250000000  0.4853540000000 1.0
C      1  0.4853540000000  0.5160040000000  0.5476250000000 1.0
C      1  0.5476250000000  0.5146460000000  0.4839960000000 1.0
C      1  0.4523750000000  0.5146460000000  0.5160040000000 1.0
C      1  0.4523750000000  0.4853540000000  0.4839960000000 1.0
C      1  0.5160040000000  0.4523750000000  0.5146460000000 1.0
C      1  0.4839960000000  0.4523750000000  0.4853540000000 1.0
C      1  0.4839960000000  0.5476250000000  0.5146460000000 1.0
C      1  0.4853540000000  0.4839960000000  0.4523750000000 1.0
C      1  0.5146460000000  0.4839960000000  0.5476250000000 1.0
C      1  0.5146460000000  0.5160040000000  0.4523750000000 1.0
C      1  0.4523750000000  0.4853540000000  0.5160040000000 1.0
C      1  0.4839960000000  0.5476250000000  0.4853540000000 1.0
C      1  0.5146460000000  0.5160040000000  0.5476250000000 1.0
C      1  0.4523750000000  0.5146460000000  0.4839960000000 1.0
C      1  0.5476250000000  0.5146460000000  0.5160040000000 1.0
C      1  0.5476250000000  0.4853540000000  0.4839960000000 1.0
C      1  0.4839960000000  0.4523750000000  0.5146460000000 1.0
C      1  0.5160040000000  0.4523750000000  0.4853540000000 1.0
C      1  0.5160040000000  0.5476250000000  0.5146460000000 1.0
C      1  0.5146460000000  0.4839960000000  0.4523750000000 1.0
C      1  0.4853540000000  0.4839960000000  0.5476250000000 1.0
C      1  0.4853540000000  0.5160040000000  0.4523750000000 1.0
C      1  0.4247090000000  0.5264320000000  0.4845410000000 1.0
C      1  0.4845410000000  0.4247090000000  0.5264320000000 1.0
C      1  0.5264320000000  0.4845410000000  0.4247090000000 1.0
C      1  0.4247090000000  0.4735680000000  0.5154590000000 1.0
C      1  0.5752910000000  0.4735680000000  0.4845410000000 1.0
C      1  0.5752910000000  0.5264320000000  0.5154590000000 1.0
C      1  0.4845410000000  0.5752910000000  0.4735680000000 1.0
C      1  0.5154590000000  0.5752910000000  0.5264320000000 1.0
C      1  0.5154590000000  0.4247090000000  0.4735680000000 1.0
C      1  0.5264320000000  0.5154590000000  0.5752910000000 1.0
C      1  0.4735680000000  0.5154590000000  0.4247090000000 1.0
C      1  0.4735680000000  0.4845410000000  0.5752910000000 1.0
C      1  0.5752910000000  0.5264320000000  0.4845410000000 1.0
C      1  0.5154590000000  0.4247090000000  0.5264320000000 1.0
C      1  0.4735680000000  0.4845410000000  0.4247090000000 1.0
C      1  0.5752910000000  0.4735680000000  0.5154590000000 1.0
C      1  0.4247090000000  0.4735680000000  0.4845410000000 1.0
C      1  0.4247090000000  0.5264320000000  0.5154590000000 1.0
C      1  0.5154590000000  0.5752910000000  0.4735680000000 1.0
C      1  0.4845410000000  0.5752910000000  0.5264320000000 1.0
C      1  0.4845410000000  0.4247090000000  0.4735680000000 1.0
C      1  0.4735680000000  0.5154590000000  0.5752910000000 1.0
C      1  0.5264320000000  0.5154590000000  0.4247090000000 1.0
C      1  0.5264320000000  0.4845410000000  0.5752910000000 1.0
C      1  0.5651130000000  0.5337940000000  0.4925920000000 1.0
C      1  0.4925920000000  0.5651130000000  0.5337940000000 1.0
C      1  0.5337940000000  0.4925920000000  0.5651130000000 1.0
C      1  0.5651130000000  0.4662060000000  0.5074080000000 1.0
C      1  0.4348870000000  0.4662060000000  0.4925920000000 1.0
C      1  0.4348870000000  0.5337940000000  0.5074080000000 1.0
C      1  0.4925920000000  0.4348870000000  0.4662060000000 1.0
C      1  0.5074080000000  0.4348870000000  0.5337940000000 1.0
C      1  0.5074080000000  0.5651130000000  0.4662060000000 1.0
C      1  0.5337940000000  0.5074080000000  0.4348870000000 1.0
C      1  0.4662060000000  0.5074080000000  0.5651130000000 1.0
C      1  0.4662060000000  0.4925920000000  0.4348870000000 1.0
C      1  0.4348870000000  0.5337940000000  0.4925920000000 1.0
C      1  0.5074080000000  0.5651130000000  0.5337940000000 1.0
C      1  0.4662060000000  0.4925920000000  0.5651130000000 1.0
C      1  0.4348870000000  0.4662060000000  0.5074080000000 1.0
C      1  0.5651130000000  0.4662060000000  0.4925920000000 1.0
C      1  0.5651130000000  0.5337940000000  0.5074080000000 1.0
C      1  0.5074080000000  0.4348870000000  0.4662060000000 1.0
C      1  0.4925920000000  0.4348870000000  0.5337940000000 1.0
C      1  0.4925920000000  0.5651130000000  0.4662060000000 1.0
C      1  0.4662060000000  0.5074080000000  0.4348870000000 1.0
C      1  0.5337940000000  0.5074080000000  0.5651130000000 1.0
C      1  0.5337940000000  0.4925920000000  0.4348870000000 1.0
C      1  0.5375560000000  0.5360800000000  0.5068730000000 1.0
C      1  0.5068730000000  0.5375560000000  0.5360800000000 1.0
C      1  0.5360800000000  0.5068730000000  0.5375560000000 1.0
C      1  0.5375560000000  0.4639200000000  0.4931270000000 1.0
C      1  0.4624440000000  0.4639200000000  0.5068730000000 1.0
C      1  0.4624440000000  0.5360800000000  0.4931270000000 1.0
C      1  0.5068730000000  0.4624440000000  0.4639200000000 1.0
C      1  0.4931270000000  0.4624440000000  0.5360800000000 1.0
C      1  0.4931270000000  0.5375560000000  0.4639200000000 1.0
C      1  0.5360800000000  0.4931270000000  0.4624440000000 1.0
C      1  0.4639200000000  0.4931270000000  0.5375560000000 1.0
C      1  0.4639200000000  0.5068730000000  0.4624440000000 1.0
C      1  0.4624440000000  0.5360800000000  0.5068730000000 1.0
C      1  0.4931270000000  0.5375560000000  0.5360800000000 1.0
C      1  0.4639200000000  0.5068730000000  0.5375560000000 1.0
C      1  0.4624440000000  0.4639200000000  0.4931270000000 1.0
C      1  0.5375560000000  0.4639200000000  0.5068730000000 1.0
C      1  0.5375560000000  0.5360800000000  0.4931270000000 1.0
C      1  0.4931270000000  0.4624440000000  0.4639200000000 1.0
C      1  0.5068730000000  0.4624440000000  0.5360800000000 1.0
C      1  0.5068730000000  0.5375560000000  0.4639200000000 1.0
C      1  0.4639200000000  0.4931270000000  0.4624440000000 1.0
C      1  0.5360800000000  0.4931270000000  0.5375560000000 1.0
C      1  0.5360800000000  0.5068730000000  0.4624440000000 1.0
C      1  0.5379900000000  0.4590860000000  0.4427990000000 1.0
C      1  0.4427990000000  0.5379900000000  0.4590860000000 1.0
C      1  0.4590860000000  0.4427990000000  0.5379900000000 1.0
C      1  0.5379900000000  0.5409140000000  0.5572010000000 1.0
C      1  0.4620100000000  0.5409140000000  0.4427990000000 1.0
C      1  0.4620100000000  0.4590860000000  0.5572010000000 1.0
C      1  0.4427990000000  0.4620100000000  0.5409140000000 1.0
C      1  0.5572010000000  0.4620100000000  0.4590860000000 1.0
C      1  0.5572010000000  0.5379900000000  0.5409140000000 1.0
C      1  0.4590860000000  0.5572010000000  0.4620100000000 1.0
C      1  0.5409140000000  0.5572010000000  0.5379900000000 1.0
C      1  0.5409140000000  0.4427990000000  0.4620100000000 1.0
C      1  0.4620100000000  0.4590860000000  0.4427990000000 1.0
C      1  0.5572010000000  0.5379900000000  0.4590860000000 1.0
C      1  0.5409140000000  0.4427990000000  0.5379900000000 1.0
C      1  0.4620100000000  0.5409140000000  0.5572010000000 1.0
C      1  0.5379900000000  0.5409140000000  0.4427990000000 1.0
C      1  0.5379900000000  0.4590860000000  0.5572010000000 1.0
C      1  0.5572010000000  0.4620100000000  0.5409140000000 1.0
C      1  0.4427990000000  0.4620100000000  0.4590860000000 1.0
C      1  0.4427990000000  0.5379900000000  0.5409140000000 1.0
C      1  0.5409140000000  0.5572010000000  0.4620100000000 1.0
C      1  0.4590860000000  0.5572010000000  0.5379900000000 1.0
C      1  0.4590860000000  0.4427990000000  0.4620100000000 1.0
C      1  0.4932570000000  0.4852010000000  0.4398990000000 1.0
C      1  0.4398990000000  0.4932570000000  0.4852010000000 1.0
C      1  0.4852010000000  0.4398990000000  0.4932570000000 1.0
C      1  0.4932570000000  0.5147990000000  0.5601010000000 1.0
C      1  0.5067430000000  0.5147990000000  0.4398990000000 1.0
C      1  0.5067430000000  0.4852010000000  0.5601010000000 1.0
C      1  0.4398990000000  0.5067430000000  0.5147990000000 1.0
C      1  0.5601010000000  0.5067430000000  0.4852010000000 1.0
C      1  0.5601010000000  0.4932570000000  0.5147990000000 1.0
C      1  0.4852010000000  0.5601010000000  0.5067430000000 1.0
C      1  0.5147990000000  0.5601010000000  0.4932570000000 1.0
C      1  0.5147990000000  0.4398990000000  0.5067430000000 1.0
C      1  0.5067430000000  0.4852010000000  0.4398990000000 1.0
C      1  0.5601010000000  0.4932570000000  0.4852010000000 1.0
C      1  0.5147990000000  0.4398990000000  0.4932570000000 1.0
C      1  0.5067430000000  0.5147990000000  0.5601010000000 1.0
C      1  0.4932570000000  0.5147990000000  0.4398990000000 1.0
C      1  0.4932570000000  0.4852010000000  0.5601010000000 1.0
C      1  0.5601010000000  0.5067430000000  0.5147990000000 1.0
C      1  0.4398990000000  0.5067430000000  0.4852010000000 1.0
C      1  0.4398990000000  0.4932570000000  0.5147990000000 1.0
C      1  0.5147990000000  0.5601010000000  0.5067430000000 1.0
C      1  0.4852010000000  0.5601010000000  0.4932570000000 1.0
C      1  0.4852010000000  0.4398990000000  0.5067430000000 1.0
C      1  0.4590900000000  0.5164150000000  0.4707280000000 1.0
C      1  0.4707280000000  0.4590900000000  0.5164150000000 1.0
C      1  0.5164150000000  0.4707280000000  0.4590900000000 1.0
C      1  0.4590900000000  0.4835850000000  0.5292720000000 1.0
C      1  0.5409100000000  0.4835850000000  0.4707280000000 1.0
C      1  0.5409100000000  0.5164150000000  0.5292720000000 1.0
C      1  0.4707280000000  0.5409100000000  0.4835850000000 1.0
C      1  0.5292720000000  0.5409100000000  0.5164150000000 1.0
C      1  0.5292720000000  0.4590900000000  0.4835850000000 1.0
C      1  0.5164150000000  0.5292720000000  0.5409100000000 1.0
C      1  0.4835850000000  0.5292720000000  0.4590900000000 1.0
C      1  0.4835850000000  0.4707280000000  0.5409100000000 1.0
C      1  0.5409100000000  0.5164150000000  0.4707280000000 1.0
C      1  0.5292720000000  0.4590900000000  0.5164150000000 1.0
C      1  0.4835850000000  0.4707280000000  0.4590900000000 1.0
C      1  0.5409100000000  0.4835850000000  0.5292720000000 1.0
C      1  0.4590900000000  0.4835850000000  0.4707280000000 1.0
C      1  0.4590900000000  0.5164150000000  0.5292720000000 1.0
C      1  0.5292720000000  0.5409100000000  0.4835850000000 1.0
C      1  0.4707280000000  0.5409100000000  0.5164150000000 1.0
C      1  0.4707280000000  0.4590900000000  0.4835850000000 1.0
C      1  0.4835850000000  0.5292720000000  0.5409100000000 1.0
C      1  0.5164150000000  0.5292720000000  0.4590900000000 1.0
C      1  0.5164150000000  0.4707280000000  0.5409100000000 1.0
C      1  0.5684880000000  0.4701000000000  0.4621330000000 1.0
C      1  0.4621330000000  0.5684880000000  0.4701000000000 1.0
C      1  0.4701000000000  0.4621330000000  0.5684880000000 1.0
C      1  0.5684880000000  0.5299000000000  0.5378670000000 1.0
C      1  0.4315120000000  0.5299000000000  0.4621330000000 1.0
C      1  0.4315120000000  0.4701000000000  0.5378670000000 1.0
C      1  0.4621330000000  0.4315120000000  0.5299000000000 1.0
C      1  0.5378670000000  0.4315120000000  0.4701000000000 1.0
C      1  0.5378670000000  0.5684880000000  0.5299000000000 1.0
C      1  0.4701000000000  0.5378670000000  0.4315120000000 1.0
C      1  0.5299000000000  0.5378670000000  0.5684880000000 1.0
C      1  0.5299000000000  0.4621330000000  0.4315120000000 1.0
C      1  0.4315120000000  0.4701000000000  0.4621330000000 1.0
C      1  0.5378670000000  0.5684880000000  0.4701000000000 1.0
C      1  0.5299000000000  0.4621330000000  0.5684880000000 1.0
C      1  0.4315120000000  0.5299000000000  0.5378670000000 1.0
C      1  0.5684880000000  0.5299000000000  0.4621330000000 1.0
C      1  0.5684880000000  0.4701000000000  0.5378670000000 1.0
C      1  0.5378670000000  0.4315120000000  0.5299000000000 1.0
C      1  0.4621330000000  0.4315120000000  0.4701000000000 1.0
C      1  0.4621330000000  0.5684880000000  0.5299000000000 1.0
C      1  0.5299000000000  0.5378670000000  0.4315120000000 1.0
C      1  0.4701000000000  0.5378670000000  0.5684880000000 1.0
C      1  0.4701000000000  0.4621330000000  0.4315120000000 1.0
C      1  0.5627950000000  0.4916960000000  0.5512510000000 1.0
C      1  0.5512510000000  0.5627950000000  0.4916960000000 1.0
C      1  0.4916960000000  0.5512510000000  0.5627950000000 1.0
C      1  0.5627950000000  0.5083040000000  0.4487490000000 1.0
C      1  0.4372050000000  0.5083040000000  0.5512510000000 1.0
C      1  0.4372050000000  0.4916960000000  0.4487490000000 1.0
C      1  0.5512510000000  0.4372050000000  0.5083040000000 1.0
C      1  0.4487490000000  0.4372050000000  0.4916960000000 1.0
C      1  0.4487490000000  0.5627950000000  0.5083040000000 1.0
C      1  0.4916960000000  0.4487490000000  0.4372050000000 1.0
C      1  0.5083040000000  0.4487490000000  0.5627950000000 1.0
C      1  0.5083040000000  0.5512510000000  0.4372050000000 1.0
C      1  0.4372050000000  0.4916960000000  0.5512510000000 1.0
C      1  0.4487490000000  0.5627950000000  0.4916960000000 1.0
C      1  0.5083040000000  0.5512510000000  0.5627950000000 1.0
C      1  0.4372050000000  0.5083040000000  0.4487490000000 1.0
C      1  0.5627950000000  0.5083040000000  0.5512510000000 1.0
C      1  0.5627950000000  0.4916960000000  0.4487490000000 1.0
C      1  0.4487490000000  0.4372050000000  0.5083040000000 1.0
C      1  0.5512510000000  0.4372050000000  0.4916960000000 1.0
C      1  0.5512510000000  0.5627950000000  0.5083040000000 1.0
C      1  0.5083040000000  0.4487490000000  0.4372050000000 1.0
C      1  0.4916960000000  0.4487490000000  0.5627950000000 1.0
C      1  0.4916960000000  0.5512510000000  0.4372050000000 1.0
C      1  0.5502070000000  0.4724960000000  0.5080360000000 1.0
C      1  0.5080360000000  0.5502070000000  0.4724960000000 1.0
C      1  0.4724960000000  0.5080360000000  0.5502070000000 1.0
C      1  0.5502070000000  0.5275040000000  0.4919640000000 1.0
C      1  0.4497930000000  0.5275040000000  0.5080360000000 1.0
C      1  0.4497930000000  0.4724960000000  0.4919640000000 1.0
C      1  0.5080360000000  0.4497930000000  0.5275040000000 1.0
C      1  0.4919640000000  0.4497930000000  0.4724960000000 1.0
C      1  0.4919640000000  0.5502070000000  0.5275040000000 1.0
C      1  0.4724960000000  0.4919640000000  0.4497930000000 1.0
C      1  0.5275040000000  0.4919640000000  0.5502070000000 1.0
C      1  0.5275040000000  0.5080360000000  0.4497930000000 1.0
C      1  0.4497930000000  0.4724960000000  0.5080360000000 1.0
C      1  0.4919640000000  0.5502070000000  0.4724960000000 1.0
C      1  0.5275040000000  0.5080360000000  0.5502070000000 1.0
C      1  0.4497930000000  0.5275040000000  0.4919640000000 1.0
C      1  0.5502070000000  0.5275040000000  0.5080360000000 1.0
C      1  0.5502070000000  0.4724960000000  0.4919640000000 1.0
C      1  0.4919640000000  0.4497930000000  0.5275040000000 1.0
C      1  0.5080360000000  0.4497930000000  0.4724960000000 1.0
C      1  0.5080360000000  0.5502070000000  0.5275040000000 1.0
C      1  0.5275040000000  0.4919640000000  0.4497930000000 1.0
C      1  0.4724960000000  0.4919640000000  0.5502070000000 1.0
C      1  0.4724960000000  0.5080360000000  0.4497930000000 1.0
C      1  0.5312020000000  0.5762060000000  0.4930030000000 1.0
C      1  0.4930030000000  0.5312020000000  0.5762060000000 1.0
C      1  0.5762060000000  0.4930030000000  0.5312020000000 1.0
C      1  0.5312020000000  0.4237940000000  0.5069970000000 1.0
C      1  0.4687980000000  0.4237940000000  0.4930030000000 1.0
C      1  0.4687980000000  0.5762060000000  0.5069970000000 1.0
C      1  0.4930030000000  0.4687980000000  0.4237940000000 1.0
C      1  0.5069970000000  0.4687980000000  0.5762060000000 1.0
C      1  0.5069970000000  0.5312020000000  0.4237940000000 1.0
C      1  0.5762060000000  0.5069970000000  0.4687980000000 1.0
C      1  0.4237940000000  0.5069970000000  0.5312020000000 1.0
C      1  0.4237940000000  0.4930030000000  0.4687980000000 1.0
C      1  0.4687980000000  0.5762060000000  0.4930030000000 1.0
C      1  0.5069970000000  0.5312020000000  0.5762060000000 1.0
C      1  0.4237940000000  0.4930030000000  0.5312020000000 1.0
C      1  0.4687980000000  0.4237940000000  0.5069970000000 1.0
C      1  0.5312020000000  0.4237940000000  0.4930030000000 1.0
C      1  0.5312020000000  0.5762060000000  0.5069970000000 1.0
C      1  0.5069970000000  0.4687980000000  0.4237940000000 1.0
C      1  0.4930030000000  0.4687980000000  0.5762060000000 1.0
C      1  0.4930030000000  0.5312020000000  0.4237940000000 1.0
C      1  0.4237940000000  0.5069970000000  0.4687980000000 1.0
C      1  0.5762060000000  0.5069970000000  0.5312020000000 1.0
C      1  0.5762060000000  0.4930030000000  0.4687980000000 1.0
C      1  0.5745940000000  0.5124240000000  0.5171170000000 1.0
C      1  0.5171170000000  0.5745940000000  0.5124240000000 1.0
C      1  0.5124240000000  0.5171170000000  0.5745940000000 1.0
C      1  0.5745940000000  0.4875760000000  0.4828830000000 1.0
C      1  0.4254060000000  0.4875760000000  0.5171170000000 1.0
C      1  0.4254060000000  0.5124240000000  0.4828830000000 1.0
C      1  0.5171170000000  0.4254060000000  0.4875760000000 1.0
C      1  0.4828830000000  0.4254060000000  0.5124240000000 1.0
C      1  0.4828830000000  0.5745940000000  0.4875760000000 1.0
C      1  0.5124240000000  0.4828830000000  0.4254060000000 1.0
C      1  0.4875760000000  0.4828830000000  0.5745940000000 1.0
C      1  0.4875760000000  0.5171170000000  0.4254060000000 1.0
C      1  0.4254060000000  0.5124240000000  0.5171170000000 1.0
C      1  0.4828830000000  0.5745940000000  0.5124240000000 1.0
C      1  0.4875760000000  0.5171170000000  0.5745940000000 1.0
C      1  0.4254060000000  0.4875760000000  0.4828830000000 1.0
C      1  0.5745940000000  0.4875760000000  0.5171170000000 1.0
C      1  0.5745940000000  0.5124240000000  0.4828830000000 1.0
C      1  0.4828830000000  0.4254060000000  0.4875760000000 1.0
C      1  0.5171170000000  0.4254060000000  0.5124240000000 1.0
C      1  0.5171170000000  0.5745940000000  0.4875760000000 1.0
C      1  0.4875760000000  0.4828830000000  0.4254060000000 1.0
C      1  0.5124240000000  0.4828830000000  0.5745940000000 1.0
C      1  0.5124240000000  0.5171170000000  0.4254060000000 1.0
C      1  0.4682510000000  0.4497230000000  0.5486140000000 1.0
C      1  0.5486140000000  0.4682510000000  0.4497230000000 1.0
C      1  0.4497230000000  0.5486140000000  0.4682510000000 1.0
C      1  0.4682510000000  0.5502770000000  0.4513860000000 1.0
C      1  0.5317490000000  0.5502770000000  0.5486140000000 1.0
C      1  0.5317490000000  0.4497230000000  0.4513860000000 1.0
C      1  0.5486140000000  0.5317490000000  0.5502770000000 1.0
C      1  0.4513860000000  0.5317490000000  0.4497230000000 1.0
C      1  0.4513860000000  0.4682510000000  0.5502770000000 1.0
C      1  0.4497230000000  0.4513860000000  0.5317490000000 1.0
C      1  0.5502770000000  0.4513860000000  0.4682510000000 1.0
C      1  0.5502770000000  0.5486140000000  0.5317490000000 1.0
C      1  0.5317490000000  0.4497230000000  0.5486140000000 1.0
C      1  0.4513860000000  0.4682510000000  0.4497230000000 1.0
C      1  0.5502770000000  0.5486140000000  0.4682510000000 1.0
C      1  0.5317490000000  0.5502770000000  0.4513860000000 1.0
C      1  0.4682510000000  0.5502770000000  0.5486140000000 1.0
C      1  0.4682510000000  0.4497230000000  0.4513860000000 1.0
C      1  0.4513860000000  0.5317490000000  0.5502770000000 1.0
C      1  0.5486140000000  0.5317490000000  0.4497230000000 1.0
C      1  0.5486140000000  0.4682510000000  0.5502770000000 1.0
C      1  0.5502770000000  0.4513860000000  0.5317490000000 1.0
C      1  0.4497230000000  0.4513860000000  0.4682510000000 1.0
C      1  0.4497230000000  0.5486140000000  0.5317490000000 1.0
C      1  0.4548270000000  0.4830010000000  0.4325050000000 1.0
C      1  0.4325050000000  0.4548270000000  0.4830010000000 1.0
C      1  0.4830010000000  0.4325050000000  0.4548270000000 1.0
C      1  0.4548270000000  0.5169990000000  0.5674950000000 1.0
C      1  0.5451730000000  0.5169990000000  0.4325050000000 1.0
C      1  0.5451730000000  0.4830010000000  0.5674950000000 1.0
C      1  0.4325050000000  0.5451730000000  0.5169990000000 1.0
C      1  0.5674950000000  0.5451730000000  0.4830010000000 1.0
C      1  0.5674950000000  0.4548270000000  0.5169990000000 1.0
C      1  0.4830010000000  0.5674950000000  0.5451730000000 1.0
C      1  0.5169990000000  0.5674950000000  0.4548270000000 1.0
C      1  0.5169990000000  0.4325050000000  0.5451730000000 1.0
C      1  0.5451730000000  0.4830010000000  0.4325050000000 1.0
C      1  0.5674950000000  0.4548270000000  0.4830010000000 1.0
C      1  0.5169990000000  0.4325050000000  0.4548270000000 1.0
C      1  0.5451730000000  0.5169990000000  0.5674950000000 1.0
C      1  0.4548270000000  0.5169990000000  0.4325050000000 1.0
C      1  0.4548270000000  0.4830010000000  0.5674950000000 1.0
C      1  0.5674950000000  0.5451730000000  0.5169990000000 1.0
C      1  0.4325050000000  0.5451730000000  0.4830010000000 1.0
C      1  0.4325050000000  0.4548270000000  0.5169990000000 1.0
C      1  0.5169990000000  0.5674950000000  0.5451730000000 1.0
C      1  0.4830010000000  0.5674950000000  0.4548270000000 1.0
C      1  0.4830010000000  0.4325050000000  0.5451730000000 1.0
C      1  0.4296770000000  0.4846700000000  0.5410580000000 1.0
C      1  0.5410580000000  0.4296770000000  0.4846700000000 1.0
C      1  0.4846700000000  0.5410580000000  0.4296770000000 1.0
C      1  0.4296770000000  0.5153300000000  0.4589420000000 1.0
C      1  0.5703230000000  0.5153300000000  0.5410580000000 1.0
C      1  0.5703230000000  0.4846700000000  0.4589420000000 1.0
C      1  0.5410580000000  0.5703230000000  0.5153300000000 1.0
C      1  0.4589420000000  0.5703230000000  0.4846700000000 1.0
C      1  0.4589420000000  0.4296770000000  0.5153300000000 1.0
C      1  0.4846700000000  0.4589420000000  0.5703230000000 1.0
C      1  0.5153300000000  0.4589420000000  0.4296770000000 1.0
C      1  0.5153300000000  0.5410580000000  0.5703230000000 1.0
C      1  0.5703230000000  0.4846700000000  0.5410580000000 1.0
C      1  0.4589420000000  0.4296770000000  0.4846700000000 1.0
C      1  0.5153300000000  0.5410580000000  0.4296770000000 1.0
C      1  0.5703230000000  0.5153300000000  0.4589420000000 1.0
C      1  0.4296770000000  0.5153300000000  0.5410580000000 1.0
C      1  0.4296770000000  0.4846700000000  0.4589420000000 1.0
C      1  0.4589420000000  0.5703230000000  0.5153300000000 1.0
C      1  0.5410580000000  0.5703230000000  0.4846700000000 1.0
C      1  0.5410580000000  0.4296770000000  0.5153300000000 1.0
C      1  0.5153300000000  0.4589420000000  0.5703230000000 1.0
C      1  0.4846700000000  0.4589420000000  0.4296770000000 1.0
C      1  0.4846700000000  0.5410580000000  0.5703230000000 1.0
C      1  0.4928280000000  0.4928880000000  0.5381670000000 1.0
C      1  0.5381670000000  0.4928280000000  0.4928880000000 1.0
C      1  0.4928880000000  0.5381670000000  0.4928280000000 1.0
C      1  0.4928280000000  0.5071120000000  0.4618330000000 1.0
C      1  0.5071720000000  0.5071120000000  0.5381670000000 1.0
C      1  0.5071720000000  0.4928880000000  0.4618330000000 1.0
C      1  0.5381670000000  0.5071720000000  0.5071120000000 1.0
C      1  0.4618330000000  0.5071720000000  0.4928880000000 1.0
C      1  0.4618330000000  0.4928280000000  0.5071120000000 1.0
C      1  0.4928880000000  0.4618330000000  0.5071720000000 1.0
C      1  0.5071120000000  0.4618330000000  0.4928280000000 1.0
C      1  0.5071120000000  0.5381670000000  0.5071720000000 1.0
C      1  0.5071720000000  0.4928880000000  0.5381670000000 1.0
C      1  0.4618330000000  0.4928280000000  0.4928880000000 1.0
C      1  0.5071120000000  0.5381670000000  0.4928280000000 1.0
C      1  0.5071720000000  0.5071120000000  0.4618330000000 1.0
C      1  0.4928280000000  0.5071120000000  0.5381670000000 1.0
C      1  0.4928280000000  0.4928880000000  0.4618330000000 1.0
C      1  0.4618330000000  0.5071720000000  0.5071120000000 1.0
C      1  0.5381670000000  0.5071720000000  0.4928880000000 1.0
C      1  0.5381670000000  0.4928280000000  0.5071120000000 1.0
C      1  0.5071120000000  0.4618330000000  0.5071720000000 1.0
C      1  0.4928880000000  0.4618330000000  0.4928280000000 1.0
C      1  0.4928880000000  0.5381670000000  0.5071720000000 1.0
C      1  0.4164570000000  0.5071100000000  0.4929170000000 1.0
C      1  0.4929170000000  0.4164570000000  0.5071100000000 1.0
C      1  0.5071100000000  0.4929170000000  0.4164570000000 1.0
C      1  0.4164570000000  0.4928900000000  0.5070830000000 1.0
C      1  0.5835430000000  0.4928900000000  0.4929170000000 1.0
C      1  0.5835430000000  0.5071100000000  0.5070830000000 1.0
C      1  0.4929170000000  0.5835430000000  0.4928900000000 1.0
C      1  0.5070830000000  0.5835430000000  0.5071100000000 1.0
C      1  0.5070830000000  0.4164570000000  0.4928900000000 1.0
C      1  0.5071100000000  0.5070830000000  0.5835430000000 1.0
C      1  0.4928900000000  0.5070830000000  0.4164570000000 1.0
C      1  0.4928900000000  0.4929170000000  0.5835430000000 1.0
C      1  0.5835430000000  0.5071100000000  0.4929170000000 1.0
C      1  0.5070830000000  0.4164570000000  0.5071100000000 1.0
C      1  0.4928900000000  0.4929170000000  0.4164570000000 1.0
C      1  0.5835430000000  0.4928900000000  0.5070830000000 1.0
C      1  0.4164570000000  0.4928900000000  0.4929170000000 1.0
C      1  0.4164570000000  0.5071100000000  0.5070830000000 1.0
C      1  0.5070830000000  0.5835430000000  0.4928900000000 1.0
C      1  0.4929170000000  0.5835430000000  0.5071100000000 1.0
C      1  0.4929170000000  0.4164570000000  0.4928900000000 1.0
C      1  0.4928900000000  0.5070830000000  0.5835430000000 1.0
C      1  0.5071100000000  0.5070830000000  0.4164570000000 1.0
C      1  0.5071100000000  0.4929170000000  0.5835430000000 1.0
C      1  0.4455370000000  0.5190710000000  0.5574960000000 1.0
C      1  0.5574960000000  0.4455370000000  0.5190710000000 1.0
C      1  0.5190710000000  0.5574960000000  0.4455370000000 1.0
C      1  0.4455370000000  0.4809290000000  0.4425040000000 1.0
C      1  0.5544630000000  0.4809290000000  0.5574960000000 1.0
C      1  0.5544630000000  0.5190710000000  0.4425040000000 1.0
C      1  0.5574960000000  0.5544630000000  0.4809290000000 1.0
C      1  0.4425040000000  0.5544630000000  0.5190710000000 1.0
C      1  0.4425040000000  0.4455370000000  0.4809290000000 1.0
C      1  0.5190710000000  0.4425040000000  0.5544630000000 1.0
C      1  0.4809290000000  0.4425040000000  0.4455370000000 1.0
C      1  0.4809290000000  0.5574960000000  0.5544630000000 1.0
C      1  0.5544630000000  0.5190710000000  0.5574960000000 1.0
C      1  0.4425040000000  0.4455370000000  0.5190710000000 1.0
C      1  0.4809290000000  0.5574960000000  0.4455370000000 1.0
C      1  0.5544630000000  0.4809290000000  0.4425040000000 1.0
C      1  0.4455370000000  0.4809290000000  0.5574960000000 1.0
C      1  0.4455370000000  0.5190710000000  0.4425040000000 1.0
C      1  0.4425040000000  0.5544630000000  0.4809290000000 1.0
C      1  0.5574960000000  0.5544630000000  0.5190710000000 1.0
C      1  0.5574960000000  0.4455370000000  0.4809290000000 1.0
C      1  0.4809290000000  0.4425040000000  0.5544630000000 1.0
C      1  0.5190710000000  0.4425040000000  0.4455370000000 1.0
C      1  0.5190710000000  0.5574960000000  0.5544630000000 1.0
END
