TITL C-1379268-1316-47 1.92793440005593e-07 1000000 -3722.18443335318 0 0 520 (C1) n - 1
REM
REM in /nfs/bkarasulu/CARBON/AIRSS/Generating-Clusters/GAP-ML-2020/Higher-Symm/Selected-Sizes/TryA-Only_Ih-Symm/Larger-Clusters/Try2-MINAMP_6A
REM
REM
REM
REM
REM
REM ./C.cell (31579ac4e95a012ec27f3239692ae8a5)
REM
REM compiler GCC version 9.2.1 20190827 (Red Hat 9.2.1-1)
REM options -cpp -mtune=generic -march=x86-64 -g -O0 -fpre-include=/usr/include/finclude/math-vector-fortran.h
REM seed 1296202525 1245312826 -1860378346 -1719745504 1713878181 -461535803 1028319317 958714575 -204374676 126913492 519617856 1338972871 -782715225 1970254854 -1425381238 1339608389 -302818125 -1667648596 -550333218 998435460 1682569498 1413229774 1439386357 -1775172611 309515499 1232905878 1892017491 -176707140 -644403641 1104808773 655761263 25623827 1614869925
REM
CELL 1.54180  100.00000  100.00000  100.00000   90.00000   90.00000   90.00000
LATT -1
SFAC C  
C      1  0.4930650000000  0.4558180000000  0.5760170000000 1.0
C      1  0.4585780000000  0.5779190000000  0.4930110000000 1.0
C      1  0.5764330000000  0.4934070000000  0.4571160000000 1.0
C      1  0.5070590000000  0.5440880000000  0.5764150000000 1.0
C      1  0.4931480000000  0.5432940000000  0.4241990000000 1.0
C      1  0.5072070000000  0.4581800000000  0.4236630000000 1.0
C      1  0.5446220000000  0.4235130000000  0.4929070000000 1.0
C      1  0.4565200000000  0.4236090000000  0.5074570000000 1.0
C      1  0.5436490000000  0.5766150000000  0.5071140000000 1.0
C      1  0.4230540000000  0.5077510000000  0.4583940000000 1.0
C      1  0.5767350000000  0.5072580000000  0.5422860000000 1.0
C      1  0.4232170000000  0.4927300000000  0.5417710000000 1.0
C      1  0.4583200000000  0.4925300000000  0.5767350000000 1.0
C      1  0.5777070000000  0.4585890000000  0.4932810000000 1.0
C      1  0.4934180000000  0.5765410000000  0.4567100000000 1.0
C      1  0.5417450000000  0.5074300000000  0.5771310000000 1.0
C      1  0.5433830000000  0.4931450000000  0.4243200000000 1.0
C      1  0.4582440000000  0.5070720000000  0.4237820000000 1.0
C      1  0.4238280000000  0.5444850000000  0.4931680000000 1.0
C      1  0.4240790000000  0.4564240000000  0.5077760000000 1.0
C      1  0.5763080000000  0.5436170000000  0.5073960000000 1.0
C      1  0.5079010000000  0.4227830000000  0.4579820000000 1.0
C      1  0.5072800000000  0.5777640000000  0.5418630000000 1.0
C      1  0.4928530000000  0.4220130000000  0.5413850000000 1.0
C      1  0.5143960000000  0.4363630000000  0.5232830000000 1.0
C      1  0.4377490000000  0.5254520000000  0.5133840000000 1.0
C      1  0.5243110000000  0.5136750000000  0.4376470000000 1.0
C      1  0.4866150000000  0.5632550000000  0.5243840000000 1.0
C      1  0.5140670000000  0.5634550000000  0.4758000000000 1.0
C      1  0.4864070000000  0.4366200000000  0.4766980000000 1.0
C      1  0.5626770000000  0.4758200000000  0.5140580000000 1.0
C      1  0.4376240000000  0.4752770000000  0.4872740000000 1.0
C      1  0.5630800000000  0.5245660000000  0.4867680000000 1.0
C      1  0.4756290000000  0.4861360000000  0.4384170000000 1.0
C      1  0.5232400000000  0.4859280000000  0.5627460000000 1.0
C      1  0.4767590000000  0.5139900000000  0.5626590000000 1.0
C      1  0.4372940000000  0.5144600000000  0.5236050000000 1.0
C      1  0.5254120000000  0.4370490000000  0.5130930000000 1.0
C      1  0.5136970000000  0.5242880000000  0.4376220000000 1.0
C      1  0.5624730000000  0.4863980000000  0.5247550000000 1.0
C      1  0.5631490000000  0.5139960000000  0.4761350000000 1.0
C      1  0.4370780000000  0.4863280000000  0.4770520000000 1.0
C      1  0.4759770000000  0.5632760000000  0.5137210000000 1.0
C      1  0.4753530000000  0.4370930000000  0.4868950000000 1.0
C      1  0.5246450000000  0.5634710000000  0.4864010000000 1.0
C      1  0.4862610000000  0.4755040000000  0.4383990000000 1.0
C      1  0.4869450000000  0.5250590000000  0.5623010000000 1.0
C      1  0.5131310000000  0.4748050000000  0.5621560000000 1.0
C      1  0.5137580000000  0.4468870000000  0.4568850000000 1.0
C      1  0.4484040000000  0.4575080000000  0.5143430000000 1.0
C      1  0.4570510000000  0.5135380000000  0.4478920000000 1.0
C      1  0.4868170000000  0.5524300000000  0.4577180000000 1.0
C      1  0.5138450000000  0.5536020000000  0.5427210000000 1.0
C      1  0.4865800000000  0.4461470000000  0.5423950000000 1.0
C      1  0.5521400000000  0.5429370000000  0.5138000000000 1.0
C      1  0.4478690000000  0.5444010000000  0.4861860000000 1.0
C      1  0.5536010000000  0.4574080000000  0.4865470000000 1.0
C      1  0.5427770000000  0.4867090000000  0.4484640000000 1.0
C      1  0.4568130000000  0.4865890000000  0.5526230000000 1.0
C      1  0.5432990000000  0.5133840000000  0.5531000000000 1.0
C      1  0.4471480000000  0.5136190000000  0.4570880000000 1.0
C      1  0.4578750000000  0.4478810000000  0.5142380000000 1.0
C      1  0.5136700000000  0.4568650000000  0.4477660000000 1.0
C      1  0.5523260000000  0.4868000000000  0.4579190000000 1.0
C      1  0.5525640000000  0.5135340000000  0.5432600000000 1.0
C      1  0.4473690000000  0.4867580000000  0.5429010000000 1.0
C      1  0.5426870000000  0.5524950000000  0.5137270000000 1.0
C      1  0.5443220000000  0.4475940000000  0.4860730000000 1.0
C      1  0.4576060000000  0.5537670000000  0.4864680000000 1.0
C      1  0.4867090000000  0.5427930000000  0.4483490000000 1.0
C      1  0.4859910000000  0.4557560000000  0.5519430000000 1.0
C      1  0.5141190000000  0.5441610000000  0.5523890000000 1.0
C      1  0.4884100000000  0.5060380000000  0.5805300000000 1.0
C      1  0.5033870000000  0.5806570000000  0.4872140000000 1.0
C      1  0.5809730000000  0.4842180000000  0.5067070000000 1.0
C      1  0.5116280000000  0.4938090000000  0.5805500000000 1.0
C      1  0.4838360000000  0.4936660000000  0.4201150000000 1.0
C      1  0.5127240000000  0.5028500000000  0.4208120000000 1.0
C      1  0.4943980000000  0.4186130000000  0.4881550000000 1.0
C      1  0.5067320000000  0.4183450000000  0.5114010000000 1.0
C      1  0.4941570000000  0.5816310000000  0.5161500000000 1.0
C      1  0.4201680000000  0.5170750000000  0.5026110000000 1.0
C      1  0.5800250000000  0.5130770000000  0.4976060000000 1.0
C      1  0.4201830000000  0.4838950000000  0.4979520000000 1.0
C      1  0.5024000000000  0.4833760000000  0.5795430000000 1.0
C      1  0.5801740000000  0.5033120000000  0.4877070000000 1.0
C      1  0.4842410000000  0.5816370000000  0.5061900000000 1.0
C      1  0.4976270000000  0.5165040000000  0.5797310000000 1.0
C      1  0.4937880000000  0.4837360000000  0.4201110000000 1.0
C      1  0.5028770000000  0.5126600000000  0.4208110000000 1.0
C      1  0.4192770000000  0.4943180000000  0.4886870000000 1.0
C      1  0.4192460000000  0.5066740000000  0.5118750000000 1.0
C      1  0.5808430000000  0.4941090000000  0.5166930000000 1.0
C      1  0.5171620000000  0.4194360000000  0.5021880000000 1.0
C      1  0.5132000000000  0.5806520000000  0.4970810000000 1.0
C      1  0.4839160000000  0.4193960000000  0.4973740000000 1.0
C      1  0.4810460000000  0.4984990000000  0.4335220000000 1.0
C      1  0.4986230000000  0.4316870000000  0.4826990000000 1.0
C      1  0.4335000000000  0.4799640000000  0.4999770000000 1.0
C      1  0.5189540000000  0.5010980000000  0.4334770000000 1.0
C      1  0.4828580000000  0.5017350000000  0.5674370000000 1.0
C      1  0.5172050000000  0.4981530000000  0.5676090000000 1.0
C      1  0.5016070000000  0.5679450000000  0.4811060000000 1.0
C      1  0.4989300000000  0.5682440000000  0.5190170000000 1.0
C      1  0.5024150000000  0.4312660000000  0.5170980000000 1.0
C      1  0.5672890000000  0.5191910000000  0.4993220000000 1.0
C      1  0.4335140000000  0.5208420000000  0.5006460000000 1.0
C      1  0.5676440000000  0.4813460000000  0.5018050000000 1.0
C      1  0.4986130000000  0.4809430000000  0.4335190000000 1.0
C      1  0.4322570000000  0.4985670000000  0.4830850000000 1.0
C      1  0.4800110000000  0.4326990000000  0.4994860000000 1.0
C      1  0.5011300000000  0.5189130000000  0.4334640000000 1.0
C      1  0.5003570000000  0.4794540000000  0.5662240000000 1.0
C      1  0.4996890000000  0.5204590000000  0.5664720000000 1.0
C      1  0.5675470000000  0.5015110000000  0.4814540000000 1.0
C      1  0.5673720000000  0.4988110000000  0.5194610000000 1.0
C      1  0.4322880000000  0.5023980000000  0.5174690000000 1.0
C      1  0.5193120000000  0.5679460000000  0.4988510000000 1.0
C      1  0.5208440000000  0.4328390000000  0.5003370000000 1.0
C      1  0.4813820000000  0.5682490000000  0.5014190000000 1.0
C      1  0.5578990000000  0.5681490000000  0.4866060000000 1.0
C      1  0.5673360000000  0.4869360000000  0.5578520000000 1.0
C      1  0.4867520000000  0.5581830000000  0.5675650000000 1.0
C      1  0.4423570000000  0.4319940000000  0.4868330000000 1.0
C      1  0.5585880000000  0.4325100000000  0.5134800000000 1.0
C      1  0.4430430000000  0.5688980000000  0.5136120000000 1.0
C      1  0.4327600000000  0.5131190000000  0.5569860000000 1.0
C      1  0.5679660000000  0.5138220000000  0.4428110000000 1.0
C      1  0.4323030000000  0.4870700000000  0.4436200000000 1.0
C      1  0.5133580000000  0.4415740000000  0.5669900000000 1.0
C      1  0.4869590000000  0.4425510000000  0.4328950000000 1.0
C      1  0.5137930000000  0.5575780000000  0.4323390000000 1.0
C      1  0.5681260000000  0.5578230000000  0.4866980000000 1.0
C      1  0.4867080000000  0.5686570000000  0.5573620000000 1.0
C      1  0.5565950000000  0.4869500000000  0.5679440000000 1.0
C      1  0.4321650000000  0.4422840000000  0.4869350000000 1.0
C      1  0.4327490000000  0.5585170000000  0.5135580000000 1.0
C      1  0.5687390000000  0.4430280000000  0.5137130000000 1.0
C      1  0.5135020000000  0.4313170000000  0.5565160000000 1.0
C      1  0.5138900000000  0.5679740000000  0.4425060000000 1.0
C      1  0.4871220000000  0.4321420000000  0.4433010000000 1.0
C      1  0.4432720000000  0.5130260000000  0.5673840000000 1.0
C      1  0.4426330000000  0.4868920000000  0.4331220000000 1.0
C      1  0.5576450000000  0.5137390000000  0.4325620000000 1.0
C      1  0.4486540000000  0.5642340000000  0.4593410000000 1.0
C      1  0.5619100000000  0.4587830000000  0.4493180000000 1.0
C      1  0.4597390000000  0.4429320000000  0.5643850000000 1.0
C      1  0.5574410000000  0.4360650000000  0.4597010000000 1.0
C      1  0.4491810000000  0.4383270000000  0.5419730000000 1.0
C      1  0.5511180000000  0.5618620000000  0.5417700000000 1.0
C      1  0.4359140000000  0.5404790000000  0.4439660000000 1.0
C      1  0.5632490000000  0.5408960000000  0.5519540000000 1.0
C      1  0.4370110000000  0.4592190000000  0.5520890000000 1.0
C      1  0.5404020000000  0.5571030000000  0.5643330000000 1.0
C      1  0.4586570000000  0.5512320000000  0.4389490000000 1.0
C      1  0.5410490000000  0.4484900000000  0.4369520000000 1.0
C      1  0.5642940000000  0.4486220000000  0.4594390000000 1.0
C      1  0.4587720000000  0.5618510000000  0.4491710000000 1.0
C      1  0.4439630000000  0.4596860000000  0.5645850000000 1.0
C      1  0.4361320000000  0.5573090000000  0.4598020000000 1.0
C      1  0.4389830000000  0.4488480000000  0.5421020000000 1.0
C      1  0.5613630000000  0.5513040000000  0.5418790000000 1.0
C      1  0.5406790000000  0.4358410000000  0.4437940000000 1.0
C      1  0.5409090000000  0.5641300000000  0.5518590000000 1.0
C      1  0.4593590000000  0.4359600000000  0.5519730000000 1.0
C      1  0.5562490000000  0.5402930000000  0.5645240000000 1.0
C      1  0.5513420000000  0.4586650000000  0.4390130000000 1.0
C      1  0.4485170000000  0.5408900000000  0.4370230000000 1.0
C      1  0.5701210000000  0.4706960000000  0.4516410000000 1.0
C      1  0.4709560000000  0.4486990000000  0.5707260000000 1.0
C      1  0.4521320000000  0.5721990000000  0.4707040000000 1.0
C      1  0.4291180000000  0.5295400000000  0.4500550000000 1.0
C      1  0.5710670000000  0.5295140000000  0.5485020000000 1.0
C      1  0.4291440000000  0.4706030000000  0.5486530000000 1.0
C      1  0.5291930000000  0.5513700000000  0.5708630000000 1.0
C      1  0.4704630000000  0.5488370000000  0.4306390000000 1.0
C      1  0.5295710000000  0.4519040000000  0.4291950000000 1.0
C      1  0.5517740000000  0.4293430000000  0.4708120000000 1.0
C      1  0.4512600000000  0.4300540000000  0.5301200000000 1.0
C      1  0.5489730000000  0.5701860000000  0.5298830000000 1.0
C      1  0.4706740000000  0.5701300000000  0.4513530000000 1.0
C      1  0.4500750000000  0.4707140000000  0.5710950000000 1.0
C      1  0.5721490000000  0.4520800000000  0.4709090000000 1.0
C      1  0.5297340000000  0.4289510000000  0.4497710000000 1.0
C      1  0.5295510000000  0.5720730000000  0.5483480000000 1.0
C      1  0.4707040000000  0.4279570000000  0.5484910000000 1.0
C      1  0.5501730000000  0.5292680000000  0.5712170000000 1.0
C      1  0.5489270000000  0.4704820000000  0.4307450000000 1.0
C      1  0.4519560000000  0.5294070000000  0.4292970000000 1.0
C      1  0.4295100000000  0.5516720000000  0.4710070000000 1.0
C      1  0.4306350000000  0.4510520000000  0.5303650000000 1.0
C      1  0.5697510000000  0.5490470000000  0.5300990000000 1.0
C      1  0.5099840000000  0.5597850000000  0.5194330000000 1.0
C      1  0.5584630000000  0.5196310000000  0.5101250000000 1.0
C      1  0.5195790000000  0.5095920000000  0.5594620000000 1.0
C      1  0.4912700000000  0.4397090000000  0.5190860000000 1.0
C      1  0.5100050000000  0.4399810000000  0.4804500000000 1.0
C      1  0.4908000000000  0.5592130000000  0.4807500000000 1.0
C      1  0.4420550000000  0.4806920000000  0.5107520000000 1.0
C      1  0.5593690000000  0.4808190000000  0.4906280000000 1.0
C      1  0.4416480000000  0.5207390000000  0.4894490000000 1.0
C      1  0.4805180000000  0.4903610000000  0.5590620000000 1.0
C      1  0.5194520000000  0.4902710000000  0.4422640000000 1.0
C      1  0.4804890000000  0.5096580000000  0.4418930000000 1.0
C      1  0.5588330000000  0.5098570000000  0.5199180000000 1.0
C      1  0.5196450000000  0.5591990000000  0.5096410000000 1.0
C      1  0.5108950000000  0.5204060000000  0.5583610000000 1.0
C      1  0.4408190000000  0.4912630000000  0.5195290000000 1.0
C      1  0.4405090000000  0.5099550000000  0.4807380000000 1.0
C      1  0.5588250000000  0.4906990000000  0.4810350000000 1.0
C      1  0.4808490000000  0.4411700000000  0.5102610000000 1.0
C      1  0.4809460000000  0.5598130000000  0.4903490000000 1.0
C      1  0.5207400000000  0.4410830000000  0.4892130000000 1.0
C      1  0.4892060000000  0.4794860000000  0.5579590000000 1.0
C      1  0.4903140000000  0.5194130000000  0.4422620000000 1.0
C      1  0.5097770000000  0.4803640000000  0.4418820000000 1.0
C      1  0.4728940000000  0.4522590000000  0.4850000000000 1.0
C      1  0.4523420000000  0.4844810000000  0.4738650000000 1.0
C      1  0.4844060000000  0.4726370000000  0.4536120000000 1.0
C      1  0.5274620000000  0.5481190000000  0.4844720000000 1.0
C      1  0.4732230000000  0.5480480000000  0.5155310000000 1.0
C      1  0.5277360000000  0.4521950000000  0.5151400000000 1.0
C      1  0.5478400000000  0.5160160000000  0.4732230000000 1.0
C      1  0.4527310000000  0.5161210000000  0.5267000000000 1.0
C      1  0.5472100000000  0.4843640000000  0.5273210000000 1.0
C      1  0.5158600000000  0.5273710000000  0.4528650000000 1.0
C      1  0.4849920000000  0.5277680000000  0.5472210000000 1.0
C      1  0.5151920000000  0.4721800000000  0.5470330000000 1.0
C      1  0.4527340000000  0.4726800000000  0.4851630000000 1.0
C      1  0.4846250000000  0.4519340000000  0.4736700000000 1.0
C      1  0.4728360000000  0.4842440000000  0.4536390000000 1.0
C      1  0.5478040000000  0.5275220000000  0.4846350000000 1.0
C      1  0.5474940000000  0.4728350000000  0.5157290000000 1.0
C      1  0.4528750000000  0.5279750000000  0.5153140000000 1.0
C      1  0.5160190000000  0.5480980000000  0.4730380000000 1.0
C      1  0.5158680000000  0.4517810000000  0.5264970000000 1.0
C      1  0.4847740000000  0.5480110000000  0.5270650000000 1.0
C      1  0.5273190000000  0.5158760000000  0.4528950000000 1.0
C      1  0.5265490000000  0.4841930000000  0.5475030000000 1.0
C      1  0.4735300000000  0.5158530000000  0.5473500000000 1.0
C      1  0.5847600000000  0.5176290000000  0.5337120000000 1.0
C      1  0.5171520000000  0.5364070000000  0.5840100000000 1.0
C      1  0.5358280000000  0.5846810000000  0.5165950000000 1.0
C      1  0.4149680000000  0.4822040000000  0.5341580000000 1.0
C      1  0.5845180000000  0.4839650000000  0.4649400000000 1.0
C      1  0.4156630000000  0.5187430000000  0.4662470000000 1.0
C      1  0.4830430000000  0.4634810000000  0.5838280000000 1.0
C      1  0.5174990000000  0.4668170000000  0.4157320000000 1.0
C      1  0.4835930000000  0.5353940000000  0.4162960000000 1.0
C      1  0.4637570000000  0.4151440000000  0.5170330000000 1.0
C      1  0.5369800000000  0.4159060000000  0.4826990000000 1.0
C      1  0.4672560000000  0.5856720000000  0.4825500000000 1.0
C      1  0.5177310000000  0.5855850000000  0.5332540000000 1.0
C      1  0.5339180000000  0.5183650000000  0.5845310000000 1.0
C      1  0.5842240000000  0.5357550000000  0.5169810000000 1.0
C      1  0.4822390000000  0.4139680000000  0.5336600000000 1.0
C      1  0.4839500000000  0.5846500000000  0.4644960000000 1.0
C      1  0.5189350000000  0.4153490000000  0.4658230000000 1.0
C      1  0.4662010000000  0.4816260000000  0.5843430000000 1.0
C      1  0.4668220000000  0.5173420000000  0.4157900000000 1.0
C      1  0.5355230000000  0.4836090000000  0.4163610000000 1.0
C      1  0.4157270000000  0.4636790000000  0.5174570000000 1.0
C      1  0.4162350000000  0.5368160000000  0.4830310000000 1.0
C      1  0.5854600000000  0.4672420000000  0.4829320000000 1.0
C      1  0.5737330000000  0.5074900000000  0.4546350000000 1.0
C      1  0.5070820000000  0.4533390000000  0.5730730000000 1.0
C      1  0.4549880000000  0.5747740000000  0.5071940000000 1.0
C      1  0.4263590000000  0.4934450000000  0.4556400000000 1.0
C      1  0.5734760000000  0.4931390000000  0.5459310000000 1.0
C      1  0.4266740000000  0.5069730000000  0.5449420000000 1.0
C      1  0.4929990000000  0.5463960000000  0.5735160000000 1.0
C      1  0.5072800000000  0.5457190000000  0.4267900000000 1.0
C      1  0.4930730000000  0.4545740000000  0.4269550000000 1.0
C      1  0.5469730000000  0.4263350000000  0.5070080000000 1.0
C      1  0.4540120000000  0.4261960000000  0.4933070000000 1.0
C      1  0.5461310000000  0.5739500000000  0.4929890000000 1.0
C      1  0.5075280000000  0.5738470000000  0.4542500000000 1.0
C      1  0.4553580000000  0.5067940000000  0.5733540000000 1.0
C      1  0.5745090000000  0.4550460000000  0.5074530000000 1.0
C      1  0.4935550000000  0.4260990000000  0.4552330000000 1.0
C      1  0.4931160000000  0.5746110000000  0.5454470000000 1.0
C      1  0.5071500000000  0.4253870000000  0.5445010000000 1.0
C      1  0.5444830000000  0.4931420000000  0.5737780000000 1.0
C      1  0.5458060000000  0.5072590000000  0.4269320000000 1.0
C      1  0.4546390000000  0.4929610000000  0.4270950000000 1.0
C      1  0.4266900000000  0.5468150000000  0.5072600000000 1.0
C      1  0.4265670000000  0.4539600000000  0.4935940000000 1.0
C      1  0.5737520000000  0.5460290000000  0.4932390000000 1.0
C      1  0.5170230000000  0.4629900000000  0.5697470000000 1.0
C      1  0.4641960000000  0.5709510000000  0.5174570000000 1.0
C      1  0.5705320000000  0.5175380000000  0.4642030000000 1.0
C      1  0.4830290000000  0.5367880000000  0.5699950000000 1.0
C      1  0.5172680000000  0.5361250000000  0.4300800000000 1.0
C      1  0.4826040000000  0.4637030000000  0.4306660000000 1.0
C      1  0.5372770000000  0.4295870000000  0.5169530000000 1.0
C      1  0.4635310000000  0.4295740000000  0.4831910000000 1.0
C      1  0.5365910000000  0.5707870000000  0.4828590000000 1.0
C      1  0.4296120000000  0.4831120000000  0.4650160000000 1.0
C      1  0.5700020000000  0.4827610000000  0.5366870000000 1.0
C      1  0.4299350000000  0.5175060000000  0.5357290000000 1.0
C      1  0.4646820000000  0.5171840000000  0.5701180000000 1.0
C      1  0.5705060000000  0.4641420000000  0.5178110000000 1.0
C      1  0.5176230000000  0.5707270000000  0.4638240000000 1.0
C      1  0.5352240000000  0.4827080000000  0.5703220000000 1.0
C      1  0.5361910000000  0.5172330000000  0.4301580000000 1.0
C      1  0.4637800000000  0.4824970000000  0.4307410000000 1.0
C      1  0.4301490000000  0.5372110000000  0.5172860000000 1.0
C      1  0.4299730000000  0.4635290000000  0.4835590000000 1.0
C      1  0.5705410000000  0.5364360000000  0.4832010000000 1.0
C      1  0.4831790000000  0.4292640000000  0.4646220000000 1.0
C      1  0.4828720000000  0.5708650000000  0.5362070000000 1.0
C      1  0.5175700000000  0.4288990000000  0.5352850000000 1.0
C      1  0.4453930000000  0.5280080000000  0.5651910000000 1.0
C      1  0.5289250000000  0.5655770000000  0.4447860000000 1.0
C      1  0.5659690000000  0.4450090000000  0.5288080000000 1.0
C      1  0.5545230000000  0.4719630000000  0.5656680000000 1.0
C      1  0.4446570000000  0.4718100000000  0.4355690000000 1.0
C      1  0.5553170000000  0.5287490000000  0.4348670000000 1.0
C      1  0.4720810000000  0.4342750000000  0.4455140000000 1.0
C      1  0.5285820000000  0.4339040000000  0.5545810000000 1.0
C      1  0.4716180000000  0.5660250000000  0.5552370000000 1.0
C      1  0.4349900000000  0.5559760000000  0.5285610000000 1.0
C      1  0.5658100000000  0.5554760000000  0.4716690000000 1.0
C      1  0.4345150000000  0.4446880000000  0.4718260000000 1.0
C      1  0.5283490000000  0.4441080000000  0.5648430000000 1.0
C      1  0.5655800000000  0.5288450000000  0.4450610000000 1.0
C      1  0.4451520000000  0.5662350000000  0.5287000000000 1.0
C      1  0.4717630000000  0.5556810000000  0.5653210000000 1.0
C      1  0.4718750000000  0.4445870000000  0.4353640000000 1.0
C      1  0.5288050000000  0.5552470000000  0.4346690000000 1.0
C      1  0.4344250000000  0.4720530000000  0.4458050000000 1.0
C      1  0.4350880000000  0.5281620000000  0.5550090000000 1.0
C      1  0.5650010000000  0.4718560000000  0.5556980000000 1.0
C      1  0.5559660000000  0.4345940000000  0.5284980000000 1.0
C      1  0.5556390000000  0.5657440000000  0.4715630000000 1.0
C      1  0.4446680000000  0.4344420000000  0.4717170000000 1.0
C      1  0.4698930000000  0.4585540000000  0.5808090000000 1.0
C      1  0.4613160000000  0.5828920000000  0.4698670000000 1.0
C      1  0.5819500000000  0.4706690000000  0.4597970000000 1.0
C      1  0.5302740000000  0.5413940000000  0.5808310000000 1.0
C      1  0.4703150000000  0.5405140000000  0.4189690000000 1.0
C      1  0.5302420000000  0.4609780000000  0.4183850000000 1.0
C      1  0.5419090000000  0.4192890000000  0.4696160000000 1.0
C      1  0.4589410000000  0.4179400000000  0.5303480000000 1.0
C      1  0.5408580000000  0.5820160000000  0.5299190000000 1.0
C      1  0.4193470000000  0.5313340000000  0.4602600000000 1.0
C      1  0.5820030000000  0.5303160000000  0.5395800000000 1.0
C      1  0.4179170000000  0.4694390000000  0.5401130000000 1.0
C      1  0.4602290000000  0.4689970000000  0.5809200000000 1.0
C      1  0.5828140000000  0.4613120000000  0.4701970000000 1.0
C      1  0.4706440000000  0.5819900000000  0.4594400000000 1.0
C      1  0.5399300000000  0.5309900000000  0.5809610000000 1.0
C      1  0.5406560000000  0.4703410000000  0.4190260000000 1.0
C      1  0.4609660000000  0.5300810000000  0.4184230000000 1.0
C      1  0.4195070000000  0.5417440000000  0.4699120000000 1.0
C      1  0.4186270000000  0.4588570000000  0.5307390000000 1.0
C      1  0.5814520000000  0.5407890000000  0.5302680000000 1.0
C      1  0.5315280000000  0.4191310000000  0.4599200000000 1.0
C      1  0.5304030000000  0.5828320000000  0.5392270000000 1.0
C      1  0.4694930000000  0.4169230000000  0.5397220000000 1.0
C      1  0.4696150000000  0.5080300000000  0.4512920000000 1.0
C      1  0.5080610000000  0.4493690000000  0.4696020000000 1.0
C      1  0.4516610000000  0.4702190000000  0.5092130000000 1.0
C      1  0.5301380000000  0.4920700000000  0.4515650000000 1.0
C      1  0.4694540000000  0.4924280000000  0.5498970000000 1.0
C      1  0.5306220000000  0.5076660000000  0.5503420000000 1.0
C      1  0.4922990000000  0.5495690000000  0.4703330000000 1.0
C      1  0.5085270000000  0.5502260000000  0.5301240000000 1.0
C      1  0.4925920000000  0.4490830000000  0.5300040000000 1.0
C      1  0.5490960000000  0.5302960000000  0.5084210000000 1.0
C      1  0.4509120000000  0.5314940000000  0.4912010000000 1.0
C      1  0.5500040000000  0.4699310000000  0.4919350000000 1.0
C      1  0.5081870000000  0.4694230000000  0.4512310000000 1.0
C      1  0.4497570000000  0.5079480000000  0.4698000000000 1.0
C      1  0.4705590000000  0.4509940000000  0.5089940000000 1.0
C      1  0.4920560000000  0.5301630000000  0.4515190000000 1.0
C      1  0.4911310000000  0.4686040000000  0.5487950000000 1.0
C      1  0.5091240000000  0.5312640000000  0.5492250000000 1.0
C      1  0.5493190000000  0.4922640000000  0.4705150000000 1.0
C      1  0.5492870000000  0.5080930000000  0.5306540000000 1.0
C      1  0.4501890000000  0.4928500000000  0.5304690000000 1.0
C      1  0.5301020000000  0.5495830000000  0.5082000000000 1.0
C      1  0.5313730000000  0.4504730000000  0.4910580000000 1.0
C      1  0.4701880000000  0.5503140000000  0.4917740000000 1.0
C      1  0.5133560000000  0.5904120000000  0.5077620000000 1.0
C      1  0.5930880000000  0.4999370000000  0.5109770000000 1.0
C      1  0.5083520000000  0.5151360000000  0.5894810000000 1.0
C      1  0.4852580000000  0.4096240000000  0.5080040000000 1.0
C      1  0.5157890000000  0.4098820000000  0.4913160000000 1.0
C      1  0.4900700000000  0.5937890000000  0.5003190000000 1.0
C      1  0.4077160000000  0.4987930000000  0.5073850000000 1.0
C      1  0.5900050000000  0.4926920000000  0.4875740000000 1.0
C      1  0.4076720000000  0.5021510000000  0.4931290000000 1.0
C      1  0.4917380000000  0.4847130000000  0.5893280000000 1.0
C      1  0.4995400000000  0.4894510000000  0.4078400000000 1.0
C      1  0.4922370000000  0.5127600000000  0.4110010000000 1.0
C      1  0.5897720000000  0.5132350000000  0.5082960000000 1.0
C      1  0.5000400000000  0.5937910000000  0.5103470000000 1.0
C      1  0.5071400000000  0.5015960000000  0.5921850000000 1.0
C      1  0.4104070000000  0.4852260000000  0.5085750000000 1.0
C      1  0.4104860000000  0.5156650000000  0.4918350000000 1.0
C      1  0.5931800000000  0.4899990000000  0.5009260000000 1.0
C      1  0.4988350000000  0.4068970000000  0.5067660000000 1.0
C      1  0.4927210000000  0.5904330000000  0.4870090000000 1.0
C      1  0.5022580000000  0.4070060000000  0.4925170000000 1.0
C      1  0.4929060000000  0.4982340000000  0.5921420000000 1.0
C      1  0.4895260000000  0.4994230000000  0.4078360000000 1.0
C      1  0.5128690000000  0.4922150000000  0.4109980000000 1.0
C      1  0.4363780000000  0.4589690000000  0.4707870000000 1.0
C      1  0.4588280000000  0.4699430000000  0.4374600000000 1.0
C      1  0.4704090000000  0.4359800000000  0.4597310000000 1.0
C      1  0.5639380000000  0.5412060000000  0.4704520000000 1.0
C      1  0.4367880000000  0.5416770000000  0.5299660000000 1.0
C      1  0.5636910000000  0.4591350000000  0.5303380000000 1.0
C      1  0.5410210000000  0.5299390000000  0.4366710000000 1.0
C      1  0.4595970000000  0.5298820000000  0.5635070000000 1.0
C      1  0.5403700000000  0.4700310000000  0.5636650000000 1.0
C      1  0.5302690000000  0.5639620000000  0.4590860000000 1.0
C      1  0.4703240000000  0.5641190000000  0.5410420000000 1.0
C      1  0.5301830000000  0.4357490000000  0.5403980000000 1.0
C      1  0.4589620000000  0.4361570000000  0.4705300000000 1.0
C      1  0.4700360000000  0.4587360000000  0.4373960000000 1.0
C      1  0.4362020000000  0.4703830000000  0.4600220000000 1.0
C      1  0.5413610000000  0.5640150000000  0.4702060000000 1.0
C      1  0.5416310000000  0.4361470000000  0.5296760000000 1.0
C      1  0.4593220000000  0.5641900000000  0.5300080000000 1.0
C      1  0.5299800000000  0.5409730000000  0.4366060000000 1.0
C      1  0.5296680000000  0.4584440000000  0.5632700000000 1.0
C      1  0.4704020000000  0.5413790000000  0.5634510000000 1.0
C      1  0.5638830000000  0.5301570000000  0.4593630000000 1.0
C      1  0.5633180000000  0.4701810000000  0.5414970000000 1.0
C      1  0.4366970000000  0.5301410000000  0.5408240000000 1.0
C      1  0.4336190000000  0.4838270000000  0.5467750000000 1.0
C      1  0.4839210000000  0.5474230000000  0.4348120000000 1.0
C      1  0.5496010000000  0.4340740000000  0.4840800000000 1.0
C      1  0.5664600000000  0.5162890000000  0.5471380000000 1.0
C      1  0.4334810000000  0.5161450000000  0.4523780000000 1.0
C      1  0.5658140000000  0.4840680000000  0.4532080000000 1.0
C      1  0.5163180000000  0.4531500000000  0.4338190000000 1.0
C      1  0.4840770000000  0.4508360000000  0.5656150000000 1.0
C      1  0.5159690000000  0.5492360000000  0.5659910000000 1.0
C      1  0.4535860000000  0.5676810000000  0.4839920000000 1.0
C      1  0.5474720000000  0.5659630000000  0.5164600000000 1.0
C      1  0.4531460000000  0.4343870000000  0.5168020000000 1.0
C      1  0.4839550000000  0.4323930000000  0.5464600000000 1.0
C      1  0.5474680000000  0.4839190000000  0.4349510000000 1.0
C      1  0.4343060000000  0.5495620000000  0.4842720000000 1.0
C      1  0.5163070000000  0.5674960000000  0.5467930000000 1.0
C      1  0.5163060000000  0.4332540000000  0.4520670000000 1.0
C      1  0.4840820000000  0.5658820000000  0.4528810000000 1.0
C      1  0.4532720000000  0.5161870000000  0.4339670000000 1.0
C      1  0.4523900000000  0.4840080000000  0.5663990000000 1.0
C      1  0.5478760000000  0.5158790000000  0.5667920000000 1.0
C      1  0.5675500000000  0.4534960000000  0.4841800000000 1.0
C      1  0.5656440000000  0.5476670000000  0.5166060000000 1.0
C      1  0.4348790000000  0.4529020000000  0.5170090000000 1.0
C      1  0.4689640000000  0.4966100000000  0.4599900000000 1.0
C      1  0.4968670000000  0.4583370000000  0.4695230000000 1.0
C      1  0.4596810000000  0.4692440000000  0.4973140000000 1.0
C      1  0.5309420000000  0.5037940000000  0.4597720000000 1.0
C      1  0.4690810000000  0.5037360000000  0.5410230000000 1.0
C      1  0.5308600000000  0.4965060000000  0.5413310000000 1.0
C      1  0.5038780000000  0.5412080000000  0.4695820000000 1.0
C      1  0.4971410000000  0.5414950000000  0.5307410000000 1.0
C      1  0.5035380000000  0.4581340000000  0.5305960000000 1.0
C      1  0.5408960000000  0.5311690000000  0.4967010000000 1.0
C      1  0.4593380000000  0.5317790000000  0.5029420000000 1.0
C      1  0.5412030000000  0.4690650000000  0.5032550000000 1.0
C      1  0.4967700000000  0.4686980000000  0.4599320000000 1.0
C      1  0.4587000000000  0.4967230000000  0.4696730000000 1.0
C      1  0.4696070000000  0.4591590000000  0.4972230000000 1.0
C      1  0.5037830000000  0.5310630000000  0.4597190000000 1.0
C      1  0.5029910000000  0.4682170000000  0.5405040000000 1.0
C      1  0.4973640000000  0.5316170000000  0.5408120000000 1.0
C      1  0.5409910000000  0.5038730000000  0.4697240000000 1.0
C      1  0.5406520000000  0.4965980000000  0.5311590000000 1.0
C      1  0.4591230000000  0.5039300000000  0.5309610000000 1.0
C      1  0.5309540000000  0.5412450000000  0.4966100000000 1.0
C      1  0.5315090000000  0.4588190000000  0.5028620000000 1.0
C      1  0.4694930000000  0.5415740000000  0.5031560000000 1.0
C      1  0.4735270000000  0.5380610000000  0.5478760000000 1.0
C      1  0.5379500000000  0.5485330000000  0.4732820000000 1.0
C      1  0.5477870000000  0.4730490000000  0.5377610000000 1.0
C      1  0.5266380000000  0.4618710000000  0.5476620000000 1.0
C      1  0.4730850000000  0.4621750000000  0.4529160000000 1.0
C      1  0.5270810000000  0.5378290000000  0.4521640000000 1.0
C      1  0.4623810000000  0.4516710000000  0.4738080000000 1.0
C      1  0.5379790000000  0.4516660000000  0.5266480000000 1.0
C      1  0.4627710000000  0.5487120000000  0.5268100000000 1.0
C      1  0.4523350000000  0.5272840000000  0.5372930000000 1.0
C      1  0.5483620000000  0.5271660000000  0.4627020000000 1.0
C      1  0.4517870000000  0.4731350000000  0.4634250000000 1.0
C      1  0.5370530000000  0.4728760000000  0.5480690000000 1.0
C      1  0.5484110000000  0.5379520000000  0.4733850000000 1.0
C      1  0.4735080000000  0.5486380000000  0.5375200000000 1.0
C      1  0.4630170000000  0.5271480000000  0.5478690000000 1.0
C      1  0.4623560000000  0.4729460000000  0.4529790000000 1.0
C      1  0.5377950000000  0.5270760000000  0.4522240000000 1.0
C      1  0.4519410000000  0.4622270000000  0.4739130000000 1.0
C      1  0.4523200000000  0.5382420000000  0.5268220000000 1.0
C      1  0.5481960000000  0.4623570000000  0.5269990000000 1.0
C      1  0.5269970000000  0.4513490000000  0.5370680000000 1.0
C      1  0.5272060000000  0.5484850000000  0.4625540000000 1.0
C      1  0.4732420000000  0.4515150000000  0.4632700000000 1.0
C      1  0.4803620000000  0.4771720000000  0.5875770000000 1.0
C      1  0.4818240000000  0.5881600000000  0.4784530000000 1.0
C      1  0.4813800000000  0.5213900000000  0.4130860000000 1.0
C      1  0.5215310000000  0.4813850000000  0.4130820000000 1.0
C      1  0.5233360000000  0.4119360000000  0.4799700000000 1.0
C      1  0.5879260000000  0.4818280000000  0.4789200000000 1.0
C      1  0.5197500000000  0.5227170000000  0.5878100000000 1.0
C      1  0.4776220000000  0.4112400000000  0.5193860000000 1.0
C      1  0.5218590000000  0.5881240000000  0.5186980000000 1.0
C      1  0.4123400000000  0.5231500000000  0.4804060000000 1.0
C      1  0.5875120000000  0.5217710000000  0.5191840000000 1.0
C      1  0.4120190000000  0.4775780000000  0.5199240000000 1.0
C      1  0.5525070000000  0.5526960000000  0.5695040000000 1.0
C      1  0.5531490000000  0.4310050000000  0.4475050000000 1.0
C      1  0.4310120000000  0.5529270000000  0.4476650000000 1.0
C      1  0.4476090000000  0.4472510000000  0.5696150000000 1.0
END
