TITL C-1379266-1300-380 9.14720012981859e-08 1000000 -3329.59543320393 0 0 460 (C1) n - 1
REM
REM in /nfs/bkarasulu/CARBON/AIRSS/Generating-Clusters/GAP-ML-2020/Higher-Symm/Selected-Sizes/TryA-Only_Ih-Symm/Larger-Clusters/Try2-MINAMP_6A
REM
REM
REM
REM
REM
REM ./C.cell (31579ac4e95a012ec27f3239692ae8a5)
REM
REM compiler GCC version 9.2.1 20190827 (Red Hat 9.2.1-1)
REM options -cpp -mtune=generic -march=x86-64 -g -O0 -fpre-include=/usr/include/finclude/math-vector-fortran.h
REM seed -1550724145 931781782 -923656472 -1053172175 266799278 155229051 -972255945 1579650308 -77939038 1477159815 -1877497165 -498623709 -2110517930 -585385141 -1237281163 -965800919 1729830618 300662855 454835104 1788936111 331351949 -1767418885 -531680569 -1469977042 -1338357220 125319482 1059896159 -2106896019 823993665 -353377241 381589910 663108028 -1661859467
REM
CELL 1.54180  100.00000  100.00000  100.00000   90.00000   90.00000   90.00000
LATT -1
SFAC C  
C      1  0.4667250000000  0.5244610000000  0.4280060000000 1.0
C      1  0.5221040000000  0.4250460000000  0.4681820000000 1.0
C      1  0.4247620000000  0.4689300000000  0.5219690000000 1.0
C      1  0.5338850000000  0.5247490000000  0.5725790000000 1.0
C      1  0.5337750000000  0.4757850000000  0.4278800000000 1.0
C      1  0.4666730000000  0.4765320000000  0.5719210000000 1.0
C      1  0.4781510000000  0.4255460000000  0.5320610000000 1.0
C      1  0.4815000000000  0.5737650000000  0.4695600000000 1.0
C      1  0.5204790000000  0.5753730000000  0.5332620000000 1.0
C      1  0.5757560000000  0.4667510000000  0.4763160000000 1.0
C      1  0.5749870000000  0.5342450000000  0.5237630000000 1.0
C      1  0.4259780000000  0.5320070000000  0.4788150000000 1.0
C      1  0.4262810000000  0.5227320000000  0.4683690000000 1.0
C      1  0.4685180000000  0.4246960000000  0.5219350000000 1.0
C      1  0.5239110000000  0.4660060000000  0.4279270000000 1.0
C      1  0.5743440000000  0.5243140000000  0.5334630000000 1.0
C      1  0.4254890000000  0.4783910000000  0.5322680000000 1.0
C      1  0.5746980000000  0.4767130000000  0.4666720000000 1.0
C      1  0.5317290000000  0.4243680000000  0.4783540000000 1.0
C      1  0.4753870000000  0.5699870000000  0.4826770000000 1.0
C      1  0.5297760000000  0.5760580000000  0.5223680000000 1.0
C      1  0.4765160000000  0.4667270000000  0.5718540000000 1.0
C      1  0.5240970000000  0.5346070000000  0.5727090000000 1.0
C      1  0.4766400000000  0.5341870000000  0.4279360000000 1.0
C      1  0.5120530000000  0.4687420000000  0.4204270000000 1.0
C      1  0.4692630000000  0.4173560000000  0.5094690000000 1.0
C      1  0.4183290000000  0.5111140000000  0.4679010000000 1.0
C      1  0.4884110000000  0.4693410000000  0.5793780000000 1.0
C      1  0.4884990000000  0.5314620000000  0.4203600000000 1.0
C      1  0.5122810000000  0.5319480000000  0.5802590000000 1.0
C      1  0.5311320000000  0.4172970000000  0.4909990000000 1.0
C      1  0.5290170000000  0.5824710000000  0.5092500000000 1.0
C      1  0.4722780000000  0.5810980000000  0.4929180000000 1.0
C      1  0.5815780000000  0.5123740000000  0.5310420000000 1.0
C      1  0.5816680000000  0.4888320000000  0.4691140000000 1.0
C      1  0.4178640000000  0.4902620000000  0.5326950000000 1.0
C      1  0.4175360000000  0.4698710000000  0.5094410000000 1.0
C      1  0.5102910000000  0.4173780000000  0.4679070000000 1.0
C      1  0.4691690000000  0.5124910000000  0.4204630000000 1.0
C      1  0.5826910000000  0.4696120000000  0.4883020000000 1.0
C      1  0.4184690000000  0.5313500000000  0.4911610000000 1.0
C      1  0.5820260000000  0.5315830000000  0.5118170000000 1.0
C      1  0.4900120000000  0.4178890000000  0.5323770000000 1.0
C      1  0.5076030000000  0.5815230000000  0.5350040000000 1.0
C      1  0.4925030000000  0.5825690000000  0.4680520000000 1.0
C      1  0.5315260000000  0.5127480000000  0.5799900000000 1.0
C      1  0.4692300000000  0.4884580000000  0.5794440000000 1.0
C      1  0.5313970000000  0.4877590000000  0.4204010000000 1.0
C      1  0.4261470000000  0.5231220000000  0.5428130000000 1.0
C      1  0.5191810000000  0.5388240000000  0.4260510000000 1.0
C      1  0.5431810000000  0.4254110000000  0.5214480000000 1.0
C      1  0.5745480000000  0.5191700000000  0.4614360000000 1.0
C      1  0.5749510000000  0.4820250000000  0.5387690000000 1.0
C      1  0.4255840000000  0.4782620000000  0.4575350000000 1.0
C      1  0.4821510000000  0.5396210000000  0.5740690000000 1.0
C      1  0.4816100000000  0.4613380000000  0.4260770000000 1.0
C      1  0.5190370000000  0.4617410000000  0.5738520000000 1.0
C      1  0.4573860000000  0.4252960000000  0.4786070000000 1.0
C      1  0.4575300000000  0.5756760000000  0.5212300000000 1.0
C      1  0.5419100000000  0.5754120000000  0.4792500000000 1.0
C      1  0.5393620000000  0.5183400000000  0.4261240000000 1.0
C      1  0.4262220000000  0.5433550000000  0.5219400000000 1.0
C      1  0.5229450000000  0.4257210000000  0.5424910000000 1.0
C      1  0.4616480000000  0.5192010000000  0.5739280000000 1.0
C      1  0.5393930000000  0.4822420000000  0.5739800000000 1.0
C      1  0.4612750000000  0.4819300000000  0.4260060000000 1.0
C      1  0.5745920000000  0.5396190000000  0.4818960000000 1.0
C      1  0.4252720000000  0.4580170000000  0.4785700000000 1.0
C      1  0.5754530000000  0.4615350000000  0.5184060000000 1.0
C      1  0.4775650000000  0.4253480000000  0.4576220000000 1.0
C      1  0.5219030000000  0.5752300000000  0.4583830000000 1.0
C      1  0.4760190000000  0.5744980000000  0.5430200000000 1.0
C      1  0.4839530000000  0.5270780000000  0.5473230000000 1.0
C      1  0.5266280000000  0.5500020000000  0.4838840000000 1.0
C      1  0.5484640000000  0.4834530000000  0.5263990000000 1.0
C      1  0.5174290000000  0.5267860000000  0.4528110000000 1.0
C      1  0.5174720000000  0.4735690000000  0.5471170000000 1.0
C      1  0.4834560000000  0.4733180000000  0.4528830000000 1.0
C      1  0.4743130000000  0.5505190000000  0.5154960000000 1.0
C      1  0.4732930000000  0.4505670000000  0.4834850000000 1.0
C      1  0.5278050000000  0.4508140000000  0.5166810000000 1.0
C      1  0.4510350000000  0.4831400000000  0.4732920000000 1.0
C      1  0.4512420000000  0.5172870000000  0.5270650000000 1.0
C      1  0.5480920000000  0.5172590000000  0.4737520000000 1.0
C      1  0.5483850000000  0.5271550000000  0.4840210000000 1.0
C      1  0.4832750000000  0.5496430000000  0.5263180000000 1.0
C      1  0.5274630000000  0.4835720000000  0.5471850000000 1.0
C      1  0.4515820000000  0.5271300000000  0.5170100000000 1.0
C      1  0.5490090000000  0.4735430000000  0.5161580000000 1.0
C      1  0.4507050000000  0.4733840000000  0.4834450000000 1.0
C      1  0.5171900000000  0.5492190000000  0.4734970000000 1.0
C      1  0.4830850000000  0.4507970000000  0.4733220000000 1.0
C      1  0.5179280000000  0.4511230000000  0.5267520000000 1.0
C      1  0.4735450000000  0.4833930000000  0.4528030000000 1.0
C      1  0.5273880000000  0.5167720000000  0.4527660000000 1.0
C      1  0.4738610000000  0.5171630000000  0.5471860000000 1.0
C      1  0.4520980000000  0.4969450000000  0.4761230000000 1.0
C      1  0.4973440000000  0.4758670000000  0.4532840000000 1.0
C      1  0.4763630000000  0.4505400000000  0.4974840000000 1.0
C      1  0.5483630000000  0.4974300000000  0.5237450000000 1.0
C      1  0.5482270000000  0.5032830000000  0.4763780000000 1.0
C      1  0.4520850000000  0.5035630000000  0.5238310000000 1.0
C      1  0.5035520000000  0.4761140000000  0.5466220000000 1.0
C      1  0.5036190000000  0.5240630000000  0.4530130000000 1.0
C      1  0.4976820000000  0.5243060000000  0.5473980000000 1.0
C      1  0.5246290000000  0.4505800000000  0.5026510000000 1.0
C      1  0.5224590000000  0.5515070000000  0.4975240000000 1.0
C      1  0.4766080000000  0.5515810000000  0.5016290000000 1.0
C      1  0.4762790000000  0.4972090000000  0.4530100000000 1.0
C      1  0.4506530000000  0.4764560000000  0.4974390000000 1.0
C      1  0.4969270000000  0.4517600000000  0.4762820000000 1.0
C      1  0.5246030000000  0.4974130000000  0.5469460000000 1.0
C      1  0.4763620000000  0.5032560000000  0.5467030000000 1.0
C      1  0.5245370000000  0.5029240000000  0.4531910000000 1.0
C      1  0.5503150000000  0.4762690000000  0.5020830000000 1.0
C      1  0.4521200000000  0.5244680000000  0.5032030000000 1.0
C      1  0.5497890000000  0.5244180000000  0.4980570000000 1.0
C      1  0.5040320000000  0.4520960000000  0.5238330000000 1.0
C      1  0.4973630000000  0.5496780000000  0.5236030000000 1.0
C      1  0.5034340000000  0.5495220000000  0.4765800000000 1.0
C      1  0.5004660000000  0.5104880000000  0.5486470000000 1.0
C      1  0.5080600000000  0.5543170000000  0.5000910000000 1.0
C      1  0.5512790000000  0.5002620000000  0.5103160000000 1.0
C      1  0.5005490000000  0.5103380000000  0.4515560000000 1.0
C      1  0.5004980000000  0.4898060000000  0.5482160000000 1.0
C      1  0.5003420000000  0.4896270000000  0.4517780000000 1.0
C      1  0.4848090000000  0.5592940000000  0.4919980000000 1.0
C      1  0.4902100000000  0.4500530000000  0.5001700000000 1.0
C      1  0.5107840000000  0.4500630000000  0.4999930000000 1.0
C      1  0.4503480000000  0.5003330000000  0.4896490000000 1.0
C      1  0.4502150000000  0.5007010000000  0.5102250000000 1.0
C      1  0.5512600000000  0.5004440000000  0.4897780000000 1.0
C      1  0.5513000000000  0.5106270000000  0.5002700000000 1.0
C      1  0.5021620000000  0.5552100000000  0.5122620000000 1.0
C      1  0.5108160000000  0.5000960000000  0.5484930000000 1.0
C      1  0.4503880000000  0.5108970000000  0.4999570000000 1.0
C      1  0.5515090000000  0.4900880000000  0.4998300000000 1.0
C      1  0.4499990000000  0.4903100000000  0.5000020000000 1.0
C      1  0.4985970000000  0.5554070000000  0.4888180000000 1.0
C      1  0.5002160000000  0.4501210000000  0.4898220000000 1.0
C      1  0.5007730000000  0.4502780000000  0.5103170000000 1.0
C      1  0.4900770000000  0.5000190000000  0.4516170000000 1.0
C      1  0.5107870000000  0.5000030000000  0.4517240000000 1.0
C      1  0.4901030000000  0.5002170000000  0.5483020000000 1.0
C      1  0.4617440000000  0.4719040000000  0.4363850000000 1.0
C      1  0.4694470000000  0.4368570000000  0.4601070000000 1.0
C      1  0.4367500000000  0.4601220000000  0.4702230000000 1.0
C      1  0.5391230000000  0.4721850000000  0.5636230000000 1.0
C      1  0.5390260000000  0.5284170000000  0.4364930000000 1.0
C      1  0.4623480000000  0.5292180000000  0.5635450000000 1.0
C      1  0.5312760000000  0.4370700000000  0.5399740000000 1.0
C      1  0.5302430000000  0.5637850000000  0.4606150000000 1.0
C      1  0.4687150000000  0.5628460000000  0.5393900000000 1.0
C      1  0.5649070000000  0.4620260000000  0.5282750000000 1.0
C      1  0.5640690000000  0.5390060000000  0.4720210000000 1.0
C      1  0.4378950000000  0.5410330000000  0.5300570000000 1.0
C      1  0.4369320000000  0.4698760000000  0.4600020000000 1.0
C      1  0.4597120000000  0.4367870000000  0.4703120000000 1.0
C      1  0.4715840000000  0.4618850000000  0.4364180000000 1.0
C      1  0.5646780000000  0.4719470000000  0.5382430000000 1.0
C      1  0.4376910000000  0.5311770000000  0.5402070000000 1.0
C      1  0.5641220000000  0.5290950000000  0.4620260000000 1.0
C      1  0.5411000000000  0.4368780000000  0.5298300000000 1.0
C      1  0.4595990000000  0.5635300000000  0.5287360000000 1.0
C      1  0.5399640000000  0.5639430000000  0.4708220000000 1.0
C      1  0.5291990000000  0.4622260000000  0.5636030000000 1.0
C      1  0.4723320000000  0.5391940000000  0.5634590000000 1.0
C      1  0.5291350000000  0.5384070000000  0.4365370000000 1.0
C      1  0.5470010000000  0.4944840000000  0.5732940000000 1.0
C      1  0.4885470000000  0.5730120000000  0.5491250000000 1.0
C      1  0.5738060000000  0.5473780000000  0.4941040000000 1.0
C      1  0.4536450000000  0.4941850000000  0.4267970000000 1.0
C      1  0.4540180000000  0.5069450000000  0.5730610000000 1.0
C      1  0.5469030000000  0.5060650000000  0.4268940000000 1.0
C      1  0.5089030000000  0.5740590000000  0.4522050000000 1.0
C      1  0.5093170000000  0.4272170000000  0.5471130000000 1.0
C      1  0.4911710000000  0.4266810000000  0.4529490000000 1.0
C      1  0.4273960000000  0.5483730000000  0.5084570000000 1.0
C      1  0.4266780000000  0.4529850000000  0.4920660000000 1.0
C      1  0.5747920000000  0.4537740000000  0.5061970000000 1.0
C      1  0.5740830000000  0.4942130000000  0.5464450000000 1.0
C      1  0.5469640000000  0.5739660000000  0.4927200000000 1.0
C      1  0.4941530000000  0.5476430000000  0.5738900000000 1.0
C      1  0.4270670000000  0.4918770000000  0.4528320000000 1.0
C      1  0.5738590000000  0.5069370000000  0.4537700000000 1.0
C      1  0.4273760000000  0.5094620000000  0.5473840000000 1.0
C      1  0.4528680000000  0.5747960000000  0.5075880000000 1.0
C      1  0.5482850000000  0.4268630000000  0.5079430000000 1.0
C      1  0.4524420000000  0.4267580000000  0.4921210000000 1.0
C      1  0.5070990000000  0.5465980000000  0.4265810000000 1.0
C      1  0.4936900000000  0.4534620000000  0.4269250000000 1.0
C      1  0.5068520000000  0.4540110000000  0.5729520000000 1.0
C      1  0.5639130000000  0.4472170000000  0.4996730000000 1.0
C      1  0.4477420000000  0.5005060000000  0.5621140000000 1.0
C      1  0.5019440000000  0.5627130000000  0.4474260000000 1.0
C      1  0.4371490000000  0.4472650000000  0.4997590000000 1.0
C      1  0.4377490000000  0.5539700000000  0.5007060000000 1.0
C      1  0.5628080000000  0.5537220000000  0.5006520000000 1.0
C      1  0.5531230000000  0.4996690000000  0.4378370000000 1.0
C      1  0.5531650000000  0.5009350000000  0.5623460000000 1.0
C      1  0.4474130000000  0.5006070000000  0.4377870000000 1.0
C      1  0.4991150000000  0.5637240000000  0.5526710000000 1.0
C      1  0.4988050000000  0.4372030000000  0.4478950000000 1.0
C      1  0.5016340000000  0.4377300000000  0.5520950000000 1.0
C      1  0.5005310000000  0.4476430000000  0.5619860000000 1.0
C      1  0.5628760000000  0.5003140000000  0.4477960000000 1.0
C      1  0.4475280000000  0.5638790000000  0.5003950000000 1.0
C      1  0.4998710000000  0.4470980000000  0.4379730000000 1.0
C      1  0.5009390000000  0.5528750000000  0.4376060000000 1.0
C      1  0.5008220000000  0.5539390000000  0.5630890000000 1.0
C      1  0.4378040000000  0.5016090000000  0.5522570000000 1.0
C      1  0.5629290000000  0.5005220000000  0.5523980000000 1.0
C      1  0.4375350000000  0.4995640000000  0.4477090000000 1.0
C      1  0.5529330000000  0.5635390000000  0.5002930000000 1.0
C      1  0.4469280000000  0.4373400000000  0.4997850000000 1.0
C      1  0.5540880000000  0.4373260000000  0.5002230000000 1.0
C      1  0.4361940000000  0.5237990000000  0.4579700000000 1.0
C      1  0.5244390000000  0.4557860000000  0.4377150000000 1.0
C      1  0.4574370000000  0.4335140000000  0.5233400000000 1.0
C      1  0.5642490000000  0.5245890000000  0.5433510000000 1.0
C      1  0.5644710000000  0.4762190000000  0.4568990000000 1.0
C      1  0.4356770000000  0.4774540000000  0.5424090000000 1.0
C      1  0.4758820000000  0.4565260000000  0.5620630000000 1.0
C      1  0.4763160000000  0.5442830000000  0.4378660000000 1.0
C      1  0.5245150000000  0.5446640000000  0.5628340000000 1.0
C      1  0.5429200000000  0.4329520000000  0.4767300000000 1.0
C      1  0.5412370000000  0.5676310000000  0.5236990000000 1.0
C      1  0.4611680000000  0.5655660000000  0.4785870000000 1.0
C      1  0.4566840000000  0.5252280000000  0.4379460000000 1.0
C      1  0.4334450000000  0.4577460000000  0.5233420000000 1.0
C      1  0.5229120000000  0.4350860000000  0.4578630000000 1.0
C      1  0.5437650000000  0.5254110000000  0.5625800000000 1.0
C      1  0.4564630000000  0.4758680000000  0.5621510000000 1.0
C      1  0.5438340000000  0.4750890000000  0.4377320000000 1.0
C      1  0.5668340000000  0.4559960000000  0.4755860000000 1.0
C      1  0.4347610000000  0.5430460000000  0.4773870000000 1.0
C      1  0.5658580000000  0.5448020000000  0.5245380000000 1.0
C      1  0.4773720000000  0.4357760000000  0.5421650000000 1.0
C      1  0.5225430000000  0.5652440000000  0.5432880000000 1.0
C      1  0.4789770000000  0.5650790000000  0.4582700000000 1.0
C      1  0.4541720000000  0.5074420000000  0.4661820000000 1.0
C      1  0.5076680000000  0.4655530000000  0.4548350000000 1.0
C      1  0.4676580000000  0.4503180000000  0.5087940000000 1.0
C      1  0.5464370000000  0.5082850000000  0.5333920000000 1.0
C      1  0.5464350000000  0.4924340000000  0.4667070000000 1.0
C      1  0.4541180000000  0.4928210000000  0.5335070000000 1.0
C      1  0.4930780000000  0.4659710000000  0.5450700000000 1.0
C      1  0.4933580000000  0.5342920000000  0.4546680000000 1.0
C      1  0.5077990000000  0.5346720000000  0.5458520000000 1.0
C      1  0.5332300000000  0.4500980000000  0.4912260000000 1.0
C      1  0.5315500000000  0.5505990000000  0.5088060000000 1.0
C      1  0.4657350000000  0.5464400000000  0.4931370000000 1.0
C      1  0.4660860000000  0.5076390000000  0.4545390000000 1.0
C      1  0.4504140000000  0.4677680000000  0.5087860000000 1.0
C      1  0.5076010000000  0.4536780000000  0.4665040000000 1.0
C      1  0.5344850000000  0.5081020000000  0.5455090000000 1.0
C      1  0.4661030000000  0.4928750000000  0.5451470000000 1.0
C      1  0.5345290000000  0.4923680000000  0.4547190000000 1.0
C      1  0.5507750000000  0.4677480000000  0.4905100000000 1.0
C      1  0.4539700000000  0.5350360000000  0.4931100000000 1.0
C      1  0.5500480000000  0.5329360000000  0.5095870000000 1.0
C      1  0.4931830000000  0.4541290000000  0.5334720000000 1.0
C      1  0.5075320000000  0.5465840000000  0.5339190000000 1.0
C      1  0.4934900000000  0.5462000000000  0.4662750000000 1.0
C      1  0.5392720000000  0.5205900000000  0.5286390000000 1.0
C      1  0.5201060000000  0.5300760000000  0.5388870000000 1.0
C      1  0.5296500000000  0.5407040000000  0.5191480000000 1.0
C      1  0.4610190000000  0.5199190000000  0.4713070000000 1.0
C      1  0.4609440000000  0.4801760000000  0.5285960000000 1.0
C      1  0.5395140000000  0.4800580000000  0.4715380000000 1.0
C      1  0.4809840000000  0.5292210000000  0.4615860000000 1.0
C      1  0.4807890000000  0.4710520000000  0.5380790000000 1.0
C      1  0.5200110000000  0.4705110000000  0.4617530000000 1.0
C      1  0.4711740000000  0.5391870000000  0.4810150000000 1.0
C      1  0.4701870000000  0.4599960000000  0.5192530000000 1.0
C      1  0.5306840000000  0.4595830000000  0.4806090000000 1.0
C      1  0.5293540000000  0.5202640000000  0.5385220000000 1.0
C      1  0.5399540000000  0.5307810000000  0.5194340000000 1.0
C      1  0.5201600000000  0.5401450000000  0.5291020000000 1.0
C      1  0.4712740000000  0.5197710000000  0.4616330000000 1.0
C      1  0.5294680000000  0.4801700000000  0.4617710000000 1.0
C      1  0.4711360000000  0.4805510000000  0.5381980000000 1.0
C      1  0.4610010000000  0.5296340000000  0.4808100000000 1.0
C      1  0.5406950000000  0.4697410000000  0.4805020000000 1.0
C      1  0.4601310000000  0.4700680000000  0.5192670000000 1.0
C      1  0.4808430000000  0.5393440000000  0.4713430000000 1.0
C      1  0.5203930000000  0.4604020000000  0.4714360000000 1.0
C      1  0.4804760000000  0.4609180000000  0.5284160000000 1.0
C      1  0.5855950000000  0.5074700000000  0.4829380000000 1.0
C      1  0.5070250000000  0.4835340000000  0.5836680000000 1.0
C      1  0.4769320000000  0.5915380000000  0.5151470000000 1.0
C      1  0.4089030000000  0.5151690000000  0.5258510000000 1.0
C      1  0.4086980000000  0.4865440000000  0.4747490000000 1.0
C      1  0.5858150000000  0.4938400000000  0.5172120000000 1.0
C      1  0.4935620000000  0.4831210000000  0.4162380000000 1.0
C      1  0.4937520000000  0.5176360000000  0.5840150000000 1.0
C      1  0.5070650000000  0.5171010000000  0.4162810000000 1.0
C      1  0.5234160000000  0.5918950000000  0.4870530000000 1.0
C      1  0.5243630000000  0.4086560000000  0.5140930000000 1.0
C      1  0.4758600000000  0.4084300000000  0.4861420000000 1.0
C      1  0.4833010000000  0.5072040000000  0.5838430000000 1.0
C      1  0.5861490000000  0.4835310000000  0.5068440000000 1.0
C      1  0.5134410000000  0.5923320000000  0.4758870000000 1.0
C      1  0.5174100000000  0.5065590000000  0.4162940000000 1.0
C      1  0.4831860000000  0.4936510000000  0.4162540000000 1.0
C      1  0.5174320000000  0.4940000000000  0.5837960000000 1.0
C      1  0.4088640000000  0.4768540000000  0.4861910000000 1.0
C      1  0.5857560000000  0.5177630000000  0.4933230000000 1.0
C      1  0.4093960000000  0.5248430000000  0.5144240000000 1.0
C      1  0.4861430000000  0.5913850000000  0.5269080000000 1.0
C      1  0.5147590000000  0.4084730000000  0.5256020000000 1.0
C      1  0.4855370000000  0.4081150000000  0.4746860000000 1.0
C      1  0.5411640000000  0.4777070000000  0.5498360000000 1.0
C      1  0.4765700000000  0.5499560000000  0.5396760000000 1.0
C      1  0.5501640000000  0.5407810000000  0.4778360000000 1.0
C      1  0.4599610000000  0.4776300000000  0.4501700000000 1.0
C      1  0.4605420000000  0.5233340000000  0.5498380000000 1.0
C      1  0.5409810000000  0.5227700000000  0.4502170000000 1.0
C      1  0.5234630000000  0.5503170000000  0.4598210000000 1.0
C      1  0.5241160000000  0.4501620000000  0.5404900000000 1.0
C      1  0.4768190000000  0.4499010000000  0.4595950000000 1.0
C      1  0.4510330000000  0.5407940000000  0.5225920000000 1.0
C      1  0.4499390000000  0.4596820000000  0.4774270000000 1.0
C      1  0.5511280000000  0.4599990000000  0.5224320000000 1.0
C      1  0.5508050000000  0.4774260000000  0.5401080000000 1.0
C      1  0.5406610000000  0.5506810000000  0.4778780000000 1.0
C      1  0.4782700000000  0.5407150000000  0.5496760000000 1.0
C      1  0.4500440000000  0.4770450000000  0.4595420000000 1.0
C      1  0.5504260000000  0.5233400000000  0.4600930000000 1.0
C      1  0.4504290000000  0.5235130000000  0.5406880000000 1.0
C      1  0.4602410000000  0.5507170000000  0.5210090000000 1.0
C      1  0.5416890000000  0.4500690000000  0.5227690000000 1.0
C      1  0.4595360000000  0.4499660000000  0.4774980000000 1.0
C      1  0.5233600000000  0.5403650000000  0.4503640000000 1.0
C      1  0.4773070000000  0.4599010000000  0.4502530000000 1.0
C      1  0.5235720000000  0.4601510000000  0.5498120000000 1.0
C      1  0.4146790000000  0.4763480000000  0.4660750000000 1.0
C      1  0.4832670000000  0.4730050000000  0.4185530000000 1.0
C      1  0.4658600000000  0.4144560000000  0.4766960000000 1.0
C      1  0.5827530000000  0.4836010000000  0.5272750000000 1.0
C      1  0.5823440000000  0.5177010000000  0.4729270000000 1.0
C      1  0.4151390000000  0.5252900000000  0.5344960000000 1.0
C      1  0.5173230000000  0.4734040000000  0.5813370000000 1.0
C      1  0.5174500000000  0.5271600000000  0.4185550000000 1.0
C      1  0.4836060000000  0.5278950000000  0.5816100000000 1.0
C      1  0.5344870000000  0.4147320000000  0.5233860000000 1.0
C      1  0.5332360000000  0.5862180000000  0.4775540000000 1.0
C      1  0.4661210000000  0.5864050000000  0.5239290000000 1.0
C      1  0.4729720000000  0.4834430000000  0.4185210000000 1.0
C      1  0.4146250000000  0.4667420000000  0.4767100000000 1.0
C      1  0.4754560000000  0.4143960000000  0.4660660000000 1.0
C      1  0.5276470000000  0.4837940000000  0.5814210000000 1.0
C      1  0.4732240000000  0.5175540000000  0.5815450000000 1.0
C      1  0.5276970000000  0.5167320000000  0.4185760000000 1.0
C      1  0.5830520000000  0.4732280000000  0.5169200000000 1.0
C      1  0.4153700000000  0.5348560000000  0.5238540000000 1.0
C      1  0.5824140000000  0.5280540000000  0.4833170000000 1.0
C      1  0.5249520000000  0.4147430000000  0.5340820000000 1.0
C      1  0.4751260000000  0.5860250000000  0.5350630000000 1.0
C      1  0.5234520000000  0.5862020000000  0.4669750000000 1.0
C      1  0.5580230000000  0.5367850000000  0.5467430000000 1.0
C      1  0.5363870000000  0.5480580000000  0.5556960000000 1.0
C      1  0.5448200000000  0.5638360000000  0.5372940000000 1.0
C      1  0.4425830000000  0.5361590000000  0.4545550000000 1.0
C      1  0.4418120000000  0.4651090000000  0.5459670000000 1.0
C      1  0.5583490000000  0.4639320000000  0.4535290000000 1.0
C      1  0.4646190000000  0.5476990000000  0.4454600000000 1.0
C      1  0.4638140000000  0.4533730000000  0.5548860000000 1.0
C      1  0.5364380000000  0.4524860000000  0.4448860000000 1.0
C      1  0.4570890000000  0.5628010000000  0.4649670000000 1.0
C      1  0.4545600000000  0.4379320000000  0.5369420000000 1.0
C      1  0.5456530000000  0.4369430000000  0.4629280000000 1.0
C      1  0.5467360000000  0.5376460000000  0.5556460000000 1.0
C      1  0.5616070000000  0.5474950000000  0.5379480000000 1.0
C      1  0.5349640000000  0.5595250000000  0.5467260000000 1.0
C      1  0.4539670000000  0.5372860000000  0.4454020000000 1.0
C      1  0.5468550000000  0.4629060000000  0.4447760000000 1.0
C      1  0.4533190000000  0.4638160000000  0.5549460000000 1.0
C      1  0.4393410000000  0.5465170000000  0.4639790000000 1.0
C      1  0.5623500000000  0.4532470000000  0.4622030000000 1.0
C      1  0.4377900000000  0.4547160000000  0.5369440000000 1.0
C      1  0.4664360000000  0.5590940000000  0.4547700000000 1.0
C      1  0.5351820000000  0.4410800000000  0.4540220000000 1.0
C      1  0.4650600000000  0.4419110000000  0.5458570000000 1.0
C      1  0.4792900000000  0.5879120000000  0.5026980000000 1.0
C      1  0.5848410000000  0.4933580000000  0.4825190000000 1.0
C      1  0.4929720000000  0.4828750000000  0.5823220000000 1.0
C      1  0.5207710000000  0.5879600000000  0.4993280000000 1.0
C      1  0.5241740000000  0.4105140000000  0.5010670000000 1.0
C      1  0.4757880000000  0.4103630000000  0.4991980000000 1.0
C      1  0.4098900000000  0.5020680000000  0.5295760000000 1.0
C      1  0.4099590000000  0.4996000000000  0.4709360000000 1.0
C      1  0.5847720000000  0.5079160000000  0.5176290000000 1.0
C      1  0.5075980000000  0.4823330000000  0.4175850000000 1.0
C      1  0.5077900000000  0.5183240000000  0.5829060000000 1.0
C      1  0.4929990000000  0.5178750000000  0.4175310000000 1.0
C      1  0.5006140000000  0.5899170000000  0.4768860000000 1.0
C      1  0.4827030000000  0.4931240000000  0.5823920000000 1.0
C      1  0.5853680000000  0.4831460000000  0.4927720000000 1.0
C      1  0.4989020000000  0.5885490000000  0.5270630000000 1.0
C      1  0.5016770000000  0.4097200000000  0.5293610000000 1.0
C      1  0.4986050000000  0.4093170000000  0.4709490000000 1.0
C      1  0.5179240000000  0.4925000000000  0.4175640000000 1.0
C      1  0.4826500000000  0.5077240000000  0.4175590000000 1.0
C      1  0.5180320000000  0.5080740000000  0.5827840000000 1.0
C      1  0.4108340000000  0.4767490000000  0.4992330000000 1.0
C      1  0.5850100000000  0.5181250000000  0.5073800000000 1.0
C      1  0.4113040000000  0.5249220000000  0.5013570000000 1.0
C      1  0.5821530000000  0.5421480000000  0.5034000000000 1.0
C      1  0.5420230000000  0.5043030000000  0.5815130000000 1.0
C      1  0.5005640000000  0.5784540000000  0.5471870000000 1.0
C      1  0.4205640000000  0.5418310000000  0.4990820000000 1.0
C      1  0.4200730000000  0.4594110000000  0.5015830000000 1.0
C      1  0.5829780000000  0.4590930000000  0.4967770000000 1.0
C      1  0.4586500000000  0.5041060000000  0.4187540000000 1.0
C      1  0.4587840000000  0.4969550000000  0.5811480000000 1.0
C      1  0.5419220000000  0.4961690000000  0.4187360000000 1.0
C      1  0.4989190000000  0.5828770000000  0.4555190000000 1.0
C      1  0.5003170000000  0.4187150000000  0.5408640000000 1.0
C      1  0.5000530000000  0.4182030000000  0.4593420000000 1.0
C      1  0.5038420000000  0.5423940000000  0.5820890000000 1.0
C      1  0.5824890000000  0.5038460000000  0.5415180000000 1.0
C      1  0.5401610000000  0.5799690000000  0.5023610000000 1.0
C      1  0.4970940000000  0.5417880000000  0.4184960000000 1.0
C      1  0.5035880000000  0.4582720000000  0.4187410000000 1.0
C      1  0.4968880000000  0.4588790000000  0.5810290000000 1.0
C      1  0.4187040000000  0.5009020000000  0.4592560000000 1.0
C      1  0.5823800000000  0.4974130000000  0.4586840000000 1.0
C      1  0.4187550000000  0.5005700000000  0.5411630000000 1.0
C      1  0.4599030000000  0.5808520000000  0.4978930000000 1.0
C      1  0.5418090000000  0.4202640000000  0.4984450000000 1.0
C      1  0.4588660000000  0.4200510000000  0.5015810000000 1.0
C      1  0.5567290000000  0.4885020000000  0.4554350000000 1.0
C      1  0.4887280000000  0.4545020000000  0.5551960000000 1.0
C      1  0.4552040000000  0.5574480000000  0.4889270000000 1.0
C      1  0.4435390000000  0.4895860000000  0.5444500000000 1.0
C      1  0.4436430000000  0.5114440000000  0.4555430000000 1.0
C      1  0.5566280000000  0.5122410000000  0.5447680000000 1.0
C      1  0.5116750000000  0.4539640000000  0.4447190000000 1.0
C      1  0.5116390000000  0.5463670000000  0.5559140000000 1.0
C      1  0.4892550000000  0.5458140000000  0.4445260000000 1.0
C      1  0.5449800000000  0.5581400000000  0.5123110000000 1.0
C      1  0.5463820000000  0.4425350000000  0.4880050000000 1.0
C      1  0.4543600000000  0.4429250000000  0.5118870000000 1.0
C      1  0.4545680000000  0.4887230000000  0.5552850000000 1.0
C      1  0.5577720000000  0.4540190000000  0.4873680000000 1.0
C      1  0.4903990000000  0.5567540000000  0.4553380000000 1.0
C      1  0.5457800000000  0.4879400000000  0.4446180000000 1.0
C      1  0.4545510000000  0.5122520000000  0.4446250000000 1.0
C      1  0.5456850000000  0.5126000000000  0.5556100000000 1.0
C      1  0.4428250000000  0.4545900000000  0.5118860000000 1.0
C      1  0.5566320000000  0.5467010000000  0.5128290000000 1.0
C      1  0.4435910000000  0.5463250000000  0.4888060000000 1.0
C      1  0.5106870000000  0.5568740000000  0.5448500000000 1.0
C      1  0.4895940000000  0.4435140000000  0.5443040000000 1.0
C      1  0.5108230000000  0.4429930000000  0.4556640000000 1.0
C      1  0.4442270000000  0.5590660000000  0.4623400000000 1.0
C      1  0.5582080000000  0.4406580000000  0.4598710000000 1.0
C      1  0.4420500000000  0.4422030000000  0.5395140000000 1.0
C      1  0.5573780000000  0.5600500000000  0.5400040000000 1.0
END
