TITL C-1379265-1223-422 1.48918317001859e-07 1000000 -2847.4797522827 0 0 400 (C1) n - 1
REM
REM in /nfs/bkarasulu/CARBON/AIRSS/Generating-Clusters/GAP-ML-2020/Higher-Symm/Selected-Sizes/TryA-Only_Ih-Symm/Larger-Clusters/Try2-MINAMP_6A
REM
REM
REM
REM
REM
REM ./C.cell (31579ac4e95a012ec27f3239692ae8a5)
REM
REM compiler GCC version 9.2.1 20190827 (Red Hat 9.2.1-1)
REM options -cpp -mtune=generic -march=x86-64 -g -O0 -fpre-include=/usr/include/finclude/math-vector-fortran.h
REM seed 1656555007 -25549297 419780435 2049535101 1287412889 921210392 1757254254 105998983 -167828933 898365202 2009544496 198869605 -254392015 -1922999246 132479094 1827844092 -178746402 189599825 1079098713 -1663807225 -1478985848 -851264184 -918744080 -861017405 -1858075293 486126034 -825374013 1333025214 203545287 -1132266243 -1524377746 1328911755 333062029
REM
CELL 1.54180  100.00000  100.00000  100.00000   90.00000   90.00000   90.00000
LATT -1
SFAC C  
C      1  0.5547000000000  0.5355010000000  0.4585900000000 1.0
C      1  0.4578630000000  0.5544590000000  0.5371820000000 1.0
C      1  0.5285220000000  0.4507680000000  0.5552310000000 1.0
C      1  0.4452030000000  0.5333260000000  0.5425510000000 1.0
C      1  0.5577400000000  0.4665940000000  0.5488340000000 1.0
C      1  0.4424490000000  0.4691200000000  0.4499620000000 1.0
C      1  0.5408510000000  0.5550370000000  0.4635940000000 1.0
C      1  0.4475580000000  0.4377620000000  0.4700350000000 1.0
C      1  0.5449110000000  0.4480910000000  0.5347680000000 1.0
C      1  0.4641220000000  0.4533780000000  0.4440180000000 1.0
C      1  0.5351500000000  0.5407870000000  0.4446450000000 1.0
C      1  0.4720200000000  0.5515650000000  0.5593740000000 1.0
C      1  0.4511520000000  0.5282200000000  0.5542680000000 1.0
C      1  0.5318900000000  0.5518860000000  0.4528980000000 1.0
C      1  0.5548480000000  0.4572210000000  0.5381990000000 1.0
C      1  0.5461800000000  0.5320660000000  0.4477370000000 1.0
C      1  0.5517560000000  0.4718720000000  0.5599840000000 1.0
C      1  0.4534780000000  0.4636910000000  0.4437460000000 1.0
C      1  0.4669550000000  0.5574480000000  0.5480570000000 1.0
C      1  0.4695950000000  0.4425920000000  0.4505930000000 1.0
C      1  0.5336430000000  0.4446430000000  0.5436360000000 1.0
C      1  0.4376410000000  0.4469870000000  0.4695760000000 1.0
C      1  0.4487080000000  0.5446260000000  0.5336610000000 1.0
C      1  0.5518310000000  0.5466600000000  0.4670450000000 1.0
C      1  0.5105020000000  0.4423080000000  0.4561060000000 1.0
C      1  0.4586490000000  0.5128600000000  0.4397520000000 1.0
C      1  0.4381750000000  0.4557380000000  0.5101180000000 1.0
C      1  0.4846320000000  0.4392390000000  0.5426020000000 1.0
C      1  0.5160410000000  0.5602030000000  0.5429280000000 1.0
C      1  0.4904700000000  0.5607070000000  0.4556830000000 1.0
C      1  0.5451000000000  0.5117690000000  0.5600970000000 1.0
C      1  0.4559020000000  0.4883300000000  0.5589860000000 1.0
C      1  0.5439870000000  0.4906190000000  0.4393930000000 1.0
C      1  0.5584900000000  0.4587750000000  0.4896540000000 1.0
C      1  0.4436240000000  0.5428020000000  0.4899290000000 1.0
C      1  0.5606290000000  0.5456020000000  0.5090880000000 1.0
C      1  0.4548050000000  0.4374150000000  0.5121220000000 1.0
C      1  0.4416560000000  0.5098690000000  0.4556860000000 1.0
C      1  0.5132210000000  0.4586760000000  0.4393620000000 1.0
C      1  0.5426650000000  0.4429560000000  0.4912740000000 1.0
C      1  0.5442570000000  0.5612330000000  0.5113040000000 1.0
C      1  0.4590990000000  0.5592990000000  0.4886860000000 1.0
C      1  0.5602650000000  0.5153410000000  0.5424010000000 1.0
C      1  0.5588320000000  0.4872710000000  0.4568790000000 1.0
C      1  0.4404050000000  0.4839630000000  0.5415430000000 1.0
C      1  0.4884750000000  0.4554790000000  0.5596390000000 1.0
C      1  0.4868960000000  0.5437160000000  0.4405520000000 1.0
C      1  0.5119160000000  0.5449750000000  0.5600540000000 1.0
C      1  0.5581130000000  0.5481770000000  0.4798600000000 1.0
C      1  0.4943150000000  0.5596870000000  0.5527790000000 1.0
C      1  0.5526200000000  0.4860930000000  0.5616050000000 1.0
C      1  0.4447380000000  0.5453420000000  0.5197670000000 1.0
C      1  0.5540890000000  0.4512630000000  0.5119460000000 1.0
C      1  0.4354130000000  0.4454300000000  0.4849710000000 1.0
C      1  0.5189160000000  0.5580630000000  0.4517600000000 1.0
C      1  0.4838920000000  0.4413010000000  0.4493560000000 1.0
C      1  0.5060300000000  0.4410310000000  0.5519420000000 1.0
C      1  0.4492200000000  0.4914590000000  0.4415580000000 1.0
C      1  0.5474960000000  0.5190740000000  0.4418080000000 1.0
C      1  0.4494280000000  0.5145220000000  0.5579220000000 1.0
C      1  0.4861600000000  0.5526150000000  0.5614640000000 1.0
C      1  0.5519640000000  0.5571970000000  0.4890630000000 1.0
C      1  0.5595990000000  0.4940920000000  0.5526590000000 1.0
C      1  0.5094010000000  0.5518520000000  0.4430200000000 1.0
C      1  0.5148100000000  0.4491100000000  0.5587850000000 1.0
C      1  0.4919350000000  0.4495200000000  0.4419060000000 1.0
C      1  0.4518370000000  0.5541250000000  0.5108110000000 1.0
C      1  0.4456310000000  0.4357860000000  0.4853140000000 1.0
C      1  0.5453910000000  0.4441510000000  0.5208950000000 1.0
C      1  0.4409540000000  0.4833970000000  0.4489150000000 1.0
C      1  0.4415500000000  0.5056320000000  0.5510160000000 1.0
C      1  0.5562260000000  0.5095980000000  0.4483460000000 1.0
C      1  0.4288440000000  0.4759920000000  0.5406230000000 1.0
C      1  0.5417230000000  0.4310340000000  0.4830280000000 1.0
C      1  0.4781710000000  0.5429520000000  0.4293760000000 1.0
C      1  0.5701660000000  0.4788250000000  0.4581450000000 1.0
C      1  0.4299680000000  0.5181430000000  0.4575430000000 1.0
C      1  0.5722400000000  0.5227800000000  0.5410890000000 1.0
C      1  0.4564270000000  0.4250380000000  0.5189400000000 1.0
C      1  0.5446730000000  0.5739110000000  0.5175920000000 1.0
C      1  0.4591920000000  0.5722560000000  0.4828260000000 1.0
C      1  0.5194300000000  0.5431260000000  0.5720690000000 1.0
C      1  0.4815570000000  0.4572510000000  0.5720160000000 1.0
C      1  0.5191280000000  0.4589130000000  0.4264290000000 1.0
C      1  0.5429940000000  0.4833250000000  0.4270850000000 1.0
C      1  0.4780170000000  0.4267230000000  0.5423200000000 1.0
C      1  0.4322210000000  0.5413350000000  0.4811180000000 1.0
C      1  0.4574500000000  0.4811130000000  0.5711780000000 1.0
C      1  0.4577230000000  0.5189710000000  0.4271680000000 1.0
C      1  0.5433630000000  0.5188800000000  0.5723840000000 1.0
C      1  0.5195530000000  0.4314120000000  0.4585470000000 1.0
C      1  0.5240890000000  0.5717590000000  0.5419450000000 1.0
C      1  0.4831430000000  0.5729720000000  0.4573490000000 1.0
C      1  0.5728110000000  0.5446080000000  0.5168550000000 1.0
C      1  0.5710800000000  0.4581020000000  0.4832960000000 1.0
C      1  0.4257170000000  0.4574920000000  0.5168130000000 1.0
C      1  0.4863830000000  0.4760070000000  0.5870160000000 1.0
C      1  0.5859680000000  0.4850510000000  0.4764320000000 1.0
C      1  0.4769790000000  0.5873870000000  0.4879170000000 1.0
C      1  0.5134510000000  0.4767700000000  0.4114640000000 1.0
C      1  0.4844540000000  0.5250270000000  0.4128560000000 1.0
C      1  0.5141590000000  0.5244650000000  0.5875460000000 1.0
C      1  0.4118570000000  0.4844740000000  0.5236860000000 1.0
C      1  0.5880010000000  0.5155920000000  0.5237340000000 1.0
C      1  0.4139220000000  0.5139360000000  0.4755150000000 1.0
C      1  0.5263040000000  0.5883320000000  0.5131280000000 1.0
C      1  0.4752500000000  0.4106580000000  0.5136230000000 1.0
C      1  0.5240050000000  0.4143520000000  0.4868460000000 1.0
C      1  0.5862570000000  0.4757150000000  0.4877630000000 1.0
C      1  0.4758840000000  0.4863520000000  0.5868320000000 1.0
C      1  0.4870310000000  0.5874480000000  0.4770890000000 1.0
C      1  0.4107000000000  0.4751960000000  0.5126390000000 1.0
C      1  0.4146590000000  0.5241090000000  0.4860180000000 1.0
C      1  0.5877420000000  0.5251790000000  0.5127640000000 1.0
C      1  0.5235750000000  0.4873810000000  0.4119900000000 1.0
C      1  0.5244740000000  0.5140530000000  0.5876050000000 1.0
C      1  0.4749550000000  0.5139670000000  0.4121790000000 1.0
C      1  0.5168240000000  0.5875990000000  0.5242100000000 1.0
C      1  0.5141700000000  0.4143830000000  0.4760230000000 1.0
C      1  0.4850780000000  0.4110300000000  0.5243250000000 1.0
C      1  0.5337080000000  0.4336380000000  0.4579940000000 1.0
C      1  0.4546110000000  0.5328500000000  0.4275960000000 1.0
C      1  0.4278310000000  0.4530800000000  0.5302680000000 1.0
C      1  0.4640030000000  0.4282490000000  0.5436870000000 1.0
C      1  0.5382940000000  0.5700500000000  0.5425940000000 1.0
C      1  0.4691100000000  0.5720480000000  0.4574850000000 1.0
C      1  0.5440600000000  0.5328320000000  0.5712730000000 1.0
C      1  0.4569590000000  0.4671060000000  0.5700400000000 1.0
C      1  0.5438100000000  0.4692420000000  0.4281440000000 1.0
C      1  0.5715490000000  0.4556540000000  0.4691780000000 1.0
C      1  0.4337140000000  0.5424750000000  0.4669110000000 1.0
C      1  0.5720670000000  0.5467580000000  0.5310100000000 1.0
C      1  0.4541640000000  0.4259800000000  0.5331400000000 1.0
C      1  0.4310810000000  0.5322360000000  0.4565310000000 1.0
C      1  0.5330480000000  0.4585700000000  0.4269680000000 1.0
C      1  0.5434940000000  0.4318870000000  0.4689420000000 1.0
C      1  0.5473240000000  0.5742420000000  0.5316430000000 1.0
C      1  0.4590050000000  0.5723220000000  0.4688470000000 1.0
C      1  0.5704080000000  0.5367700000000  0.5417660000000 1.0
C      1  0.5681880000000  0.4645910000000  0.4578910000000 1.0
C      1  0.4307950000000  0.4616110000000  0.5415460000000 1.0
C      1  0.4675660000000  0.4564880000000  0.5713010000000 1.0
C      1  0.4639690000000  0.5436550000000  0.4316200000000 1.0
C      1  0.5334290000000  0.5435160000000  0.5706670000000 1.0
C      1  0.5801760000000  0.5126730000000  0.5345420000000 1.0
C      1  0.5370440000000  0.5813180000000  0.5082510000000 1.0
C      1  0.5106270000000  0.5348590000000  0.5795080000000 1.0
C      1  0.4220070000000  0.5095920000000  0.4654520000000 1.0
C      1  0.5786740000000  0.4882020000000  0.4652950000000 1.0
C      1  0.4205270000000  0.4862710000000  0.5340990000000 1.0
C      1  0.4669680000000  0.5792410000000  0.4922430000000 1.0
C      1  0.5335930000000  0.4229910000000  0.4913070000000 1.0
C      1  0.4643230000000  0.4177450000000  0.5097350000000 1.0
C      1  0.4874920000000  0.5359760000000  0.4204590000000 1.0
C      1  0.5095090000000  0.4662680000000  0.4192370000000 1.0
C      1  0.4903390000000  0.4656830000000  0.5790990000000 1.0
C      1  0.5348500000000  0.5102860000000  0.5796490000000 1.0
C      1  0.5141780000000  0.5801060000000  0.5352910000000 1.0
C      1  0.5802150000000  0.5357810000000  0.5084400000000 1.0
C      1  0.4643580000000  0.5092050000000  0.4194090000000 1.0
C      1  0.4656580000000  0.4899760000000  0.5786080000000 1.0
C      1  0.5342060000000  0.4915330000000  0.4196010000000 1.0
C      1  0.4913020000000  0.5802080000000  0.4661980000000 1.0
C      1  0.4879010000000  0.4190910000000  0.5350410000000 1.0
C      1  0.5106980000000  0.4227650000000  0.4658730000000 1.0
C      1  0.4237150000000  0.5336630000000  0.4897390000000 1.0
C      1  0.4180690000000  0.4646930000000  0.5080330000000 1.0
C      1  0.5786880000000  0.4654060000000  0.4926980000000 1.0
C      1  0.4919140000000  0.4400290000000  0.5293860000000 1.0
C      1  0.5303320000000  0.4963750000000  0.4413870000000 1.0
C      1  0.4448070000000  0.5287700000000  0.4956860000000 1.0
C      1  0.5036450000000  0.4438190000000  0.4695410000000 1.0
C      1  0.4962690000000  0.5582630000000  0.4692590000000 1.0
C      1  0.5084320000000  0.5594570000000  0.5299040000000 1.0
C      1  0.4694150000000  0.4942960000000  0.5566130000000 1.0
C      1  0.5315820000000  0.5059340000000  0.5576730000000 1.0
C      1  0.4715760000000  0.5057830000000  0.4405000000000 1.0
C      1  0.5587430000000  0.5317770000000  0.5035690000000 1.0
C      1  0.4408800000000  0.4677220000000  0.5027090000000 1.0
C      1  0.5573900000000  0.4724640000000  0.4953970000000 1.0
C      1  0.5285420000000  0.4443120000000  0.4964400000000 1.0
C      1  0.4411060000000  0.4917630000000  0.5284320000000 1.0
C      1  0.4939040000000  0.5302570000000  0.4408020000000 1.0
C      1  0.4669300000000  0.4399690000000  0.5044180000000 1.0
C      1  0.4730090000000  0.5577900000000  0.4941060000000 1.0
C      1  0.5307180000000  0.5599360000000  0.5053020000000 1.0
C      1  0.5579810000000  0.4943480000000  0.4703500000000 1.0
C      1  0.5591960000000  0.5078340000000  0.5293600000000 1.0
C      1  0.4434730000000  0.5035310000000  0.4691730000000 1.0
C      1  0.5059500000000  0.5314950000000  0.5576020000000 1.0
C      1  0.5064420000000  0.4719330000000  0.4406120000000 1.0
C      1  0.4943620000000  0.4689810000000  0.5570220000000 1.0
C      1  0.5863730000000  0.5048130000000  0.5140760000000 1.0
C      1  0.5154020000000  0.5863170000000  0.5039560000000 1.0
C      1  0.5040170000000  0.5140950000000  0.5859210000000 1.0
C      1  0.4142200000000  0.5036360000000  0.4857160000000 1.0
C      1  0.5846630000000  0.4958090000000  0.4860430000000 1.0
C      1  0.4136610000000  0.4951470000000  0.5138790000000 1.0
C      1  0.4875860000000  0.5858250000000  0.4976850000000 1.0
C      1  0.5130940000000  0.4148090000000  0.4965360000000 1.0
C      1  0.4857310000000  0.4132240000000  0.5038300000000 1.0
C      1  0.4950400000000  0.5151860000000  0.4139700000000 1.0
C      1  0.5031620000000  0.4868920000000  0.4128380000000 1.0
C      1  0.4963480000000  0.4864640000000  0.5855350000000 1.0
C      1  0.5140020000000  0.5040280000000  0.5859750000000 1.0
C      1  0.5060530000000  0.5859200000000  0.5146240000000 1.0
C      1  0.5858840000000  0.5141530000000  0.5033660000000 1.0
C      1  0.4857240000000  0.5044820000000  0.4135890000000 1.0
C      1  0.4862780000000  0.4964220000000  0.5854340000000 1.0
C      1  0.5128730000000  0.4971980000000  0.4135390000000 1.0
C      1  0.4972130000000  0.5859620000000  0.4873450000000 1.0
C      1  0.4953690000000  0.4131260000000  0.5142720000000 1.0
C      1  0.5035550000000  0.4146530000000  0.4860330000000 1.0
C      1  0.4149880000000  0.5133850000000  0.4960240000000 1.0
C      1  0.4129540000000  0.4859320000000  0.5030870000000 1.0
C      1  0.5847090000000  0.4867580000000  0.4969270000000 1.0
C      1  0.5276290000000  0.5173560000000  0.5353440000000 1.0
C      1  0.5371010000000  0.5277980000000  0.5151870000000 1.0
C      1  0.5170270000000  0.5369850000000  0.5253150000000 1.0
C      1  0.4754120000000  0.5151670000000  0.4632480000000 1.0
C      1  0.5260010000000  0.4856040000000  0.4639630000000 1.0
C      1  0.4726130000000  0.4825540000000  0.5341240000000 1.0
C      1  0.4659110000000  0.5251800000000  0.4832560000000 1.0
C      1  0.5350330000000  0.4753550000000  0.4843750000000 1.0
C      1  0.4626990000000  0.4719060000000  0.5142760000000 1.0
C      1  0.4859200000000  0.5352350000000  0.4728860000000 1.0
C      1  0.5154000000000  0.4655690000000  0.4735140000000 1.0
C      1  0.4824910000000  0.4620970000000  0.5247600000000 1.0
C      1  0.5370900000000  0.5174650000000  0.5253040000000 1.0
C      1  0.5170910000000  0.5274180000000  0.5352730000000 1.0
C      1  0.5271360000000  0.5372560000000  0.5150090000000 1.0
C      1  0.4655830000000  0.5151100000000  0.4728670000000 1.0
C      1  0.4630260000000  0.4823960000000  0.5241150000000 1.0
C      1  0.5352940000000  0.4855430000000  0.4741370000000 1.0
C      1  0.4856030000000  0.5253760000000  0.4632770000000 1.0
C      1  0.4826290000000  0.4718860000000  0.5345220000000 1.0
C      1  0.5155750000000  0.4754030000000  0.4637800000000 1.0
C      1  0.4758480000000  0.5349270000000  0.4834730000000 1.0
C      1  0.4723360000000  0.4621210000000  0.5145260000000 1.0
C      1  0.5252940000000  0.4655550000000  0.4840520000000 1.0
C      1  0.4608940000000  0.5625840000000  0.4505530000000 1.0
C      1  0.4495840000000  0.4585610000000  0.5609670000000 1.0
C      1  0.5672970000000  0.4425690000000  0.4700940000000 1.0
C      1  0.5447410000000  0.5602170000000  0.5511150000000 1.0
C      1  0.4577010000000  0.4378320000000  0.5532430000000 1.0
C      1  0.5404930000000  0.4422030000000  0.4480650000000 1.0
C      1  0.5503630000000  0.4611750000000  0.4381290000000 1.0
C      1  0.4416930000000  0.5322140000000  0.4324360000000 1.0
C      1  0.5520760000000  0.5404420000000  0.5619260000000 1.0
C      1  0.4364110000000  0.4418630000000  0.5276540000000 1.0
C      1  0.5650730000000  0.5587230000000  0.5356610000000 1.0
C      1  0.4422420000000  0.5523430000000  0.4603380000000 1.0
C      1  0.4510570000000  0.5628830000000  0.4616800000000 1.0
C      1  0.5586850000000  0.4581580000000  0.4490740000000 1.0
C      1  0.4599710000000  0.4479460000000  0.5625110000000 1.0
C      1  0.5605060000000  0.5703320000000  0.5309650000000 1.0
C      1  0.5557560000000  0.4384720000000  0.4648000000000 1.0
C      1  0.4425300000000  0.4337980000000  0.5368610000000 1.0
C      1  0.4403500000000  0.4550280000000  0.5508570000000 1.0
C      1  0.4374560000000  0.5368760000000  0.4441910000000 1.0
C      1  0.5613180000000  0.5426970000000  0.5516540000000 1.0
C      1  0.5396610000000  0.4509230000000  0.4371860000000 1.0
C      1  0.5416110000000  0.5509070000000  0.5613220000000 1.0
C      1  0.4577650000000  0.5521340000000  0.4416760000000 1.0
C      1  0.5767400000000  0.4842110000000  0.5084580000000 1.0
C      1  0.5080410000000  0.5778090000000  0.4836270000000 1.0
C      1  0.4838430000000  0.5068410000000  0.5763330000000 1.0
C      1  0.4214550000000  0.4825900000000  0.4922660000000 1.0
C      1  0.5776930000000  0.5169970000000  0.4923250000000 1.0
C      1  0.4239470000000  0.5150370000000  0.5066370000000 1.0
C      1  0.4951450000000  0.5777370000000  0.5182340000000 1.0
C      1  0.5058030000000  0.4218550000000  0.5176770000000 1.0
C      1  0.4925030000000  0.4229530000000  0.4834450000000 1.0
C      1  0.5157830000000  0.5081180000000  0.4218820000000 1.0
C      1  0.4826520000000  0.4930400000000  0.4215020000000 1.0
C      1  0.5166740000000  0.4937180000000  0.5768060000000 1.0
C      1  0.5068080000000  0.4838700000000  0.5764780000000 1.0
C      1  0.4851290000000  0.5768950000000  0.5084850000000 1.0
C      1  0.5773140000000  0.5071850000000  0.4822980000000 1.0
C      1  0.4925140000000  0.4833680000000  0.4215300000000 1.0
C      1  0.4937080000000  0.5167210000000  0.5767510000000 1.0
C      1  0.5063400000000  0.5184800000000  0.4216140000000 1.0
C      1  0.5185070000000  0.5783960000000  0.4926540000000 1.0
C      1  0.5150880000000  0.4234690000000  0.5074210000000 1.0
C      1  0.4823780000000  0.4216380000000  0.4930160000000 1.0
C      1  0.4226310000000  0.5054170000000  0.5167940000000 1.0
C      1  0.4225550000000  0.4926260000000  0.4828480000000 1.0
C      1  0.5778290000000  0.4942590000000  0.5180030000000 1.0
C      1  0.4272580000000  0.4687980000000  0.4954860000000 1.0
C      1  0.4961190000000  0.4304020000000  0.4703220000000 1.0
C      1  0.4699040000000  0.4964470000000  0.4287490000000 1.0
C      1  0.5690200000000  0.4713460000000  0.5050550000000 1.0
C      1  0.4316910000000  0.5282360000000  0.5027180000000 1.0
C      1  0.5715340000000  0.5307360000000  0.4959010000000 1.0
C      1  0.5012040000000  0.4282060000000  0.5310420000000 1.0
C      1  0.4994440000000  0.5712640000000  0.5313060000000 1.0
C      1  0.5038720000000  0.5714030000000  0.4703400000000 1.0
C      1  0.5301540000000  0.4975040000000  0.5705170000000 1.0
C      1  0.4706080000000  0.5031330000000  0.5693940000000 1.0
C      1  0.5293230000000  0.5039790000000  0.4283890000000 1.0
C      1  0.4967920000000  0.4707490000000  0.4288210000000 1.0
C      1  0.4682570000000  0.4269290000000  0.4966850000000 1.0
C      1  0.4299200000000  0.4957870000000  0.4699150000000 1.0
C      1  0.5032420000000  0.4704950000000  0.5697880000000 1.0
C      1  0.5024710000000  0.5318300000000  0.4285990000000 1.0
C      1  0.4975710000000  0.5301900000000  0.5704390000000 1.0
C      1  0.5280830000000  0.4312390000000  0.5037890000000 1.0
C      1  0.5319760000000  0.5718100000000  0.4958820000000 1.0
C      1  0.4723070000000  0.5692270000000  0.5042940000000 1.0
C      1  0.5712090000000  0.4989140000000  0.5308500000000 1.0
C      1  0.5703110000000  0.5029530000000  0.4689530000000 1.0
C      1  0.4292860000000  0.5007250000000  0.5300160000000 1.0
C      1  0.4291260000000  0.5287780000000  0.5257900000000 1.0
C      1  0.5247760000000  0.4344390000000  0.5382790000000 1.0
C      1  0.5310780000000  0.5270510000000  0.4264100000000 1.0
C      1  0.5730710000000  0.5313880000000  0.4725300000000 1.0
C      1  0.4314590000000  0.4598230000000  0.4703950000000 1.0
C      1  0.5632060000000  0.4648160000000  0.5290810000000 1.0
C      1  0.4702130000000  0.4332320000000  0.4619210000000 1.0
C      1  0.5271230000000  0.5736120000000  0.4676070000000 1.0
C      1  0.4754520000000  0.5653520000000  0.5389830000000 1.0
C      1  0.4627820000000  0.5286650000000  0.5635650000000 1.0
C      1  0.5385650000000  0.4719880000000  0.5664060000000 1.0
C      1  0.4623430000000  0.4724780000000  0.4356890000000 1.0
C      1  0.5264880000000  0.5374600000000  0.4337640000000 1.0
C      1  0.5290180000000  0.4284510000000  0.5269270000000 1.0
C      1  0.4350620000000  0.5244130000000  0.5371340000000 1.0
C      1  0.4720890000000  0.5384120000000  0.5658720000000 1.0
C      1  0.4729060000000  0.4623480000000  0.4359530000000 1.0
C      1  0.5288550000000  0.4626160000000  0.5642440000000 1.0
C      1  0.4603400000000  0.4315560000000  0.4712320000000 1.0
C      1  0.4655260000000  0.5628690000000  0.5281980000000 1.0
C      1  0.5375640000000  0.5661150000000  0.4719390000000 1.0
C      1  0.5655310000000  0.5268600000000  0.4622370000000 1.0
C      1  0.5654110000000  0.4750840000000  0.5394570000000 1.0
C      1  0.4330510000000  0.4697560000000  0.4611530000000 1.0
C      1  0.4876030000000  0.4766100000000  0.5479490000000 1.0
C      1  0.5484750000000  0.4907980000000  0.4792280000000 1.0
C      1  0.4809360000000  0.5483440000000  0.4885560000000 1.0
C      1  0.5110250000000  0.4803530000000  0.4501560000000 1.0
C      1  0.4905690000000  0.5208220000000  0.4498120000000 1.0
C      1  0.5125530000000  0.5232010000000  0.5489850000000 1.0
C      1  0.4495860000000  0.4875330000000  0.5188090000000 1.0
C      1  0.5505160000000  0.5124440000000  0.5201400000000 1.0
C      1  0.4521650000000  0.5100270000000  0.4775710000000 1.0
C      1  0.5220470000000  0.5505360000000  0.5097090000000 1.0
C      1  0.4763510000000  0.4485840000000  0.5095260000000 1.0
C      1  0.5202870000000  0.4523260000000  0.4891630000000 1.0
C      1  0.5480250000000  0.4806640000000  0.4902160000000 1.0
C      1  0.4772280000000  0.4875990000000  0.5476720000000 1.0
C      1  0.4909640000000  0.5486800000000  0.4772890000000 1.0
C      1  0.4496030000000  0.4765220000000  0.5085750000000 1.0
C      1  0.4526090000000  0.5204040000000  0.4884090000000 1.0
C      1  0.5502670000000  0.5232160000000  0.5097820000000 1.0
C      1  0.5220610000000  0.4905610000000  0.4504030000000 1.0
C      1  0.5234580000000  0.5127240000000  0.5490440000000 1.0
C      1  0.4803460000000  0.5099450000000  0.4498560000000 1.0
C      1  0.5117080000000  0.5503310000000  0.5205670000000 1.0
C      1  0.5101210000000  0.4522080000000  0.4781240000000 1.0
C      1  0.4872950000000  0.4484000000000  0.5198570000000 1.0
C      1  0.4341610000000  0.5360080000000  0.5155290000000 1.0
C      1  0.5108800000000  0.4330250000000  0.5414740000000 1.0
C      1  0.5378170000000  0.5162180000000  0.4310630000000 1.0
C      1  0.5687480000000  0.5385660000000  0.4831840000000 1.0
C      1  0.4289650000000  0.4586810000000  0.4847480000000 1.0
C      1  0.5632530000000  0.4620560000000  0.5155770000000 1.0
C      1  0.4848970000000  0.4324950000000  0.4610020000000 1.0
C      1  0.5160090000000  0.5688360000000  0.4614820000000 1.0
C      1  0.4892160000000  0.5670450000000  0.5413570000000 1.0
C      1  0.4614520000000  0.5142730000000  0.5662530000000 1.0
C      1  0.5395500000000  0.4864860000000  0.5683560000000 1.0
C      1  0.4602060000000  0.4861810000000  0.4339250000000 1.0
C      1  0.5128170000000  0.5416700000000  0.4336500000000 1.0
C      1  0.5359430000000  0.4337230000000  0.5165870000000 1.0
C      1  0.4336990000000  0.5104880000000  0.5404220000000 1.0
C      1  0.4865230000000  0.5395490000000  0.5682510000000 1.0
C      1  0.4866990000000  0.4605840000000  0.4342440000000 1.0
C      1  0.5144490000000  0.4613280000000  0.5668250000000 1.0
C      1  0.4586180000000  0.4290170000000  0.4856290000000 1.0
C      1  0.4628000000000  0.5631160000000  0.5146300000000 1.0
C      1  0.5416970000000  0.5663350000000  0.4854920000000 1.0
C      1  0.5654670000000  0.5130850000000  0.4586040000000 1.0
C      1  0.5668800000000  0.4888800000000  0.5412840000000 1.0
C      1  0.4322820000000  0.4844090000000  0.4605880000000 1.0
C      1  0.5547640000000  0.4953570000000  0.4464310000000 1.0
C      1  0.4444450000000  0.4917310000000  0.5521620000000 1.0
C      1  0.4951560000000  0.5539850000000  0.4446830000000 1.0
C      1  0.4921730000000  0.4439500000000  0.5531160000000 1.0
C      1  0.4493420000000  0.5534150000000  0.4965290000000 1.0
C      1  0.5530110000000  0.4490320000000  0.4978540000000 1.0
C      1  0.5564920000000  0.5078520000000  0.5533140000000 1.0
C      1  0.5542490000000  0.5561380000000  0.5031820000000 1.0
C      1  0.5081000000000  0.5565450000000  0.5535500000000 1.0
C      1  0.4482590000000  0.5052290000000  0.4445900000000 1.0
C      1  0.4440860000000  0.4447860000000  0.5160420000000 1.0
C      1  0.5059270000000  0.4482670000000  0.4445650000000 1.0
C      1  0.4452020000000  0.5479810000000  0.4471950000000 1.0
C      1  0.5531470000000  0.4456820000000  0.4532290000000 1.0
C      1  0.4446250000000  0.4413120000000  0.5484430000000 1.0
C      1  0.5576810000000  0.5555760000000  0.5470970000000 1.0
END
