TITL C-1379266-1300-36 4.30122415609106e-07 1000000 -3587.05888867563 0 0 500 (C1) n - 1
REM
REM in /nfs/bkarasulu/CARBON/AIRSS/Generating-Clusters/GAP-ML-2020/Higher-Symm/Selected-Sizes/TryA-Only_Ih-Symm/Larger-Clusters/Try2-MINAMP_6A
REM
REM
REM
REM
REM
REM ./C.cell (31579ac4e95a012ec27f3239692ae8a5)
REM
REM compiler GCC version 9.2.1 20190827 (Red Hat 9.2.1-1)
REM options -cpp -mtune=generic -march=x86-64 -g -O0 -fpre-include=/usr/include/finclude/math-vector-fortran.h
REM seed -1295173546 1553420692 1026447982 1628615770 -1897708904 -1857587868 1614192116 -32288520 -671011004 -1523163169 -1536253360 -379936377 -1247169154 -1027812805 -763491169 -540170034 -904556809 -301833565 -163965068 -544571557 -1945428717 1267259534 1958069985 1036933285 1539082924 63683505 -1436335844 901501791 -620722116 -1503793118 769974862 -1915564237 -1654228779
REM
CELL 1.54180  100.00000  100.00000  100.00000   90.00000   90.00000   90.00000
LATT -1
SFAC C  
C      1  0.4213280000000  0.5071510000000  0.4542030000000 1.0
C      1  0.4569610000000  0.4239180000000  0.5065670000000 1.0
C      1  0.5069070000000  0.4557260000000  0.4227400000000 1.0
C      1  0.5756620000000  0.4935210000000  0.4547930000000 1.0
C      1  0.5758420000000  0.5074800000000  0.5442320000000 1.0
C      1  0.4243190000000  0.4933730000000  0.5427950000000 1.0
C      1  0.5437440000000  0.5763610000000  0.5069220000000 1.0
C      1  0.5448950000000  0.4239240000000  0.4929250000000 1.0
C      1  0.4572030000000  0.5755050000000  0.4925350000000 1.0
C      1  0.4919800000000  0.5440900000000  0.4231200000000 1.0
C      1  0.4926920000000  0.4550410000000  0.5761730000000 1.0
C      1  0.5076310000000  0.5453490000000  0.5777540000000 1.0
C      1  0.4250380000000  0.5075980000000  0.5423980000000 1.0
C      1  0.4575960000000  0.4246430000000  0.4924070000000 1.0
C      1  0.5069270000000  0.4553070000000  0.5764030000000 1.0
C      1  0.5742830000000  0.4932950000000  0.5431250000000 1.0
C      1  0.5754670000000  0.5077500000000  0.4549470000000 1.0
C      1  0.4219030000000  0.4927670000000  0.4543600000000 1.0
C      1  0.5435840000000  0.5764510000000  0.4927140000000 1.0
C      1  0.5444100000000  0.4240570000000  0.5071000000000 1.0
C      1  0.4574600000000  0.5757400000000  0.5066910000000 1.0
C      1  0.4934400000000  0.5446740000000  0.5768210000000 1.0
C      1  0.4926850000000  0.4563000000000  0.4231730000000 1.0
C      1  0.5061890000000  0.5443910000000  0.4223220000000 1.0
C      1  0.4825010000000  0.4294120000000  0.5079530000000 1.0
C      1  0.5075520000000  0.4818640000000  0.4261190000000 1.0
C      1  0.4228080000000  0.5087080000000  0.4812940000000 1.0
C      1  0.5183400000000  0.5701150000000  0.5081760000000 1.0
C      1  0.5189900000000  0.4270930000000  0.4925090000000 1.0
C      1  0.4829820000000  0.5687130000000  0.4920850000000 1.0
C      1  0.4908400000000  0.5179130000000  0.4260300000000 1.0
C      1  0.4919510000000  0.4814750000000  0.5751130000000 1.0
C      1  0.5084150000000  0.5189850000000  0.5761320000000 1.0
C      1  0.5743850000000  0.4934230000000  0.4810330000000 1.0
C      1  0.5764140000000  0.5113160000000  0.5166750000000 1.0
C      1  0.4263020000000  0.4926570000000  0.5162970000000 1.0
C      1  0.4836070000000  0.4303100000000  0.4917440000000 1.0
C      1  0.5086160000000  0.4822950000000  0.5766930000000 1.0
C      1  0.4263360000000  0.5090750000000  0.5152930000000 1.0
C      1  0.5182320000000  0.5700210000000  0.4920670000000 1.0
C      1  0.5188430000000  0.4263430000000  0.5082210000000 1.0
C      1  0.4831470000000  0.5688570000000  0.5082670000000 1.0
C      1  0.4928840000000  0.5185370000000  0.5750440000000 1.0
C      1  0.4912500000000  0.4824420000000  0.4260500000000 1.0
C      1  0.5067200000000  0.5182890000000  0.4253270000000 1.0
C      1  0.5761030000000  0.4959250000000  0.5158090000000 1.0
C      1  0.5755380000000  0.5098310000000  0.4818010000000 1.0
C      1  0.4243180000000  0.4924060000000  0.4817140000000 1.0
C      1  0.4602850000000  0.4495780000000  0.5593200000000 1.0
C      1  0.5595080000000  0.4609730000000  0.4491510000000 1.0
C      1  0.4497770000000  0.5580750000000  0.4608970000000 1.0
C      1  0.5393260000000  0.5500620000000  0.5590470000000 1.0
C      1  0.5392690000000  0.4503510000000  0.4405540000000 1.0
C      1  0.4600200000000  0.5491850000000  0.4408280000000 1.0
C      1  0.4389920000000  0.5393200000000  0.4492010000000 1.0
C      1  0.4407500000000  0.4610690000000  0.5495630000000 1.0
C      1  0.5593090000000  0.5397700000000  0.5497230000000 1.0
C      1  0.5504770000000  0.4413820000000  0.4606340000000 1.0
C      1  0.5507950000000  0.5602290000000  0.5395740000000 1.0
C      1  0.4498660000000  0.4408470000000  0.5391270000000 1.0
C      1  0.4605590000000  0.4504950000000  0.4404340000000 1.0
C      1  0.5599670000000  0.4599250000000  0.5514110000000 1.0
C      1  0.4507130000000  0.5595460000000  0.5388100000000 1.0
C      1  0.5378710000000  0.5495570000000  0.4409340000000 1.0
C      1  0.5388650000000  0.4502050000000  0.5593300000000 1.0
C      1  0.4618430000000  0.5497060000000  0.5584500000000 1.0
C      1  0.4425520000000  0.5387550000000  0.5480070000000 1.0
C      1  0.4401430000000  0.4610810000000  0.4498520000000 1.0
C      1  0.5578030000000  0.5392730000000  0.4502760000000 1.0
C      1  0.5501890000000  0.4402940000000  0.5398510000000 1.0
C      1  0.5499620000000  0.5601390000000  0.4598900000000 1.0
C      1  0.4510580000000  0.4420440000000  0.4609530000000 1.0
C      1  0.4418380000000  0.4745090000000  0.4919730000000 1.0
C      1  0.4946670000000  0.4447200000000  0.4720970000000 1.0
C      1  0.4711850000000  0.4924630000000  0.4389200000000 1.0
C      1  0.5627760000000  0.5292310000000  0.4919110000000 1.0
C      1  0.5547690000000  0.4712300000000  0.5123380000000 1.0
C      1  0.4417910000000  0.5284700000000  0.5044540000000 1.0
C      1  0.5095730000000  0.5573370000000  0.4722810000000 1.0
C      1  0.5064150000000  0.4336580000000  0.5241330000000 1.0
C      1  0.4936030000000  0.5559490000000  0.5281560000000 1.0
C      1  0.5229900000000  0.5064770000000  0.4323140000000 1.0
C      1  0.5274790000000  0.4939560000000  0.5631160000000 1.0
C      1  0.4772850000000  0.5061180000000  0.5664250000000 1.0
C      1  0.4425860000000  0.4747210000000  0.5078020000000 1.0
C      1  0.4926230000000  0.4399590000000  0.5274740000000 1.0
C      1  0.4740590000000  0.4920270000000  0.5606100000000 1.0
C      1  0.5631100000000  0.5299370000000  0.5079740000000 1.0
C      1  0.5586250000000  0.4760450000000  0.4883520000000 1.0
C      1  0.4386130000000  0.5278210000000  0.4892920000000 1.0
C      1  0.5096810000000  0.5575960000000  0.5283000000000 1.0
C      1  0.5102110000000  0.4424770000000  0.4738850000000 1.0
C      1  0.4929660000000  0.5558220000000  0.4732010000000 1.0
C      1  0.5247560000000  0.5074830000000  0.5689650000000 1.0
C      1  0.5262940000000  0.4929230000000  0.4381760000000 1.0
C      1  0.4710230000000  0.5077400000000  0.4388490000000 1.0
C      1  0.4849180000000  0.5660530000000  0.4519990000000 1.0
C      1  0.4516740000000  0.4847210000000  0.5673370000000 1.0
C      1  0.5665060000000  0.4533330000000  0.4851520000000 1.0
C      1  0.5155630000000  0.4330610000000  0.4513810000000 1.0
C      1  0.5157820000000  0.5681810000000  0.5492610000000 1.0
C      1  0.4844520000000  0.4311150000000  0.5488770000000 1.0
C      1  0.5487630000000  0.5153850000000  0.5690250000000 1.0
C      1  0.5484510000000  0.4849350000000  0.4303030000000 1.0
C      1  0.4493510000000  0.5150500000000  0.4306180000000 1.0
C      1  0.4303510000000  0.5500940000000  0.4838400000000 1.0
C      1  0.4340720000000  0.4521940000000  0.5145470000000 1.0
C      1  0.5700470000000  0.5509050000000  0.5152230000000 1.0
C      1  0.4855860000000  0.5674560000000  0.5487750000000 1.0
C      1  0.4496940000000  0.4848490000000  0.4308790000000 1.0
C      1  0.5672040000000  0.4521370000000  0.5153850000000 1.0
C      1  0.5146460000000  0.4317820000000  0.5479600000000 1.0
C      1  0.5147030000000  0.5674300000000  0.4507430000000 1.0
C      1  0.4859380000000  0.4338080000000  0.4515010000000 1.0
C      1  0.5469480000000  0.5148270000000  0.4315180000000 1.0
C      1  0.5490770000000  0.4848180000000  0.5695260000000 1.0
C      1  0.4532180000000  0.5146260000000  0.5660580000000 1.0
C      1  0.4324400000000  0.5493530000000  0.5140790000000 1.0
C      1  0.4335500000000  0.4520900000000  0.4850290000000 1.0
C      1  0.5691890000000  0.5507250000000  0.4839900000000 1.0
C      1  0.4821970000000  0.4786100000000  0.5626390000000 1.0
C      1  0.5620870000000  0.4840680000000  0.4763760000000 1.0
C      1  0.4796470000000  0.5576750000000  0.4816910000000 1.0
C      1  0.5189500000000  0.5208790000000  0.5649030000000 1.0
C      1  0.5178320000000  0.4792360000000  0.4376880000000 1.0
C      1  0.4807030000000  0.5201030000000  0.4380750000000 1.0
C      1  0.4339320000000  0.5183910000000  0.4777010000000 1.0
C      1  0.4382210000000  0.4835770000000  0.5203900000000 1.0
C      1  0.5644500000000  0.5205730000000  0.5195540000000 1.0
C      1  0.5223880000000  0.4392650000000  0.4834760000000 1.0
C      1  0.5219250000000  0.5596100000000  0.5191450000000 1.0
C      1  0.4794090000000  0.4402100000000  0.5187740000000 1.0
C      1  0.4807810000000  0.4800490000000  0.4375700000000 1.0
C      1  0.5561170000000  0.4768510000000  0.5254960000000 1.0
C      1  0.4801920000000  0.5582520000000  0.5197210000000 1.0
C      1  0.5173680000000  0.5201310000000  0.4361560000000 1.0
C      1  0.5183960000000  0.4810820000000  0.5647980000000 1.0
C      1  0.4832450000000  0.5200290000000  0.5626190000000 1.0
C      1  0.4383640000000  0.5190460000000  0.5168710000000 1.0
C      1  0.4364860000000  0.4830810000000  0.4791010000000 1.0
C      1  0.5635890000000  0.5195730000000  0.4802630000000 1.0
C      1  0.5204420000000  0.4374000000000  0.5188710000000 1.0
C      1  0.5219050000000  0.5594760000000  0.4810180000000 1.0
C      1  0.4813340000000  0.4422290000000  0.4811030000000 1.0
C      1  0.4614740000000  0.4924260000000  0.4269700000000 1.0
C      1  0.4303740000000  0.4639760000000  0.4924860000000 1.0
C      1  0.4937140000000  0.4315220000000  0.4635670000000 1.0
C      1  0.5366490000000  0.5070790000000  0.4249570000000 1.0
C      1  0.5381550000000  0.4927330000000  0.5749400000000 1.0
C      1  0.4632450000000  0.5069170000000  0.5729520000000 1.0
C      1  0.5741230000000  0.5395310000000  0.4917210000000 1.0
C      1  0.5676310000000  0.4652080000000  0.5079830000000 1.0
C      1  0.4288370000000  0.5379280000000  0.5060650000000 1.0
C      1  0.5076490000000  0.5691590000000  0.4632270000000 1.0
C      1  0.5067640000000  0.4256530000000  0.5373970000000 1.0
C      1  0.4932470000000  0.5692130000000  0.5368130000000 1.0
C      1  0.4632310000000  0.4920260000000  0.5721290000000 1.0
C      1  0.4308870000000  0.4641480000000  0.5073730000000 1.0
C      1  0.4918530000000  0.4269770000000  0.5370880000000 1.0
C      1  0.5386700000000  0.5076890000000  0.5759690000000 1.0
C      1  0.5366410000000  0.4921940000000  0.4257950000000 1.0
C      1  0.4612950000000  0.5075760000000  0.4268020000000 1.0
C      1  0.5747530000000  0.5399160000000  0.5070570000000 1.0
C      1  0.5684680000000  0.4657420000000  0.4928670000000 1.0
C      1  0.4270650000000  0.5381520000000  0.4911200000000 1.0
C      1  0.5083030000000  0.5699860000000  0.5370810000000 1.0
C      1  0.5087010000000  0.4305490000000  0.4637750000000 1.0
C      1  0.4926080000000  0.5685860000000  0.4639010000000 1.0
C      1  0.5066610000000  0.4690490000000  0.4177360000000 1.0
C      1  0.4160640000000  0.5069180000000  0.4675030000000 1.0
C      1  0.4706080000000  0.4199770000000  0.5063440000000 1.0
C      1  0.4914520000000  0.5309340000000  0.4179940000000 1.0
C      1  0.4928400000000  0.4680140000000  0.5818890000000 1.0
C      1  0.5074390000000  0.5321830000000  0.5833030000000 1.0
C      1  0.5817610000000  0.4939750000000  0.4677030000000 1.0
C      1  0.5816250000000  0.5085940000000  0.5314630000000 1.0
C      1  0.4187230000000  0.4939330000000  0.5296360000000 1.0
C      1  0.5300160000000  0.5800500000000  0.5072520000000 1.0
C      1  0.5317040000000  0.4185000000000  0.4929200000000 1.0
C      1  0.4711210000000  0.5785650000000  0.4926260000000 1.0
C      1  0.5071380000000  0.4682310000000  0.5824200000000 1.0
C      1  0.4196870000000  0.5082430000000  0.5292270000000 1.0
C      1  0.4712850000000  0.4206540000000  0.4920140000000 1.0
C      1  0.4929730000000  0.5316720000000  0.5823490000000 1.0
C      1  0.4923100000000  0.4695340000000  0.4178260000000 1.0
C      1  0.5058300000000  0.5310040000000  0.4172480000000 1.0
C      1  0.5795060000000  0.4940330000000  0.5296610000000 1.0
C      1  0.5816070000000  0.5083260000000  0.4677580000000 1.0
C      1  0.4172860000000  0.4926430000000  0.4678890000000 1.0
C      1  0.5298340000000  0.5801000000000  0.4927690000000 1.0
C      1  0.5314410000000  0.4182470000000  0.5074010000000 1.0
C      1  0.4713350000000  0.5788920000000  0.5070660000000 1.0
C      1  0.4602310000000  0.4786000000000  0.5220870000000 1.0
C      1  0.5243510000000  0.4609110000000  0.4766450000000 1.0
C      1  0.4731680000000  0.5169850000000  0.4595520000000 1.0
C      1  0.5408240000000  0.5266850000000  0.5235580000000 1.0
C      1  0.5393010000000  0.4802090000000  0.4785050000000 1.0
C      1  0.4557880000000  0.5233900000000  0.4748620000000 1.0
C      1  0.4759840000000  0.5354900000000  0.4729690000000 1.0
C      1  0.4724840000000  0.4601390000000  0.5305160000000 1.0
C      1  0.5216640000000  0.5381460000000  0.5281250000000 1.0
C      1  0.5276000000000  0.4768680000000  0.4591480000000 1.0
C      1  0.5269680000000  0.5186240000000  0.5421180000000 1.0
C      1  0.4780550000000  0.4807830000000  0.5402110000000 1.0
C      1  0.4584050000000  0.4776170000000  0.4770320000000 1.0
C      1  0.5161210000000  0.4576210000000  0.5307380000000 1.0
C      1  0.4730530000000  0.5161270000000  0.5413320000000 1.0
C      1  0.5405080000000  0.5260660000000  0.4764620000000 1.0
C      1  0.5372820000000  0.4660730000000  0.5294970000000 1.0
C      1  0.4592800000000  0.5260390000000  0.5233620000000 1.0
C      1  0.4759810000000  0.5378980000000  0.5327780000000 1.0
C      1  0.4767670000000  0.4638460000000  0.4718790000000 1.0
C      1  0.5214170000000  0.5377940000000  0.4722230000000 1.0
C      1  0.5238940000000  0.4764740000000  0.5439370000000 1.0
C      1  0.5260640000000  0.5177470000000  0.4586880000000 1.0
C      1  0.4742000000000  0.4833490000000  0.4595750000000 1.0
C      1  0.5072670000000  0.4388510000000  0.5581290000000 1.0
C      1  0.5573720000000  0.5077340000000  0.4384730000000 1.0
C      1  0.4390020000000  0.5595910000000  0.5068310000000 1.0
C      1  0.4932790000000  0.5614370000000  0.5592990000000 1.0
C      1  0.4929770000000  0.4395130000000  0.4406890000000 1.0
C      1  0.5070010000000  0.5610910000000  0.4404000000000 1.0
C      1  0.4388160000000  0.4922180000000  0.4369010000000 1.0
C      1  0.4429990000000  0.5074160000000  0.5590580000000 1.0
C      1  0.5587050000000  0.4927320000000  0.5618480000000 1.0
C      1  0.5611870000000  0.4416450000000  0.5076530000000 1.0
C      1  0.5619910000000  0.5606190000000  0.4919400000000 1.0
C      1  0.4403350000000  0.4418790000000  0.4923130000000 1.0
C      1  0.5079210000000  0.4390210000000  0.4405170000000 1.0
C      1  0.5588800000000  0.5079760000000  0.5617620000000 1.0
C      1  0.4381690000000  0.5597210000000  0.4917520000000 1.0
C      1  0.4921300000000  0.5603310000000  0.4411270000000 1.0
C      1  0.4923450000000  0.4383400000000  0.5585690000000 1.0
C      1  0.5082390000000  0.5619360000000  0.5597490000000 1.0
C      1  0.4422500000000  0.4926400000000  0.5596710000000 1.0
C      1  0.4385560000000  0.5077150000000  0.4368980000000 1.0
C      1  0.5581190000000  0.4928710000000  0.4377370000000 1.0
C      1  0.5612680000000  0.4419560000000  0.4925730000000 1.0
C      1  0.5623150000000  0.5606790000000  0.5074060000000 1.0
C      1  0.4402870000000  0.4416660000000  0.5071230000000 1.0
C      1  0.4826800000000  0.4590930000000  0.5400890000000 1.0
C      1  0.5395870000000  0.4845580000000  0.4568670000000 1.0
C      1  0.4609250000000  0.5399790000000  0.4911650000000 1.0
C      1  0.5105360000000  0.5355840000000  0.5477340000000 1.0
C      1  0.5088420000000  0.4623490000000  0.4582730000000 1.0
C      1  0.4856350000000  0.5350450000000  0.4623070000000 1.0
C      1  0.4510090000000  0.5068710000000  0.4600100000000 1.0
C      1  0.4575300000000  0.4830490000000  0.5402770000000 1.0
C      1  0.5464860000000  0.5065360000000  0.5330530000000 1.0
C      1  0.5384780000000  0.4612950000000  0.4944540000000 1.0
C      1  0.5401240000000  0.5386370000000  0.5159030000000 1.0
C      1  0.4654850000000  0.4608520000000  0.5071690000000 1.0
C      1  0.4849410000000  0.4637630000000  0.4599530000000 1.0
C      1  0.5354970000000  0.4841140000000  0.5425920000000 1.0
C      1  0.4618240000000  0.5378690000000  0.5157430000000 1.0
C      1  0.5103360000000  0.5354600000000  0.4530920000000 1.0
C      1  0.5016220000000  0.4709010000000  0.5463860000000 1.0
C      1  0.4868040000000  0.5347600000000  0.5409550000000 1.0
C      1  0.4557510000000  0.5031140000000  0.5290950000000 1.0
C      1  0.4522870000000  0.4931050000000  0.4608130000000 1.0
C      1  0.5448060000000  0.5040310000000  0.4688420000000 1.0
C      1  0.5347530000000  0.4591290000000  0.5177660000000 1.0
C      1  0.5402490000000  0.5383600000000  0.4836940000000 1.0
C      1  0.4653210000000  0.4608500000000  0.4929860000000 1.0
C      1  0.4490510000000  0.4867170000000  0.4727370000000 1.0
C      1  0.4749970000000  0.4555570000000  0.4834190000000 1.0
C      1  0.4833580000000  0.4760580000000  0.4519060000000 1.0
C      1  0.5497040000000  0.5152120000000  0.4761750000000 1.0
C      1  0.5435850000000  0.4784030000000  0.5322210000000 1.0
C      1  0.4511920000000  0.5146130000000  0.5220430000000 1.0
C      1  0.5278530000000  0.5457300000000  0.4816930000000 1.0
C      1  0.5222370000000  0.4517240000000  0.5189510000000 1.0
C      1  0.4735900000000  0.5450240000000  0.5205280000000 1.0
C      1  0.5156540000000  0.5232590000000  0.4503420000000 1.0
C      1  0.5125150000000  0.4779150000000  0.5517720000000 1.0
C      1  0.4845820000000  0.5220640000000  0.5482710000000 1.0
C      1  0.4511090000000  0.4892710000000  0.5275060000000 1.0
C      1  0.4731350000000  0.4541210000000  0.5173610000000 1.0
C      1  0.4870750000000  0.4725300000000  0.5484850000000 1.0
C      1  0.5506900000000  0.5162550000000  0.5244240000000 1.0
C      1  0.5478230000000  0.4893640000000  0.4700700000000 1.0
C      1  0.4466240000000  0.5139880000000  0.4712440000000 1.0
C      1  0.5277130000000  0.5458840000000  0.5182280000000 1.0
C      1  0.5282480000000  0.4533070000000  0.4878270000000 1.0
C      1  0.4729420000000  0.5442480000000  0.4838450000000 1.0
C      1  0.5165500000000  0.5236720000000  0.5506630000000 1.0
C      1  0.5159030000000  0.4733690000000  0.4517390000000 1.0
C      1  0.4832830000000  0.5239020000000  0.4527740000000 1.0
C      1  0.5401950000000  0.5600330000000  0.5493340000000 1.0
C      1  0.5489850000000  0.5395810000000  0.5592220000000 1.0
C      1  0.5604680000000  0.5501300000000  0.5397950000000 1.0
C      1  0.4597880000000  0.4397960000000  0.5493740000000 1.0
C      1  0.4600630000000  0.5584830000000  0.4510770000000 1.0
C      1  0.5400060000000  0.4408450000000  0.4509010000000 1.0
C      1  0.4508510000000  0.4602810000000  0.5591610000000 1.0
C      1  0.4498450000000  0.5390490000000  0.4403250000000 1.0
C      1  0.5490730000000  0.4606450000000  0.4397980000000 1.0
C      1  0.4407570000000  0.4515210000000  0.5391810000000 1.0
C      1  0.4389460000000  0.5491620000000  0.4596540000000 1.0
C      1  0.5600230000000  0.4515040000000  0.4600170000000 1.0
C      1  0.5391220000000  0.5597610000000  0.4503780000000 1.0
C      1  0.5473950000000  0.5390500000000  0.4409570000000 1.0
C      1  0.5593800000000  0.5497820000000  0.4598260000000 1.0
C      1  0.4609140000000  0.4411350000000  0.4507150000000 1.0
C      1  0.4607780000000  0.5600470000000  0.5490820000000 1.0
C      1  0.5394280000000  0.4402050000000  0.5493830000000 1.0
C      1  0.4503400000000  0.4607110000000  0.4401940000000 1.0
C      1  0.4525240000000  0.5389840000000  0.5578280000000 1.0
C      1  0.5490440000000  0.4601720000000  0.5604380000000 1.0
C      1  0.4407430000000  0.4515950000000  0.4604920000000 1.0
C      1  0.4414230000000  0.5490780000000  0.5384090000000 1.0
C      1  0.5605490000000  0.4498510000000  0.5408650000000 1.0
C      1  0.4351820000000  0.4574450000000  0.5275250000000 1.0
C      1  0.5287240000000  0.4345590000000  0.4567280000000 1.0
C      1  0.4553170000000  0.5276750000000  0.4338540000000 1.0
C      1  0.5673950000000  0.5450630000000  0.5283040000000 1.0
C      1  0.5657500000000  0.4577930000000  0.4715200000000 1.0
C      1  0.4312480000000  0.5443920000000  0.4705520000000 1.0
C      1  0.4718540000000  0.5642230000000  0.4567530000000 1.0
C      1  0.4715320000000  0.4339030000000  0.5437580000000 1.0
C      1  0.5288990000000  0.5667050000000  0.5440440000000 1.0
C      1  0.5433520000000  0.4720080000000  0.4333130000000 1.0
C      1  0.5434430000000  0.5284100000000  0.5663200000000 1.0
C      1  0.4568370000000  0.4717200000000  0.5650130000000 1.0
C      1  0.4342260000000  0.4570940000000  0.4718550000000 1.0
C      1  0.5279810000000  0.4340080000000  0.5432740000000 1.0
C      1  0.4584520000000  0.5275610000000  0.5639500000000 1.0
C      1  0.5663690000000  0.5447530000000  0.4712210000000 1.0
C      1  0.5670740000000  0.4553280000000  0.5293400000000 1.0
C      1  0.4346410000000  0.5439670000000  0.5268730000000 1.0
C      1  0.4722850000000  0.5666510000000  0.5438980000000 1.0
C      1  0.4729220000000  0.4356390000000  0.4562750000000 1.0
C      1  0.5279450000000  0.5664680000000  0.4557710000000 1.0
C      1  0.5435220000000  0.4718980000000  0.5666320000000 1.0
C      1  0.5417540000000  0.5277360000000  0.4342090000000 1.0
C      1  0.4557190000000  0.4721980000000  0.4338650000000 1.0
C      1  0.5690810000000  0.5310120000000  0.5309680000000 1.0
C      1  0.5316190000000  0.5679230000000  0.5298760000000 1.0
C      1  0.5296640000000  0.5317220000000  0.5689120000000 1.0
C      1  0.4334380000000  0.4714390000000  0.5303350000000 1.0
C      1  0.4284830000000  0.5302690000000  0.4674790000000 1.0
C      1  0.5673330000000  0.4718630000000  0.4676690000000 1.0
C      1  0.4690090000000  0.4331720000000  0.5296210000000 1.0
C      1  0.4694040000000  0.5650260000000  0.4708060000000 1.0
C      1  0.5317400000000  0.4334680000000  0.4710350000000 1.0
C      1  0.4707300000000  0.4684980000000  0.5665310000000 1.0
C      1  0.4696460000000  0.5303400000000  0.4328640000000 1.0
C      1  0.5293250000000  0.4689880000000  0.4318310000000 1.0
C      1  0.5676750000000  0.5305840000000  0.4689590000000 1.0
C      1  0.5310580000000  0.5679940000000  0.4699110000000 1.0
C      1  0.5280340000000  0.5309500000000  0.4316110000000 1.0
C      1  0.4310100000000  0.4709020000000  0.4687930000000 1.0
C      1  0.4331400000000  0.5298930000000  0.5287730000000 1.0
C      1  0.5672590000000  0.4697900000000  0.5325690000000 1.0
C      1  0.4707900000000  0.4350480000000  0.4703710000000 1.0
C      1  0.4700180000000  0.5675590000000  0.5296430000000 1.0
C      1  0.5312060000000  0.4324710000000  0.5294680000000 1.0
C      1  0.4699590000000  0.4695830000000  0.4325870000000 1.0
C      1  0.4721630000000  0.5307440000000  0.5665420000000 1.0
C      1  0.5294800000000  0.4693300000000  0.5682710000000 1.0
C      1  0.4955920000000  0.5434480000000  0.4660870000000 1.0
C      1  0.4693140000000  0.4915490000000  0.5460140000000 1.0
C      1  0.5452830000000  0.4722530000000  0.4878790000000 1.0
C      1  0.5152490000000  0.4550670000000  0.4684570000000 1.0
C      1  0.5108500000000  0.5433860000000  0.5356280000000 1.0
C      1  0.4934930000000  0.4523790000000  0.5345190000000 1.0
C      1  0.5358000000000  0.5072820000000  0.5421620000000 1.0
C      1  0.5329370000000  0.4951360000000  0.4507270000000 1.0
C      1  0.4650020000000  0.5080080000000  0.4528330000000 1.0
C      1  0.4514350000000  0.5325340000000  0.4838650000000 1.0
C      1  0.4559750000000  0.4705400000000  0.5120530000000 1.0
C      1  0.5501140000000  0.5374790000000  0.5067200000000 1.0
C      1  0.4960770000000  0.5433510000000  0.5355980000000 1.0
C      1  0.4655870000000  0.4922920000000  0.4532400000000 1.0
C      1  0.5427460000000  0.4635920000000  0.5075700000000 1.0
C      1  0.5040490000000  0.4607150000000  0.5365870000000 1.0
C      1  0.5102060000000  0.5430790000000  0.4651970000000 1.0
C      1  0.4962810000000  0.4569130000000  0.4625470000000 1.0
C      1  0.5341960000000  0.5062200000000  0.4590930000000 1.0
C      1  0.5336010000000  0.4957850000000  0.5498870000000 1.0
C      1  0.4663970000000  0.5040360000000  0.5388530000000 1.0
C      1  0.4553440000000  0.5363530000000  0.5037570000000 1.0
C      1  0.4551340000000  0.4697570000000  0.4876120000000 1.0
C      1  0.5497770000000  0.5364590000000  0.4931050000000 1.0
C      1  0.4295310000000  0.5152900000000  0.4463620000000 1.0
C      1  0.4494280000000  0.4328210000000  0.5142940000000 1.0
C      1  0.5148530000000  0.4484780000000  0.4317440000000 1.0
C      1  0.5669790000000  0.4858060000000  0.4471950000000 1.0
C      1  0.5672890000000  0.5154990000000  0.5518600000000 1.0
C      1  0.4329620000000  0.4857200000000  0.5506170000000 1.0
C      1  0.5521370000000  0.5684410000000  0.5147930000000 1.0
C      1  0.5521690000000  0.4330920000000  0.4853050000000 1.0
C      1  0.4487330000000  0.5671900000000  0.4850160000000 1.0
C      1  0.4846550000000  0.5508690000000  0.4327910000000 1.0
C      1  0.4851170000000  0.4479610000000  0.5669600000000 1.0
C      1  0.5153540000000  0.5525900000000  0.5686120000000 1.0
C      1  0.4348310000000  0.5146690000000  0.5492520000000 1.0
C      1  0.4501830000000  0.4339060000000  0.4851680000000 1.0
C      1  0.5144070000000  0.4486920000000  0.5666330000000 1.0
C      1  0.5668020000000  0.4852950000000  0.5518860000000 1.0
C      1  0.5657800000000  0.5151530000000  0.4482890000000 1.0
C      1  0.4304340000000  0.4848050000000  0.4467740000000 1.0
C      1  0.5517460000000  0.5684510000000  0.4846590000000 1.0
C      1  0.5516160000000  0.4331340000000  0.5147660000000 1.0
C      1  0.4492390000000  0.5674960000000  0.5143080000000 1.0
C      1  0.4861760000000  0.5515970000000  0.5672370000000 1.0
C      1  0.4852240000000  0.4490980000000  0.4324010000000 1.0
C      1  0.5139160000000  0.5517740000000  0.4313740000000 1.0
C      1  0.4178630000000  0.5158320000000  0.5059840000000 1.0
C      1  0.5062550000000  0.4215050000000  0.5154160000000 1.0
C      1  0.5145230000000  0.5062390000000  0.4199860000000 1.0
C      1  0.5788800000000  0.4869080000000  0.5062000000000 1.0
C      1  0.5840650000000  0.5165400000000  0.4916980000000 1.0
C      1  0.4178950000000  0.4851010000000  0.4922540000000 1.0
C      1  0.4934950000000  0.5772570000000  0.5138510000000 1.0
C      1  0.4939460000000  0.4220220000000  0.4859910000000 1.0
C      1  0.5073630000000  0.5775790000000  0.4862080000000 1.0
C      1  0.4852610000000  0.4930590000000  0.4183130000000 1.0
C      1  0.4848570000000  0.5060390000000  0.5792140000000 1.0
C      1  0.5145110000000  0.4926220000000  0.5847360000000 1.0
C      1  0.4160510000000  0.5160240000000  0.4918290000000 1.0
C      1  0.5079280000000  0.4203730000000  0.4859100000000 1.0
C      1  0.5164330000000  0.5070410000000  0.5813510000000 1.0
C      1  0.5806010000000  0.4864490000000  0.4920320000000 1.0
C      1  0.5844530000000  0.5173830000000  0.5061920000000 1.0
C      1  0.4190760000000  0.4852120000000  0.5064420000000 1.0
C      1  0.4933120000000  0.5772350000000  0.4863760000000 1.0
C      1  0.4918270000000  0.4194350000000  0.5133220000000 1.0
C      1  0.5075280000000  0.5778290000000  0.5139910000000 1.0
C      1  0.4858270000000  0.4917730000000  0.5827970000000 1.0
C      1  0.4849070000000  0.5072560000000  0.4182380000000 1.0
C      1  0.5130540000000  0.4919020000000  0.4171430000000 1.0
C      1  0.4702720000000  0.5092700000000  0.4143920000000 1.0
C      1  0.4177070000000  0.4708630000000  0.5101300000000 1.0
C      1  0.5101190000000  0.4174980000000  0.4713030000000 1.0
C      1  0.5274920000000  0.4910370000000  0.4133610000000 1.0
C      1  0.5306960000000  0.5087570000000  0.5889950000000 1.0
C      1  0.4712740000000  0.4912930000000  0.5853860000000 1.0
C      1  0.5878650000000  0.5320320000000  0.5078770000000 1.0
C      1  0.5823350000000  0.4717700000000  0.4909550000000 1.0
C      1  0.4139890000000  0.5307370000000  0.4895580000000 1.0
C      1  0.4901870000000  0.5808750000000  0.4721360000000 1.0
C      1  0.4901550000000  0.4150730000000  0.5275420000000 1.0
C      1  0.5102750000000  0.5819990000000  0.5282470000000 1.0
C      1  0.4701990000000  0.5079740000000  0.5865350000000 1.0
C      1  0.4170380000000  0.4705460000000  0.4894910000000 1.0
C      1  0.5078240000000  0.4128980000000  0.5287830000000 1.0
C      1  0.5292760000000  0.4916290000000  0.5876360000000 1.0
C      1  0.5284180000000  0.5081470000000  0.4120240000000 1.0
C      1  0.4706440000000  0.4904240000000  0.4146360000000 1.0
C      1  0.5869990000000  0.5314300000000  0.4891750000000 1.0
C      1  0.5804970000000  0.4726070000000  0.5108220000000 1.0
C      1  0.4166130000000  0.5301380000000  0.5101180000000 1.0
C      1  0.4900880000000  0.5808900000000  0.5279360000000 1.0
C      1  0.4901170000000  0.4193240000000  0.4716130000000 1.0
C      1  0.5102410000000  0.5812610000000  0.4718150000000 1.0
C      1  0.4549740000000  0.5640430000000  0.4726970000000 1.0
C      1  0.4724010000000  0.4542640000000  0.5650950000000 1.0
C      1  0.5656540000000  0.4730240000000  0.4534090000000 1.0
C      1  0.5459440000000  0.4350640000000  0.4725560000000 1.0
C      1  0.5460140000000  0.5665770000000  0.5277640000000 1.0
C      1  0.4549170000000  0.4347350000000  0.5273120000000 1.0
C      1  0.5277530000000  0.5459110000000  0.5662670000000 1.0
C      1  0.5274870000000  0.4547620000000  0.4338790000000 1.0
C      1  0.4719040000000  0.5444960000000  0.4346840000000 1.0
C      1  0.4311220000000  0.5281450000000  0.4531000000000 1.0
C      1  0.4345930000000  0.4729230000000  0.5446180000000 1.0
C      1  0.5662080000000  0.5283150000000  0.5452300000000 1.0
C      1  0.4556080000000  0.5658460000000  0.5270980000000 1.0
C      1  0.4724170000000  0.4553880000000  0.4343300000000 1.0
C      1  0.5661620000000  0.4718660000000  0.5469720000000 1.0
C      1  0.5453770000000  0.4347690000000  0.5275720000000 1.0
C      1  0.5454560000000  0.5666330000000  0.4717330000000 1.0
C      1  0.4564610000000  0.4362980000000  0.4726990000000 1.0
C      1  0.5262350000000  0.5451870000000  0.4339390000000 1.0
C      1  0.5270160000000  0.4553160000000  0.5653480000000 1.0
C      1  0.4738470000000  0.5449620000000  0.5645970000000 1.0
C      1  0.4362840000000  0.5272130000000  0.5428150000000 1.0
C      1  0.4328370000000  0.4725080000000  0.4541400000000 1.0
C      1  0.5645380000000  0.5277980000000  0.4549410000000 1.0
C      1  0.4992260000000  0.4106630000000  0.4664980000000 1.0
C      1  0.4105850000000  0.4647690000000  0.5000430000000 1.0
C      1  0.5000710000000  0.5892310000000  0.4677520000000 1.0
C      1  0.4672270000000  0.4991440000000  0.5962310000000 1.0
C      1  0.5968760000000  0.5350930000000  0.4981030000000 1.0
C      1  0.5893080000000  0.4665320000000  0.5017380000000 1.0
C      1  0.4084100000000  0.5360320000000  0.5008920000000 1.0
C      1  0.4980370000000  0.4038660000000  0.5300600000000 1.0
C      1  0.4996370000000  0.5896310000000  0.5320230000000 1.0
C      1  0.5304530000000  0.4990150000000  0.4023780000000 1.0
C      1  0.4679290000000  0.4996530000000  0.4048850000000 1.0
C      1  0.5328700000000  0.4995120000000  0.5984530000000 1.0
C      1  0.4678770000000  0.5265300000000  0.5338170000000 1.0
C      1  0.5289000000000  0.4732790000000  0.4724740000000 1.0
C      1  0.5257140000000  0.4649470000000  0.5370350000000 1.0
C      1  0.5288730000000  0.5263890000000  0.4689520000000 1.0
C      1  0.4675510000000  0.4733830000000  0.5331080000000 1.0
C      1  0.4685710000000  0.5240350000000  0.4706420000000 1.0
C      1  0.4702660000000  0.4759360000000  0.4707980000000 1.0
C      1  0.5293690000000  0.5269850000000  0.5315100000000 1.0
END
