TITL C-1379267-1329-272 -1.55571648282397e-06 1000000 -2221.64392357694 0 0 320 (Th) n - 1
REM
REM in /nfs/bkarasulu/CARBON/AIRSS/Generating-Clusters/GAP-ML-2020/Higher-Symm/Selected-Sizes/TryA-Only_Ih-Symm/Larger-Clusters/Try2-MINAMP_6A
REM
REM
REM
REM
REM
REM ./C.cell (31579ac4e95a012ec27f3239692ae8a5)
REM
REM compiler GCC version 9.2.1 20190827 (Red Hat 9.2.1-1)
REM options -cpp -mtune=generic -march=x86-64 -g -O0 -fpre-include=/usr/include/finclude/math-vector-fortran.h
REM seed 1627542015 1884065290 1168151786 1637485414 -629787092 -1178542416 1923140212 -360515408 776058185 -1202083507 -1313790848 -1680154376 -607594534 2110528066 1116580522 1086997214 1565067337 2147244360 -1256955770 1854684258 -1605442957 -1138517309 -142017869 1934752434 991809712 -195057321 871134565 1542894896 -981273636 -443006718 752336034 1281939 -575454332
REM
CELL 1.54180  100.00000  100.00000  100.00000   90.00000   90.00000   90.00000
LATT -1
SFAC C  
C      1  0.4643430000000  0.5209420000000  0.4359350000000 1.0
C      1  0.5209550000000  0.4359230000000  0.4643420000000 1.0
C      1  0.4359360000000  0.4643300000000  0.5209540000000 1.0
C      1  0.5356810000000  0.4790550000000  0.4359350000000 1.0
C      1  0.4643430000000  0.4790550000000  0.5640870000000 1.0
C      1  0.5356810000000  0.5209420000000  0.5640870000000 1.0
C      1  0.4790690000000  0.5640750000000  0.4643420000000 1.0
C      1  0.5209550000000  0.5640750000000  0.5356800000000 1.0
C      1  0.4790690000000  0.4359230000000  0.5356800000000 1.0
C      1  0.5640880000000  0.5356670000000  0.5209540000000 1.0
C      1  0.4359360000000  0.5356670000000  0.4790680000000 1.0
C      1  0.5640880000000  0.4643300000000  0.4790680000000 1.0
C      1  0.4643430000000  0.5209420000000  0.5640870000000 1.0
C      1  0.5209550000000  0.4359230000000  0.5356800000000 1.0
C      1  0.4359360000000  0.4643300000000  0.4790680000000 1.0
C      1  0.5356810000000  0.4790550000000  0.5640870000000 1.0
C      1  0.4643430000000  0.4790550000000  0.4359350000000 1.0
C      1  0.5356810000000  0.5209420000000  0.4359350000000 1.0
C      1  0.4790690000000  0.5640750000000  0.5356800000000 1.0
C      1  0.5209550000000  0.5640750000000  0.4643420000000 1.0
C      1  0.4790690000000  0.4359230000000  0.4643420000000 1.0
C      1  0.5640880000000  0.5356670000000  0.4790680000000 1.0
C      1  0.4359360000000  0.5356670000000  0.5209540000000 1.0
C      1  0.5640880000000  0.4643300000000  0.5209540000000 1.0
C      1  0.4555140000000  0.4448630000000  0.4646950000000 1.0
C      1  0.4448760000000  0.4646830000000  0.4555120000000 1.0
C      1  0.4646970000000  0.4555000000000  0.4448750000000 1.0
C      1  0.5445100000000  0.5551340000000  0.4646950000000 1.0
C      1  0.4555140000000  0.5551340000000  0.5353260000000 1.0
C      1  0.5445100000000  0.4448630000000  0.5353260000000 1.0
C      1  0.5551480000000  0.5353140000000  0.4555120000000 1.0
C      1  0.4448760000000  0.5353140000000  0.5445090000000 1.0
C      1  0.5551480000000  0.4646830000000  0.5445090000000 1.0
C      1  0.5353280000000  0.5444970000000  0.4448750000000 1.0
C      1  0.4646970000000  0.5444970000000  0.5551460000000 1.0
C      1  0.5353280000000  0.4555000000000  0.5551460000000 1.0
C      1  0.4555140000000  0.4448630000000  0.5353260000000 1.0
C      1  0.4448760000000  0.4646830000000  0.5445090000000 1.0
C      1  0.4646970000000  0.4555000000000  0.5551460000000 1.0
C      1  0.5445100000000  0.5551340000000  0.5353260000000 1.0
C      1  0.4555140000000  0.5551340000000  0.4646950000000 1.0
C      1  0.5445100000000  0.4448630000000  0.4646950000000 1.0
C      1  0.5551480000000  0.5353140000000  0.5445090000000 1.0
C      1  0.4448760000000  0.5353140000000  0.4555120000000 1.0
C      1  0.5551480000000  0.4646830000000  0.4555120000000 1.0
C      1  0.5353280000000  0.5444970000000  0.5551460000000 1.0
C      1  0.4646970000000  0.5444970000000  0.4448750000000 1.0
C      1  0.5353280000000  0.4555000000000  0.4448750000000 1.0
C      1  0.5187660000000  0.5076440000000  0.4467600000000 1.0
C      1  0.5076580000000  0.4467480000000  0.5187640000000 1.0
C      1  0.4467620000000  0.5187520000000  0.5076560000000 1.0
C      1  0.4812590000000  0.4923530000000  0.4467600000000 1.0
C      1  0.5187660000000  0.4923530000000  0.5532610000000 1.0
C      1  0.4812590000000  0.5076440000000  0.5532610000000 1.0
C      1  0.4923660000000  0.5532490000000  0.5187640000000 1.0
C      1  0.5076580000000  0.5532490000000  0.4812570000000 1.0
C      1  0.4923660000000  0.4467480000000  0.4812570000000 1.0
C      1  0.5532630000000  0.4812450000000  0.5076560000000 1.0
C      1  0.4467620000000  0.4812450000000  0.4923650000000 1.0
C      1  0.5532630000000  0.5187520000000  0.4923650000000 1.0
C      1  0.5187660000000  0.5076440000000  0.5532610000000 1.0
C      1  0.5076580000000  0.4467480000000  0.4812570000000 1.0
C      1  0.4467620000000  0.5187520000000  0.4923650000000 1.0
C      1  0.4812590000000  0.4923530000000  0.5532610000000 1.0
C      1  0.5187660000000  0.4923530000000  0.4467600000000 1.0
C      1  0.4812590000000  0.5076440000000  0.4467600000000 1.0
C      1  0.4923660000000  0.5532490000000  0.4812570000000 1.0
C      1  0.5076580000000  0.5532490000000  0.5187640000000 1.0
C      1  0.4923660000000  0.4467480000000  0.5187640000000 1.0
C      1  0.5532630000000  0.4812450000000  0.4923650000000 1.0
C      1  0.4467620000000  0.4812450000000  0.5076560000000 1.0
C      1  0.5532630000000  0.5187520000000  0.5076560000000 1.0
C      1  0.5211930000000  0.4523430000000  0.4456040000000 1.0
C      1  0.4523570000000  0.4455920000000  0.5211920000000 1.0
C      1  0.4456060000000  0.5211790000000  0.4523560000000 1.0
C      1  0.4788310000000  0.5476540000000  0.4456040000000 1.0
C      1  0.5211930000000  0.5476540000000  0.5544170000000 1.0
C      1  0.4788310000000  0.4523430000000  0.5544170000000 1.0
C      1  0.5476670000000  0.5544050000000  0.5211920000000 1.0
C      1  0.4523570000000  0.5544050000000  0.4788300000000 1.0
C      1  0.5476670000000  0.4455920000000  0.4788300000000 1.0
C      1  0.5544180000000  0.4788180000000  0.4523560000000 1.0
C      1  0.4456060000000  0.4788180000000  0.5476660000000 1.0
C      1  0.5544180000000  0.5211790000000  0.5476660000000 1.0
C      1  0.5211930000000  0.4523430000000  0.5544170000000 1.0
C      1  0.4523570000000  0.4455920000000  0.4788300000000 1.0
C      1  0.4456060000000  0.5211790000000  0.5476660000000 1.0
C      1  0.4788310000000  0.5476540000000  0.5544170000000 1.0
C      1  0.5211930000000  0.5476540000000  0.4456040000000 1.0
C      1  0.4788310000000  0.4523430000000  0.4456040000000 1.0
C      1  0.5476670000000  0.5544050000000  0.4788300000000 1.0
C      1  0.4523570000000  0.5544050000000  0.5211920000000 1.0
C      1  0.5476670000000  0.4455920000000  0.5211920000000 1.0
C      1  0.5544180000000  0.4788180000000  0.5476660000000 1.0
C      1  0.4456060000000  0.4788180000000  0.4523560000000 1.0
C      1  0.5544180000000  0.5211790000000  0.4523560000000 1.0
C      1  0.5528870000000  0.4568960000000  0.4847640000000 1.0
C      1  0.4569090000000  0.4847520000000  0.5528850000000 1.0
C      1  0.4847660000000  0.5528730000000  0.4569080000000 1.0
C      1  0.4471380000000  0.5431010000000  0.4847640000000 1.0
C      1  0.5528870000000  0.5431010000000  0.5152570000000 1.0
C      1  0.4471380000000  0.4568960000000  0.5152570000000 1.0
C      1  0.5431150000000  0.5152450000000  0.5528850000000 1.0
C      1  0.4569090000000  0.5152450000000  0.4471360000000 1.0
C      1  0.5431150000000  0.4847520000000  0.4471360000000 1.0
C      1  0.5152580000000  0.4471240000000  0.4569080000000 1.0
C      1  0.4847660000000  0.4471240000000  0.5431130000000 1.0
C      1  0.5152580000000  0.5528730000000  0.5431130000000 1.0
C      1  0.5528870000000  0.4568960000000  0.5152570000000 1.0
C      1  0.4569090000000  0.4847520000000  0.4471360000000 1.0
C      1  0.4847660000000  0.5528730000000  0.5431130000000 1.0
C      1  0.4471380000000  0.5431010000000  0.5152570000000 1.0
C      1  0.5528870000000  0.5431010000000  0.4847640000000 1.0
C      1  0.4471380000000  0.4568960000000  0.4847640000000 1.0
C      1  0.5431150000000  0.5152450000000  0.4471360000000 1.0
C      1  0.4569090000000  0.5152450000000  0.5528850000000 1.0
C      1  0.5431150000000  0.4847520000000  0.5528850000000 1.0
C      1  0.5152580000000  0.4471240000000  0.5431130000000 1.0
C      1  0.4847660000000  0.4471240000000  0.4569080000000 1.0
C      1  0.5152580000000  0.5528730000000  0.4569080000000 1.0
C      1  0.4328010000000  0.5251810000000  0.5124640000000 1.0
C      1  0.5251950000000  0.5124520000000  0.4327990000000 1.0
C      1  0.5124650000000  0.4327870000000  0.5251930000000 1.0
C      1  0.5672230000000  0.4748160000000  0.5124640000000 1.0
C      1  0.4328010000000  0.4748160000000  0.4875580000000 1.0
C      1  0.5672230000000  0.5251810000000  0.4875580000000 1.0
C      1  0.4748300000000  0.4875460000000  0.4327990000000 1.0
C      1  0.5251950000000  0.4875460000000  0.5672220000000 1.0
C      1  0.4748300000000  0.5124520000000  0.5672220000000 1.0
C      1  0.4875590000000  0.5672100000000  0.5251930000000 1.0
C      1  0.5124650000000  0.5672100000000  0.4748280000000 1.0
C      1  0.4875590000000  0.4327870000000  0.4748280000000 1.0
C      1  0.4328010000000  0.5251810000000  0.4875580000000 1.0
C      1  0.5251950000000  0.5124520000000  0.5672220000000 1.0
C      1  0.5124650000000  0.4327870000000  0.4748280000000 1.0
C      1  0.5672230000000  0.4748160000000  0.4875580000000 1.0
C      1  0.4328010000000  0.4748160000000  0.5124640000000 1.0
C      1  0.5672230000000  0.5251810000000  0.5124640000000 1.0
C      1  0.4748300000000  0.4875460000000  0.5672220000000 1.0
C      1  0.5251950000000  0.4875460000000  0.4327990000000 1.0
C      1  0.4748300000000  0.5124520000000  0.4327990000000 1.0
C      1  0.4875590000000  0.5672100000000  0.4748280000000 1.0
C      1  0.5124650000000  0.5672100000000  0.5251930000000 1.0
C      1  0.4875590000000  0.4327870000000  0.5251930000000 1.0
C      1  0.5821650000000  0.4927140000000  0.5073810000000 1.0
C      1  0.4927280000000  0.5073690000000  0.5821630000000 1.0
C      1  0.5073820000000  0.5821510000000  0.4927260000000 1.0
C      1  0.4178590000000  0.5072830000000  0.5073810000000 1.0
C      1  0.5821650000000  0.5072830000000  0.4926400000000 1.0
C      1  0.4178590000000  0.4927140000000  0.4926400000000 1.0
C      1  0.5072960000000  0.4926280000000  0.5821630000000 1.0
C      1  0.4927280000000  0.4926280000000  0.4178580000000 1.0
C      1  0.5072960000000  0.5073690000000  0.4178580000000 1.0
C      1  0.4926420000000  0.4178460000000  0.4927260000000 1.0
C      1  0.5073820000000  0.4178460000000  0.5072950000000 1.0
C      1  0.4926420000000  0.5821510000000  0.5072950000000 1.0
C      1  0.5821650000000  0.4927140000000  0.4926400000000 1.0
C      1  0.4927280000000  0.5073690000000  0.4178580000000 1.0
C      1  0.5073820000000  0.5821510000000  0.5072950000000 1.0
C      1  0.4178590000000  0.5072830000000  0.4926400000000 1.0
C      1  0.5821650000000  0.5072830000000  0.5073810000000 1.0
C      1  0.4178590000000  0.4927140000000  0.5073810000000 1.0
C      1  0.5072960000000  0.4926280000000  0.4178580000000 1.0
C      1  0.4927280000000  0.4926280000000  0.5821630000000 1.0
C      1  0.5072960000000  0.5073690000000  0.5821630000000 1.0
C      1  0.4926420000000  0.4178460000000  0.5072950000000 1.0
C      1  0.5073820000000  0.4178460000000  0.4927260000000 1.0
C      1  0.4926420000000  0.5821510000000  0.4927260000000 1.0
C      1  0.5460590000000  0.5333460000000  0.5069980000000 1.0
C      1  0.5333590000000  0.5069860000000  0.5460570000000 1.0
C      1  0.5069990000000  0.5460450000000  0.5333580000000 1.0
C      1  0.4539660000000  0.4666520000000  0.5069980000000 1.0
C      1  0.5460590000000  0.4666520000000  0.4930240000000 1.0
C      1  0.4539660000000  0.5333460000000  0.4930240000000 1.0
C      1  0.4666650000000  0.4930110000000  0.5460570000000 1.0
C      1  0.5333590000000  0.4930110000000  0.4539640000000 1.0
C      1  0.4666650000000  0.5069860000000  0.4539640000000 1.0
C      1  0.4930250000000  0.4539520000000  0.5333580000000 1.0
C      1  0.5069990000000  0.4539520000000  0.4666640000000 1.0
C      1  0.4930250000000  0.5460450000000  0.4666640000000 1.0
C      1  0.5460590000000  0.5333460000000  0.4930240000000 1.0
C      1  0.5333590000000  0.5069860000000  0.4539640000000 1.0
C      1  0.5069990000000  0.5460450000000  0.4666640000000 1.0
C      1  0.4539660000000  0.4666520000000  0.4930240000000 1.0
C      1  0.5460590000000  0.4666520000000  0.5069980000000 1.0
C      1  0.4539660000000  0.5333460000000  0.5069980000000 1.0
C      1  0.4666650000000  0.4930110000000  0.4539640000000 1.0
C      1  0.5333590000000  0.4930110000000  0.5460570000000 1.0
C      1  0.4666650000000  0.5069860000000  0.5460570000000 1.0
C      1  0.4930250000000  0.4539520000000  0.4666640000000 1.0
C      1  0.5069990000000  0.4539520000000  0.5333580000000 1.0
C      1  0.4930250000000  0.5460450000000  0.5333580000000 1.0
C      1  0.4680170000000  0.4656310000000  0.5647860000000 1.0
C      1  0.4656440000000  0.5647740000000  0.4680160000000 1.0
C      1  0.5647870000000  0.4680040000000  0.4656430000000 1.0
C      1  0.5320070000000  0.5343660000000  0.5647860000000 1.0
C      1  0.4680170000000  0.5343660000000  0.4352350000000 1.0
C      1  0.5320070000000  0.4656310000000  0.4352350000000 1.0
C      1  0.5343800000000  0.4352230000000  0.4680160000000 1.0
C      1  0.4656440000000  0.4352230000000  0.5320050000000 1.0
C      1  0.5343800000000  0.5647740000000  0.5320050000000 1.0
C      1  0.4352370000000  0.5319930000000  0.4656430000000 1.0
C      1  0.5647870000000  0.5319930000000  0.5343790000000 1.0
C      1  0.4352370000000  0.4680040000000  0.5343790000000 1.0
C      1  0.4680170000000  0.4656310000000  0.4352350000000 1.0
C      1  0.4656440000000  0.5647740000000  0.5320050000000 1.0
C      1  0.5647870000000  0.4680040000000  0.5343790000000 1.0
C      1  0.5320070000000  0.5343660000000  0.4352350000000 1.0
C      1  0.4680170000000  0.5343660000000  0.5647860000000 1.0
C      1  0.5320070000000  0.4656310000000  0.5647860000000 1.0
C      1  0.5343800000000  0.4352230000000  0.5320050000000 1.0
C      1  0.4656440000000  0.4352230000000  0.4680160000000 1.0
C      1  0.5343800000000  0.5647740000000  0.4680160000000 1.0
C      1  0.4352370000000  0.5319930000000  0.5343790000000 1.0
C      1  0.5647870000000  0.5319930000000  0.4656430000000 1.0
C      1  0.4352370000000  0.4680040000000  0.4656430000000 1.0
C      1  0.4252210000000  0.4857560000000  0.4833720000000 1.0
C      1  0.4857700000000  0.4833600000000  0.4252190000000 1.0
C      1  0.4833730000000  0.4252070000000  0.4857680000000 1.0
C      1  0.5748030000000  0.5142410000000  0.4833720000000 1.0
C      1  0.4252210000000  0.5142410000000  0.5166500000000 1.0
C      1  0.5748030000000  0.4857560000000  0.5166500000000 1.0
C      1  0.5142540000000  0.5166370000000  0.4252190000000 1.0
C      1  0.4857700000000  0.5166370000000  0.5748020000000 1.0
C      1  0.5142540000000  0.4833600000000  0.5748020000000 1.0
C      1  0.5166510000000  0.5747900000000  0.4857680000000 1.0
C      1  0.4833730000000  0.5747900000000  0.5142530000000 1.0
C      1  0.5166510000000  0.4252070000000  0.5142530000000 1.0
C      1  0.4252210000000  0.4857560000000  0.5166500000000 1.0
C      1  0.4857700000000  0.4833600000000  0.5748020000000 1.0
C      1  0.4833730000000  0.4252070000000  0.5142530000000 1.0
C      1  0.5748030000000  0.5142410000000  0.5166500000000 1.0
C      1  0.4252210000000  0.5142410000000  0.4833720000000 1.0
C      1  0.5748030000000  0.4857560000000  0.4833720000000 1.0
C      1  0.5142540000000  0.5166370000000  0.5748020000000 1.0
C      1  0.4857700000000  0.5166370000000  0.4252190000000 1.0
C      1  0.5142540000000  0.4833600000000  0.4252190000000 1.0
C      1  0.5166510000000  0.5747900000000  0.5142530000000 1.0
C      1  0.4833730000000  0.5747900000000  0.4857680000000 1.0
C      1  0.5166510000000  0.4252070000000  0.4857680000000 1.0
C      1  0.5642200000000  0.4825910000000  0.5377000000000 1.0
C      1  0.4826040000000  0.5376880000000  0.5642180000000 1.0
C      1  0.5377020000000  0.5642060000000  0.4826030000000 1.0
C      1  0.4358040000000  0.5174070000000  0.5377000000000 1.0
C      1  0.5642200000000  0.5174070000000  0.4623210000000 1.0
C      1  0.4358040000000  0.4825910000000  0.4623210000000 1.0
C      1  0.5174200000000  0.4623090000000  0.5642180000000 1.0
C      1  0.4826040000000  0.4623090000000  0.4358030000000 1.0
C      1  0.5174200000000  0.5376880000000  0.4358030000000 1.0
C      1  0.4623220000000  0.4357910000000  0.4826030000000 1.0
C      1  0.5377020000000  0.4357910000000  0.5174190000000 1.0
C      1  0.4623220000000  0.5642060000000  0.5174190000000 1.0
C      1  0.5642200000000  0.4825910000000  0.4623210000000 1.0
C      1  0.4826040000000  0.5376880000000  0.4358030000000 1.0
C      1  0.5377020000000  0.5642060000000  0.5174190000000 1.0
C      1  0.4358040000000  0.5174070000000  0.4623210000000 1.0
C      1  0.5642200000000  0.5174070000000  0.5377000000000 1.0
C      1  0.4358040000000  0.4825910000000  0.5377000000000 1.0
C      1  0.5174200000000  0.4623090000000  0.4358030000000 1.0
C      1  0.4826040000000  0.4623090000000  0.5642180000000 1.0
C      1  0.5174200000000  0.5376880000000  0.5642180000000 1.0
C      1  0.4623220000000  0.4357910000000  0.5174190000000 1.0
C      1  0.5377020000000  0.4357910000000  0.4826030000000 1.0
C      1  0.4623220000000  0.5642060000000  0.4826030000000 1.0
C      1  0.4930830000000  0.4831130000000  0.4476660000000 1.0
C      1  0.4831270000000  0.4476540000000  0.4930820000000 1.0
C      1  0.4476670000000  0.4930700000000  0.4831250000000 1.0
C      1  0.5069410000000  0.5168840000000  0.4476660000000 1.0
C      1  0.4930830000000  0.5168840000000  0.5523560000000 1.0
C      1  0.5069410000000  0.4831130000000  0.5523560000000 1.0
C      1  0.5168970000000  0.5523430000000  0.4930820000000 1.0
C      1  0.4831270000000  0.5523430000000  0.5069390000000 1.0
C      1  0.5168970000000  0.4476540000000  0.5069390000000 1.0
C      1  0.5523570000000  0.5069270000000  0.4831250000000 1.0
C      1  0.4476670000000  0.5069270000000  0.5168960000000 1.0
C      1  0.5523570000000  0.4930700000000  0.5168960000000 1.0
C      1  0.4930830000000  0.4831130000000  0.5523560000000 1.0
C      1  0.4831270000000  0.4476540000000  0.5069390000000 1.0
C      1  0.4476670000000  0.4930700000000  0.5168960000000 1.0
C      1  0.5069410000000  0.5168840000000  0.5523560000000 1.0
C      1  0.4930830000000  0.5168840000000  0.4476660000000 1.0
C      1  0.5069410000000  0.4831130000000  0.4476660000000 1.0
C      1  0.5168970000000  0.5523430000000  0.5069390000000 1.0
C      1  0.4831270000000  0.5523430000000  0.4930820000000 1.0
C      1  0.5168970000000  0.4476540000000  0.4930820000000 1.0
C      1  0.5523570000000  0.5069270000000  0.5168960000000 1.0
C      1  0.4476670000000  0.5069270000000  0.4831250000000 1.0
C      1  0.5523570000000  0.4930700000000  0.4831250000000 1.0
C      1  0.4341490000000  0.4921750000000  0.5273400000000 1.0
C      1  0.4921880000000  0.5273280000000  0.4341480000000 1.0
C      1  0.5273410000000  0.4341350000000  0.4921870000000 1.0
C      1  0.5658750000000  0.5078220000000  0.5273400000000 1.0
C      1  0.4341490000000  0.5078220000000  0.4726810000000 1.0
C      1  0.5658750000000  0.4921750000000  0.4726810000000 1.0
C      1  0.5078360000000  0.4726690000000  0.4341480000000 1.0
C      1  0.4921880000000  0.4726690000000  0.5658740000000 1.0
C      1  0.5078360000000  0.5273280000000  0.5658740000000 1.0
C      1  0.4726830000000  0.5658620000000  0.4921870000000 1.0
C      1  0.5273410000000  0.5658620000000  0.5078340000000 1.0
C      1  0.4726830000000  0.4341350000000  0.5078340000000 1.0
C      1  0.4341490000000  0.4921750000000  0.4726810000000 1.0
C      1  0.4921880000000  0.5273280000000  0.5658740000000 1.0
C      1  0.5273410000000  0.4341350000000  0.5078340000000 1.0
C      1  0.5658750000000  0.5078220000000  0.4726810000000 1.0
C      1  0.4341490000000  0.5078220000000  0.5273400000000 1.0
C      1  0.5658750000000  0.4921750000000  0.5273400000000 1.0
C      1  0.5078360000000  0.4726690000000  0.5658740000000 1.0
C      1  0.4921880000000  0.4726690000000  0.4341480000000 1.0
C      1  0.5078360000000  0.5273280000000  0.4341480000000 1.0
C      1  0.4726830000000  0.5658620000000  0.5078340000000 1.0
C      1  0.5273410000000  0.5658620000000  0.4921870000000 1.0
C      1  0.4726830000000  0.4341350000000  0.4921870000000 1.0
C      1  0.4540990000000  0.5459110000000  0.4540980000000 1.0
C      1  0.4540990000000  0.4540860000000  0.5459230000000 1.0
C      1  0.5459250000000  0.4540860000000  0.4540980000000 1.0
C      1  0.5459250000000  0.4540860000000  0.5459230000000 1.0
C      1  0.5459250000000  0.5459110000000  0.4540980000000 1.0
C      1  0.4540990000000  0.5459110000000  0.5459230000000 1.0
C      1  0.5459250000000  0.5459110000000  0.5459230000000 1.0
C      1  0.4540990000000  0.4540860000000  0.4540980000000 1.0
END
