TITL C-1379267-1329-148 1.04717198895525e-06 1000000 -4102.23420282668 0 0 580 (C1) n - 1
REM
REM in /nfs/bkarasulu/CARBON/AIRSS/Generating-Clusters/GAP-ML-2020/Higher-Symm/Selected-Sizes/TryA-Only_Ih-Symm/Larger-Clusters/Try2-MINAMP_6A
REM
REM
REM
REM
REM
REM ./C.cell (31579ac4e95a012ec27f3239692ae8a5)
REM
REM compiler GCC version 9.2.1 20190827 (Red Hat 9.2.1-1)
REM options -cpp -mtune=generic -march=x86-64 -g -O0 -fpre-include=/usr/include/finclude/math-vector-fortran.h
REM seed 313607108 -1418641148 -1543842029 291716542 801542452 1090989182 -1094199285 1673888467 -1913160689 -1021678625 -1146899227 -2097915772 -2011682251 -678167855 -561458142 -402892619 1005722579 -1567647550 -949674230 -1869209534 -370723625 -257613314 549148759 1270949258 2003235425 1293592617 -173962853 -210280240 612963131 1211134233 1449568400 1918097391 922304991
REM
CELL 1.54180  100.00000  100.00000  100.00000   90.00000   90.00000   90.00000
LATT -1
SFAC C  
C      1  0.4197220000000  0.5314110000000  0.4584570000000 1.0
C      1  0.5311660000000  0.4588290000000  0.4194720000000 1.0
C      1  0.4591010000000  0.4194480000000  0.5315340000000 1.0
C      1  0.5803870000000  0.5308760000000  0.5413590000000 1.0
C      1  0.5801790000000  0.4686970000000  0.4587060000000 1.0
C      1  0.4214660000000  0.4691110000000  0.5410230000000 1.0
C      1  0.4689150000000  0.4585890000000  0.5805570000000 1.0
C      1  0.4681960000000  0.5417940000000  0.4192860000000 1.0
C      1  0.5314520000000  0.5411820000000  0.5807190000000 1.0
C      1  0.5411460000000  0.4197020000000  0.4684890000000 1.0
C      1  0.5411540000000  0.5787370000000  0.5310700000000 1.0
C      1  0.4584650000000  0.5805690000000  0.4680500000000 1.0
C      1  0.4582910000000  0.5317700000000  0.4192980000000 1.0
C      1  0.4214790000000  0.4589260000000  0.5308980000000 1.0
C      1  0.5311790000000  0.4196920000000  0.4584250000000 1.0
C      1  0.5414490000000  0.5311240000000  0.5805470000000 1.0
C      1  0.4588660000000  0.4685920000000  0.5806840000000 1.0
C      1  0.5415090000000  0.4686210000000  0.4203250000000 1.0
C      1  0.5800930000000  0.4585430000000  0.4685080000000 1.0
C      1  0.4198510000000  0.5414480000000  0.4683980000000 1.0
C      1  0.5805410000000  0.5409140000000  0.5313520000000 1.0
C      1  0.4691190000000  0.4195770000000  0.5415640000000 1.0
C      1  0.5309760000000  0.5787250000000  0.5412050000000 1.0
C      1  0.4686520000000  0.5807140000000  0.4583240000000 1.0
C      1  0.4890810000000  0.4628320000000  0.5692140000000 1.0
C      1  0.4621290000000  0.5675300000000  0.4876460000000 1.0
C      1  0.5677560000000  0.4885990000000  0.4625480000000 1.0
C      1  0.5108800000000  0.4627090000000  0.4305300000000 1.0
C      1  0.5110540000000  0.5376440000000  0.5686660000000 1.0
C      1  0.4878610000000  0.5378660000000  0.4321860000000 1.0
C      1  0.5357390000000  0.5670190000000  0.5077590000000 1.0
C      1  0.5374460000000  0.4315110000000  0.4889120000000 1.0
C      1  0.4627590000000  0.4315950000000  0.5112390000000 1.0
C      1  0.4333890000000  0.4922330000000  0.5355610000000 1.0
C      1  0.4318900000000  0.5114640000000  0.4623220000000 1.0
C      1  0.5688250000000  0.5108930000000  0.5371930000000 1.0
C      1  0.5671310000000  0.4626520000000  0.4882900000000 1.0
C      1  0.4883960000000  0.5683200000000  0.4623330000000 1.0
C      1  0.4624400000000  0.4889650000000  0.5686050000000 1.0
C      1  0.4333670000000  0.4642960000000  0.5076790000000 1.0
C      1  0.5682980000000  0.5374140000000  0.5111630000000 1.0
C      1  0.4321440000000  0.5377800000000  0.4881610000000 1.0
C      1  0.5077870000000  0.5668930000000  0.5357300000000 1.0
C      1  0.4892300000000  0.4309620000000  0.5373720000000 1.0
C      1  0.5109590000000  0.4309780000000  0.4625090000000 1.0
C      1  0.5364360000000  0.4923560000000  0.4313780000000 1.0
C      1  0.4623980000000  0.5121740000000  0.4322950000000 1.0
C      1  0.5371870000000  0.5109650000000  0.5691730000000 1.0
C      1  0.4999320000000  0.4524650000000  0.5382710000000 1.0
C      1  0.4520240000000  0.5386080000000  0.4995270000000 1.0
C      1  0.5388270000000  0.5019300000000  0.4517800000000 1.0
C      1  0.5001970000000  0.4523450000000  0.4615430000000 1.0
C      1  0.4987630000000  0.5468780000000  0.5374210000000 1.0
C      1  0.5004270000000  0.5478150000000  0.4615070000000 1.0
C      1  0.5476180000000  0.5386620000000  0.4987150000000 1.0
C      1  0.5470170000000  0.4622580000000  0.5009330000000 1.0
C      1  0.4531250000000  0.4624280000000  0.4987850000000 1.0
C      1  0.4612610000000  0.5014390000000  0.5479860000000 1.0
C      1  0.4618970000000  0.4987710000000  0.4520230000000 1.0
C      1  0.5378010000000  0.5001910000000  0.5476510000000 1.0
C      1  0.5382690000000  0.4522790000000  0.5013590000000 1.0
C      1  0.5010580000000  0.5387690000000  0.4517640000000 1.0
C      1  0.4533340000000  0.5012590000000  0.5372870000000 1.0
C      1  0.4617780000000  0.4523240000000  0.4986410000000 1.0
C      1  0.5374930000000  0.5472880000000  0.4988660000000 1.0
C      1  0.4611460000000  0.5484520000000  0.4997480000000 1.0
C      1  0.4986070000000  0.5388360000000  0.5480290000000 1.0
C      1  0.4998640000000  0.4621020000000  0.5476670000000 1.0
C      1  0.5003670000000  0.4619160000000  0.4520830000000 1.0
C      1  0.5472330000000  0.5008760000000  0.4620200000000 1.0
C      1  0.4524030000000  0.4993860000000  0.4613120000000 1.0
C      1  0.5472940000000  0.5002170000000  0.5381320000000 1.0
C      1  0.5386880000000  0.5575050000000  0.5489490000000 1.0
C      1  0.5553250000000  0.5447530000000  0.5342340000000 1.0
C      1  0.5437810000000  0.5325950000000  0.5549410000000 1.0
C      1  0.4654690000000  0.5552630000000  0.4551830000000 1.0
C      1  0.4675730000000  0.4452080000000  0.5439270000000 1.0
C      1  0.5328720000000  0.4453240000000  0.4560810000000 1.0
C      1  0.4452960000000  0.5449600000000  0.4660840000000 1.0
C      1  0.4426830000000  0.4511730000000  0.5387080000000 1.0
C      1  0.5568020000000  0.4531830000000  0.4638460000000 1.0
C      1  0.4528870000000  0.5371760000000  0.4424190000000 1.0
C      1  0.4553080000000  0.4658800000000  0.5554420000000 1.0
C      1  0.5473020000000  0.4627350000000  0.4427710000000 1.0
C      1  0.5488550000000  0.5574910000000  0.5387730000000 1.0
C      1  0.5341380000000  0.5448110000000  0.5554880000000 1.0
C      1  0.5547490000000  0.5325730000000  0.5438920000000 1.0
C      1  0.4531430000000  0.5572030000000  0.4635170000000 1.0
C      1  0.5447510000000  0.4450170000000  0.4663750000000 1.0
C      1  0.4554230000000  0.4446700000000  0.5342200000000 1.0
C      1  0.4628150000000  0.5471300000000  0.4424560000000 1.0
C      1  0.5337820000000  0.4560880000000  0.4446170000000 1.0
C      1  0.4675120000000  0.4562200000000  0.5549330000000 1.0
C      1  0.4452470000000  0.5338120000000  0.4549900000000 1.0
C      1  0.5549240000000  0.4654230000000  0.4554520000000 1.0
C      1  0.4426360000000  0.4613410000000  0.5488720000000 1.0
C      1  0.5577980000000  0.4318200000000  0.4843380000000 1.0
C      1  0.4330070000000  0.4836540000000  0.5573240000000 1.0
C      1  0.4841120000000  0.5584570000000  0.4317200000000 1.0
C      1  0.4425650000000  0.4321860000000  0.5158570000000 1.0
C      1  0.4415150000000  0.5683850000000  0.4838520000000 1.0
C      1  0.5574180000000  0.5671330000000  0.5164660000000 1.0
C      1  0.5675650000000  0.4842650000000  0.4420460000000 1.0
C      1  0.5679340000000  0.5151960000000  0.5580730000000 1.0
C      1  0.4318570000000  0.5156450000000  0.4417440000000 1.0
C      1  0.5157980000000  0.5577880000000  0.5679920000000 1.0
C      1  0.5153840000000  0.4418490000000  0.4316380000000 1.0
C      1  0.4848590000000  0.4419810000000  0.5681400000000 1.0
C      1  0.4848850000000  0.4320270000000  0.5582280000000 1.0
C      1  0.5576000000000  0.4835730000000  0.4321450000000 1.0
C      1  0.4317260000000  0.5583650000000  0.4839870000000 1.0
C      1  0.5153750000000  0.4320110000000  0.4416920000000 1.0
C      1  0.4843370000000  0.5683430000000  0.4416920000000 1.0
C      1  0.5163790000000  0.5671480000000  0.5574610000000 1.0
C      1  0.4423110000000  0.4842270000000  0.5679050000000 1.0
C      1  0.5580350000000  0.5152100000000  0.5680370000000 1.0
C      1  0.4417790000000  0.5158260000000  0.4318130000000 1.0
C      1  0.5678130000000  0.5576280000000  0.5158800000000 1.0
C      1  0.4330840000000  0.4426000000000  0.5164240000000 1.0
C      1  0.5675240000000  0.4419250000000  0.4843090000000 1.0
C      1  0.4900620000000  0.5504750000000  0.5730180000000 1.0
C      1  0.5500790000000  0.5720110000000  0.4906470000000 1.0
C      1  0.5726860000000  0.4898730000000  0.5501690000000 1.0
C      1  0.5095220000000  0.5503040000000  0.4270860000000 1.0
C      1  0.5102020000000  0.4498390000000  0.5728980000000 1.0
C      1  0.4899240000000  0.4496360000000  0.4268270000000 1.0
C      1  0.4499440000000  0.5724510000000  0.5093080000000 1.0
C      1  0.4501200000000  0.4272920000000  0.4901860000000 1.0
C      1  0.5500650000000  0.4271480000000  0.5099820000000 1.0
C      1  0.4273440000000  0.4901900000000  0.4497960000000 1.0
C      1  0.4284460000000  0.5093850000000  0.5496850000000 1.0
C      1  0.5724350000000  0.5097590000000  0.4497910000000 1.0
C      1  0.5727350000000  0.5501500000000  0.4902030000000 1.0
C      1  0.4906150000000  0.5717360000000  0.5498100000000 1.0
C      1  0.5502240000000  0.4898490000000  0.5727490000000 1.0
C      1  0.4275740000000  0.5502280000000  0.5094970000000 1.0
C      1  0.5719730000000  0.4501820000000  0.5095750000000 1.0
C      1  0.4282270000000  0.4499580000000  0.4906490000000 1.0
C      1  0.5097620000000  0.5728200000000  0.4497400000000 1.0
C      1  0.4899300000000  0.4270870000000  0.4494010000000 1.0
C      1  0.5102380000000  0.4271010000000  0.5504870000000 1.0
C      1  0.4501200000000  0.4904800000000  0.4274320000000 1.0
C      1  0.5504610000000  0.5096390000000  0.4271680000000 1.0
C      1  0.4496130000000  0.5099540000000  0.5729920000000 1.0
C      1  0.4662410000000  0.5231750000000  0.5588880000000 1.0
C      1  0.5225590000000  0.5582820000000  0.4663410000000 1.0
C      1  0.5578670000000  0.4668090000000  0.5228160000000 1.0
C      1  0.5335690000000  0.5232300000000  0.4412180000000 1.0
C      1  0.5334590000000  0.4773760000000  0.5582740000000 1.0
C      1  0.4668170000000  0.4770070000000  0.4415930000000 1.0
C      1  0.4768640000000  0.5575290000000  0.5331490000000 1.0
C      1  0.4775060000000  0.4415900000000  0.4659890000000 1.0
C      1  0.5225850000000  0.4415990000000  0.5339120000000 1.0
C      1  0.4422120000000  0.4665530000000  0.4769900000000 1.0
C      1  0.4430980000000  0.5342800000000  0.5225940000000 1.0
C      1  0.5583760000000  0.5336540000000  0.4769120000000 1.0
C      1  0.5583220000000  0.5228630000000  0.4662800000000 1.0
C      1  0.4657740000000  0.5570500000000  0.5226760000000 1.0
C      1  0.5226440000000  0.4665150000000  0.5583100000000 1.0
C      1  0.4426530000000  0.5231690000000  0.5330570000000 1.0
C      1  0.5579620000000  0.4775380000000  0.5336190000000 1.0
C      1  0.4419440000000  0.4773820000000  0.4663720000000 1.0
C      1  0.5334340000000  0.5580360000000  0.4769320000000 1.0
C      1  0.4668020000000  0.4415040000000  0.4768190000000 1.0
C      1  0.5333210000000  0.4415150000000  0.5231320000000 1.0
C      1  0.4775740000000  0.4662240000000  0.4414490000000 1.0
C      1  0.5227500000000  0.5336820000000  0.4411880000000 1.0
C      1  0.4768800000000  0.5338400000000  0.5589010000000 1.0
C      1  0.4794690000000  0.4401150000000  0.4299670000000 1.0
C      1  0.4405730000000  0.4304780000000  0.4799220000000 1.0
C      1  0.4305480000000  0.4797680000000  0.4403420000000 1.0
C      1  0.5205850000000  0.4401990000000  0.5698720000000 1.0
C      1  0.5200550000000  0.5597850000000  0.4303160000000 1.0
C      1  0.4797620000000  0.5599330000000  0.5695880000000 1.0
C      1  0.5596180000000  0.4304600000000  0.5202720000000 1.0
C      1  0.5596140000000  0.5694470000000  0.4801010000000 1.0
C      1  0.4404630000000  0.5695870000000  0.5199580000000 1.0
C      1  0.5696940000000  0.4794340000000  0.5597240000000 1.0
C      1  0.5695760000000  0.5201700000000  0.4402170000000 1.0
C      1  0.4306160000000  0.5199080000000  0.5593050000000 1.0
C      1  0.4307650000000  0.4404120000000  0.4801330000000 1.0
C      1  0.4794800000000  0.4302140000000  0.4398550000000 1.0
C      1  0.4405430000000  0.4800090000000  0.4305340000000 1.0
C      1  0.5692950000000  0.4405330000000  0.5200170000000 1.0
C      1  0.4305170000000  0.5596920000000  0.5200900000000 1.0
C      1  0.5695590000000  0.5596280000000  0.4798650000000 1.0
C      1  0.5206300000000  0.4302480000000  0.5600620000000 1.0
C      1  0.4800750000000  0.5695170000000  0.5593880000000 1.0
C      1  0.5202150000000  0.5696740000000  0.4402620000000 1.0
C      1  0.5598540000000  0.4794600000000  0.5696570000000 1.0
C      1  0.4401550000000  0.5202410000000  0.5695420000000 1.0
C      1  0.5598000000000  0.5201410000000  0.4302220000000 1.0
C      1  0.5045920000000  0.5165490000000  0.5538530000000 1.0
C      1  0.5150700000000  0.5529280000000  0.5041940000000 1.0
C      1  0.5535480000000  0.5050350000000  0.5157730000000 1.0
C      1  0.4951260000000  0.5163020000000  0.4461000000000 1.0
C      1  0.4949930000000  0.4844100000000  0.5541810000000 1.0
C      1  0.5050160000000  0.4842960000000  0.4454940000000 1.0
C      1  0.4832680000000  0.5527790000000  0.4947480000000 1.0
C      1  0.4838450000000  0.4463750000000  0.5047750000000 1.0
C      1  0.5162240000000  0.4463260000000  0.4952000000000 1.0
C      1  0.4475390000000  0.5056790000000  0.4833300000000 1.0
C      1  0.4475450000000  0.4960530000000  0.5149240000000 1.0
C      1  0.5530820000000  0.4950850000000  0.4838900000000 1.0
C      1  0.5532810000000  0.5164640000000  0.5047890000000 1.0
C      1  0.5039240000000  0.5528420000000  0.5150600000000 1.0
C      1  0.5155600000000  0.5050460000000  0.5541610000000 1.0
C      1  0.4476710000000  0.5168440000000  0.4944630000000 1.0
C      1  0.5530080000000  0.4842220000000  0.4950290000000 1.0
C      1  0.4475260000000  0.4849040000000  0.5040660000000 1.0
C      1  0.4943470000000  0.5529540000000  0.4834910000000 1.0
C      1  0.5048910000000  0.4459710000000  0.4840650000000 1.0
C      1  0.4952490000000  0.4460350000000  0.5158180000000 1.0
C      1  0.4841100000000  0.5048940000000  0.4460520000000 1.0
C      1  0.5159780000000  0.4958060000000  0.4457750000000 1.0
C      1  0.4835320000000  0.4954390000000  0.5538210000000 1.0
C      1  0.4152760000000  0.4684250000000  0.5213600000000 1.0
C      1  0.4677240000000  0.5224070000000  0.4121090000000 1.0
C      1  0.5220370000000  0.4117630000000  0.4679660000000 1.0
C      1  0.5872430000000  0.4678690000000  0.4779860000000 1.0
C      1  0.5879750000000  0.5316550000000  0.5219470000000 1.0
C      1  0.4123290000000  0.5321210000000  0.4777910000000 1.0
C      1  0.5318490000000  0.5220710000000  0.5884740000000 1.0
C      1  0.5326210000000  0.4783840000000  0.4131730000000 1.0
C      1  0.4680310000000  0.4779740000000  0.5882710000000 1.0
C      1  0.4782450000000  0.4116990000000  0.5319600000000 1.0
C      1  0.4777830000000  0.5880490000000  0.4680580000000 1.0
C      1  0.5214970000000  0.5849910000000  0.5317010000000 1.0
C      1  0.5224060000000  0.4687160000000  0.4119080000000 1.0
C      1  0.4122320000000  0.5222010000000  0.4680120000000 1.0
C      1  0.4682980000000  0.4118740000000  0.5222170000000 1.0
C      1  0.4779510000000  0.4682040000000  0.5884880000000 1.0
C      1  0.5220780000000  0.5319940000000  0.5882970000000 1.0
C      1  0.4776070000000  0.5323760000000  0.4120750000000 1.0
C      1  0.5881390000000  0.5217170000000  0.5316890000000 1.0
C      1  0.4152730000000  0.4786010000000  0.5314760000000 1.0
C      1  0.5874840000000  0.4779250000000  0.4682440000000 1.0
C      1  0.5319550000000  0.4119630000000  0.4777270000000 1.0
C      1  0.4676710000000  0.5877160000000  0.4776950000000 1.0
C      1  0.5316680000000  0.5850250000000  0.5215700000000 1.0
C      1  0.4343260000000  0.5141850000000  0.5025510000000 1.0
C      1  0.5129770000000  0.5037070000000  0.4323750000000 1.0
C      1  0.5034450000000  0.4326460000000  0.5130200000000 1.0
C      1  0.5667530000000  0.5133870000000  0.4966650000000 1.0
C      1  0.5665550000000  0.4867710000000  0.5030770000000 1.0
C      1  0.4340610000000  0.4875910000000  0.4958780000000 1.0
C      1  0.4865020000000  0.5034860000000  0.5673460000000 1.0
C      1  0.4866330000000  0.4970790000000  0.4326120000000 1.0
C      1  0.5129580000000  0.4969840000000  0.5676100000000 1.0
C      1  0.4967010000000  0.4325960000000  0.4868940000000 1.0
C      1  0.4959240000000  0.5663350000000  0.5124900000000 1.0
C      1  0.5023800000000  0.5663790000000  0.4862240000000 1.0
C      1  0.5030060000000  0.5137430000000  0.4326800000000 1.0
C      1  0.4340930000000  0.5040820000000  0.5123100000000 1.0
C      1  0.5134710000000  0.4327790000000  0.5030840000000 1.0
C      1  0.4965450000000  0.5135610000000  0.5673640000000 1.0
C      1  0.5030560000000  0.4870590000000  0.5676220000000 1.0
C      1  0.4965800000000  0.4870650000000  0.4321590000000 1.0
C      1  0.5666760000000  0.5032800000000  0.4867040000000 1.0
C      1  0.4341350000000  0.4976460000000  0.4861110000000 1.0
C      1  0.5668470000000  0.4967750000000  0.5129400000000 1.0
C      1  0.4866750000000  0.4327620000000  0.4968540000000 1.0
C      1  0.5124330000000  0.5664340000000  0.4960240000000 1.0
C      1  0.4858400000000  0.5660750000000  0.5027140000000 1.0
C      1  0.4467650000000  0.5313000000000  0.4884170000000 1.0
C      1  0.5311790000000  0.4907320000000  0.4459910000000 1.0
C      1  0.4894340000000  0.4451850000000  0.5302810000000 1.0
C      1  0.5536060000000  0.5318030000000  0.5101360000000 1.0
C      1  0.5523630000000  0.4694300000000  0.4890950000000 1.0
C      1  0.4477500000000  0.4701380000000  0.5102140000000 1.0
C      1  0.4681630000000  0.4900300000000  0.5539840000000 1.0
C      1  0.4690920000000  0.5104060000000  0.4465420000000 1.0
C      1  0.5300150000000  0.5107770000000  0.5549490000000 1.0
C      1  0.5106750000000  0.4451820000000  0.4695320000000 1.0
C      1  0.5100800000000  0.5524760000000  0.5298810000000 1.0
C      1  0.4887850000000  0.5536350000000  0.4685620000000 1.0
C      1  0.4894910000000  0.5312810000000  0.4464230000000 1.0
C      1  0.4478160000000  0.4899110000000  0.5297460000000 1.0
C      1  0.5314570000000  0.4462050000000  0.4899370000000 1.0
C      1  0.5100030000000  0.5319340000000  0.5540320000000 1.0
C      1  0.4892890000000  0.4699490000000  0.5549670000000 1.0
C      1  0.5108930000000  0.4697920000000  0.4446350000000 1.0
C      1  0.5530680000000  0.4892340000000  0.4689340000000 1.0
C      1  0.4466780000000  0.5111070000000  0.4683880000000 1.0
C      1  0.5545530000000  0.5107680000000  0.5302130000000 1.0
C      1  0.4685030000000  0.4462610000000  0.5101050000000 1.0
C      1  0.5298330000000  0.5526460000000  0.5103190000000 1.0
C      1  0.4689040000000  0.5529690000000  0.4884450000000 1.0
C      1  0.4931160000000  0.4557400000000  0.4818050000000 1.0
C      1  0.4567930000000  0.4826700000000  0.4920830000000 1.0
C      1  0.4825310000000  0.4927460000000  0.4556040000000 1.0
C      1  0.5070180000000  0.4558910000000  0.5181080000000 1.0
C      1  0.5065240000000  0.5436240000000  0.4815240000000 1.0
C      1  0.4919550000000  0.5434730000000  0.5172290000000 1.0
C      1  0.5435490000000  0.4825050000000  0.5072580000000 1.0
C      1  0.5437920000000  0.5181810000000  0.4926860000000 1.0
C      1  0.4576590000000  0.5190040000000  0.5064890000000 1.0
C      1  0.5176680000000  0.4930500000000  0.5443250000000 1.0
C      1  0.5179070000000  0.5075630000000  0.4555400000000 1.0
C      1  0.4817340000000  0.5075390000000  0.5442380000000 1.0
C      1  0.4822370000000  0.4558750000000  0.4924620000000 1.0
C      1  0.4933240000000  0.4819880000000  0.4554060000000 1.0
C      1  0.4569160000000  0.4933970000000  0.4813830000000 1.0
C      1  0.5178760000000  0.4559250000000  0.5074520000000 1.0
C      1  0.4810040000000  0.5425650000000  0.5065450000000 1.0
C      1  0.5172590000000  0.5436930000000  0.4922090000000 1.0
C      1  0.5069410000000  0.4822510000000  0.5443650000000 1.0
C      1  0.4925360000000  0.5183660000000  0.5442720000000 1.0
C      1  0.5070920000000  0.5182150000000  0.4557020000000 1.0
C      1  0.5436280000000  0.4932490000000  0.5179780000000 1.0
C      1  0.4567910000000  0.5080690000000  0.5171100000000 1.0
C      1  0.5438680000000  0.5073330000000  0.4820390000000 1.0
C      1  0.4536500000000  0.4742330000000  0.5685220000000 1.0
C      1  0.4743940000000  0.5684250000000  0.4531940000000 1.0
C      1  0.5677960000000  0.4527220000000  0.4735310000000 1.0
C      1  0.5499300000000  0.4708390000000  0.4312740000000 1.0
C      1  0.5464500000000  0.5250210000000  0.5684180000000 1.0
C      1  0.4527510000000  0.5266680000000  0.4317150000000 1.0
C      1  0.5293410000000  0.5684270000000  0.5504400000000 1.0
C      1  0.5251660000000  0.4317790000000  0.4533460000000 1.0
C      1  0.4751330000000  0.4317080000000  0.5466080000000 1.0
C      1  0.4317780000000  0.4496660000000  0.5293410000000 1.0
C      1  0.4320220000000  0.5467280000000  0.4742050000000 1.0
C      1  0.5683710000000  0.5462530000000  0.5258380000000 1.0
C      1  0.5678560000000  0.4743690000000  0.4536060000000 1.0
C      1  0.4526720000000  0.5682990000000  0.4732350000000 1.0
C      1  0.4750470000000  0.4535730000000  0.5684470000000 1.0
C      1  0.4317270000000  0.4707030000000  0.5503080000000 1.0
C      1  0.5682330000000  0.5249570000000  0.5464650000000 1.0
C      1  0.4318390000000  0.5256130000000  0.4531620000000 1.0
C      1  0.5503740000000  0.5684180000000  0.5294230000000 1.0
C      1  0.4539020000000  0.4316190000000  0.5258660000000 1.0
C      1  0.5464790000000  0.4317490000000  0.4743040000000 1.0
C      1  0.5253540000000  0.4533570000000  0.4313960000000 1.0
C      1  0.4732900000000  0.5474000000000  0.4316860000000 1.0
C      1  0.5257990000000  0.5464490000000  0.5685880000000 1.0
C      1  0.5289740000000  0.4196870000000  0.4891040000000 1.0
C      1  0.4216930000000  0.4904950000000  0.5279070000000 1.0
C      1  0.4887540000000  0.5295780000000  0.4201670000000 1.0
C      1  0.4712190000000  0.4197040000000  0.5108810000000 1.0
C      1  0.4704480000000  0.5794220000000  0.4887680000000 1.0
C      1  0.5280830000000  0.5786810000000  0.5096500000000 1.0
C      1  0.5796590000000  0.4892570000000  0.4710380000000 1.0
C      1  0.5806070000000  0.5102840000000  0.5286300000000 1.0
C      1  0.4202080000000  0.5109840000000  0.4709610000000 1.0
C      1  0.5106930000000  0.5290900000000  0.5805020000000 1.0
C      1  0.5105250000000  0.4713800000000  0.4186810000000 1.0
C      1  0.4894460000000  0.4712950000000  0.5810760000000 1.0
C      1  0.4897490000000  0.4191300000000  0.5288720000000 1.0
C      1  0.5286720000000  0.4900830000000  0.4199450000000 1.0
C      1  0.4203740000000  0.5293110000000  0.4890340000000 1.0
C      1  0.5104960000000  0.4191480000000  0.4710330000000 1.0
C      1  0.4889560000000  0.5800710000000  0.4709620000000 1.0
C      1  0.5095790000000  0.5786210000000  0.5281320000000 1.0
C      1  0.4709550000000  0.4893470000000  0.5804630000000 1.0
C      1  0.5287480000000  0.5105860000000  0.5810500000000 1.0
C      1  0.4706080000000  0.5112760000000  0.4202160000000 1.0
C      1  0.5800790000000  0.5287950000000  0.5106320000000 1.0
C      1  0.4217120000000  0.4719840000000  0.5094790000000 1.0
C      1  0.5791090000000  0.4708720000000  0.4890740000000 1.0
C      1  0.4695560000000  0.4872110000000  0.4507070000000 1.0
C      1  0.4880590000000  0.4506170000000  0.4686110000000 1.0
C      1  0.4514700000000  0.4696780000000  0.4869960000000 1.0
C      1  0.5307710000000  0.4880280000000  0.5494360000000 1.0
C      1  0.5308710000000  0.5132870000000  0.4505670000000 1.0
C      1  0.4689400000000  0.5130340000000  0.5497130000000 1.0
C      1  0.5120850000000  0.4506900000000  0.5312410000000 1.0
C      1  0.5120870000000  0.5494610000000  0.4689320000000 1.0
C      1  0.4869340000000  0.5483730000000  0.5302470000000 1.0
C      1  0.5488740000000  0.4696570000000  0.5125540000000 1.0
C      1  0.5493110000000  0.5309680000000  0.4871560000000 1.0
C      1  0.4540810000000  0.5329610000000  0.5127230000000 1.0
C      1  0.4508700000000  0.4878110000000  0.4688870000000 1.0
C      1  0.4694450000000  0.4505160000000  0.4870690000000 1.0
C      1  0.4882200000000  0.4689260000000  0.4502900000000 1.0
C      1  0.5489420000000  0.4880950000000  0.5310300000000 1.0
C      1  0.4518090000000  0.5130910000000  0.5301240000000 1.0
C      1  0.5494440000000  0.5125590000000  0.4692730000000 1.0
C      1  0.5306650000000  0.4506080000000  0.5129530000000 1.0
C      1  0.4670380000000  0.5460710000000  0.5128170000000 1.0
C      1  0.5302660000000  0.5489390000000  0.4870640000000 1.0
C      1  0.5119990000000  0.4691650000000  0.5494710000000 1.0
C      1  0.4870180000000  0.5311520000000  0.5497320000000 1.0
C      1  0.5126390000000  0.5311120000000  0.4504540000000 1.0
C      1  0.5402980000000  0.5307980000000  0.4205680000000 1.0
C      1  0.5308960000000  0.4210100000000  0.5404550000000 1.0
C      1  0.4218170000000  0.5396040000000  0.5298140000000 1.0
C      1  0.4593240000000  0.5311180000000  0.5793440000000 1.0
C      1  0.4598450000000  0.4695950000000  0.4208280000000 1.0
C      1  0.5402710000000  0.4693260000000  0.5790120000000 1.0
C      1  0.4692470000000  0.4209490000000  0.4595610000000 1.0
C      1  0.4699200000000  0.5787470000000  0.5393970000000 1.0
C      1  0.5305250000000  0.5789210000000  0.4600700000000 1.0
C      1  0.5790790000000  0.5402300000000  0.4692370000000 1.0
C      1  0.5787340000000  0.4599910000000  0.5302140000000 1.0
C      1  0.4213410000000  0.4599550000000  0.4697210000000 1.0
C      1  0.4214070000000  0.5300730000000  0.5393500000000 1.0
C      1  0.5403960000000  0.4208840000000  0.5308940000000 1.0
C      1  0.5306370000000  0.5403140000000  0.4207250000000 1.0
C      1  0.5789810000000  0.5306030000000  0.4597230000000 1.0
C      1  0.4213500000000  0.4694120000000  0.4600630000000 1.0
C      1  0.5787300000000  0.4693780000000  0.5398660000000 1.0
C      1  0.4597680000000  0.4208340000000  0.4691830000000 1.0
C      1  0.5400190000000  0.5789350000000  0.4697140000000 1.0
C      1  0.4604510000000  0.5783620000000  0.5297770000000 1.0
C      1  0.4689140000000  0.5407250000000  0.5793570000000 1.0
C      1  0.5307570000000  0.4598330000000  0.5790740000000 1.0
C      1  0.4692560000000  0.4599170000000  0.4208150000000 1.0
C      1  0.4959390000000  0.5714460000000  0.4496780000000 1.0
C      1  0.5702830000000  0.4501150000000  0.4957370000000 1.0
C      1  0.4496570000000  0.4960820000000  0.5715850000000 1.0
C      1  0.5046950000000  0.5700350000000  0.5494310000000 1.0
C      1  0.5037440000000  0.4285360000000  0.4495360000000 1.0
C      1  0.4964600000000  0.4285600000000  0.5503370000000 1.0
C      1  0.4301090000000  0.4505540000000  0.5046990000000 1.0
C      1  0.4287370000000  0.5503780000000  0.4956420000000 1.0
C      1  0.5713640000000  0.5501820000000  0.5040620000000 1.0
C      1  0.5501120000000  0.4954890000000  0.4286490000000 1.0
C      1  0.5501200000000  0.5036480000000  0.5714450000000 1.0
C      1  0.4499810000000  0.5043990000000  0.4289520000000 1.0
C      1  0.4497260000000  0.5710940000000  0.4953520000000 1.0
C      1  0.4964070000000  0.4499180000000  0.5715450000000 1.0
C      1  0.5708170000000  0.4959640000000  0.4498020000000 1.0
C      1  0.5494890000000  0.5701750000000  0.5047220000000 1.0
C      1  0.4500360000000  0.4286220000000  0.5040560000000 1.0
C      1  0.5501320000000  0.4284140000000  0.4961180000000 1.0
C      1  0.5037670000000  0.4497140000000  0.4281400000000 1.0
C      1  0.4955900000000  0.5503390000000  0.4287220000000 1.0
C      1  0.5039380000000  0.5504310000000  0.5716390000000 1.0
C      1  0.4301750000000  0.4953170000000  0.5492610000000 1.0
C      1  0.5712880000000  0.5036450000000  0.5501220000000 1.0
C      1  0.4286870000000  0.5040220000000  0.4496970000000 1.0
C      1  0.5459760000000  0.4649850000000  0.5565120000000 1.0
C      1  0.4646660000000  0.5567210000000  0.5462310000000 1.0
C      1  0.5566950000000  0.5462430000000  0.4645900000000 1.0
C      1  0.4540890000000  0.4648950000000  0.4432960000000 1.0
C      1  0.4535290000000  0.5355980000000  0.5569480000000 1.0
C      1  0.5463110000000  0.5355050000000  0.4429600000000 1.0
C      1  0.5353440000000  0.5567920000000  0.4535510000000 1.0
C      1  0.5350980000000  0.4434640000000  0.5462780000000 1.0
C      1  0.4648880000000  0.4433230000000  0.4535860000000 1.0
C      1  0.4435430000000  0.5461710000000  0.5351060000000 1.0
C      1  0.4436790000000  0.4539010000000  0.4648200000000 1.0
C      1  0.5563130000000  0.4540580000000  0.5349870000000 1.0
C      1  0.5563600000000  0.4649860000000  0.5460240000000 1.0
C      1  0.5461360000000  0.5566460000000  0.4647010000000 1.0
C      1  0.4644470000000  0.5465630000000  0.5569700000000 1.0
C      1  0.4436180000000  0.4648440000000  0.4537710000000 1.0
C      1  0.5567140000000  0.5353800000000  0.4534960000000 1.0
C      1  0.4434230000000  0.5353680000000  0.5461750000000 1.0
C      1  0.4539070000000  0.5566010000000  0.5351190000000 1.0
C      1  0.5459940000000  0.4434570000000  0.5351890000000 1.0
C      1  0.4540410000000  0.4433350000000  0.4646990000000 1.0
C      1  0.5354320000000  0.5465240000000  0.4429720000000 1.0
C      1  0.4649150000000  0.4537770000000  0.4431850000000 1.0
C      1  0.5350380000000  0.4539890000000  0.5566000000000 1.0
C      1  0.5084660000000  0.5186640000000  0.4708950000000 1.0
C      1  0.5187720000000  0.4712280000000  0.5090570000000 1.0
C      1  0.4721070000000  0.5082500000000  0.5182670000000 1.0
C      1  0.4911270000000  0.5190900000000  0.5288780000000 1.0
C      1  0.4920640000000  0.4810070000000  0.4707970000000 1.0
C      1  0.5084210000000  0.4812340000000  0.5289870000000 1.0
C      1  0.4814430000000  0.4711980000000  0.4906640000000 1.0
C      1  0.4823220000000  0.5275790000000  0.5076080000000 1.0
C      1  0.5183460000000  0.5284970000000  0.4908390000000 1.0
C      1  0.5286210000000  0.5088630000000  0.4807690000000 1.0
C      1  0.5282930000000  0.4916700000000  0.5189740000000 1.0
C      1  0.4721720000000  0.4916180000000  0.4805370000000 1.0
C      1  0.4726370000000  0.5178570000000  0.5075910000000 1.0
C      1  0.5084730000000  0.4712620000000  0.5190760000000 1.0
C      1  0.5188820000000  0.5087570000000  0.4708370000000 1.0
C      1  0.5284990000000  0.5190290000000  0.4908790000000 1.0
C      1  0.4719970000000  0.4814040000000  0.4906470000000 1.0
C      1  0.5283420000000  0.4813760000000  0.5088660000000 1.0
C      1  0.4917980000000  0.4710980000000  0.4807000000000 1.0
C      1  0.5081050000000  0.5283680000000  0.4807500000000 1.0
C      1  0.4918930000000  0.5281530000000  0.5183600000000 1.0
C      1  0.4810910000000  0.5090280000000  0.5288440000000 1.0
C      1  0.5185030000000  0.4915000000000  0.5289690000000 1.0
C      1  0.4820590000000  0.4913270000000  0.4708090000000 1.0
C      1  0.4297050000000  0.4484330000000  0.4680950000000 1.0
C      1  0.4484390000000  0.4679880000000  0.4294030000000 1.0
C      1  0.4675290000000  0.4293510000000  0.4480160000000 1.0
C      1  0.5703210000000  0.4484950000000  0.5320060000000 1.0
C      1  0.5706360000000  0.5517820000000  0.4676780000000 1.0
C      1  0.4296520000000  0.5514870000000  0.5319460000000 1.0
C      1  0.5517170000000  0.4675630000000  0.5704810000000 1.0
C      1  0.5517530000000  0.5322060000000  0.4291060000000 1.0
C      1  0.4478630000000  0.5325140000000  0.5707590000000 1.0
C      1  0.5325980000000  0.4294650000000  0.5519570000000 1.0
C      1  0.5322470000000  0.5707120000000  0.4483450000000 1.0
C      1  0.4681480000000  0.5706610000000  0.5511880000000 1.0
C      1  0.4675390000000  0.4483150000000  0.4291690000000 1.0
C      1  0.4296390000000  0.4677130000000  0.4483820000000 1.0
C      1  0.4483500000000  0.4294410000000  0.4677170000000 1.0
C      1  0.5324900000000  0.4483490000000  0.5706100000000 1.0
C      1  0.4675060000000  0.5521960000000  0.5707850000000 1.0
C      1  0.5321520000000  0.5518750000000  0.4291450000000 1.0
C      1  0.5704260000000  0.4675540000000  0.5514950000000 1.0
C      1  0.4294830000000  0.5318390000000  0.5511300000000 1.0
C      1  0.5707000000000  0.5323150000000  0.4480980000000 1.0
C      1  0.5517880000000  0.4295340000000  0.5324000000000 1.0
C      1  0.4486020000000  0.5705000000000  0.5318320000000 1.0
C      1  0.5515610000000  0.5705860000000  0.4680840000000 1.0
C      1  0.4676940000000  0.5427030000000  0.4774400000000 1.0
C      1  0.5447090000000  0.4761220000000  0.4651960000000 1.0
C      1  0.4760620000000  0.4680810000000  0.5477660000000 1.0
C      1  0.5318520000000  0.5429760000000  0.5220670000000 1.0
C      1  0.5354200000000  0.4541270000000  0.4770740000000 1.0
C      1  0.4640900000000  0.4541530000000  0.5230370000000 1.0
C      1  0.4573420000000  0.4780710000000  0.5319540000000 1.0
C      1  0.4544040000000  0.5239200000000  0.4644600000000 1.0
C      1  0.5474600000000  0.5240460000000  0.5320850000000 1.0
C      1  0.5247110000000  0.4683700000000  0.4513100000000 1.0
C      1  0.5229300000000  0.5362330000000  0.5460530000000 1.0
C      1  0.4796390000000  0.5328620000000  0.4577890000000 1.0
C      1  0.4757110000000  0.5456820000000  0.4650960000000 1.0
C      1  0.4639240000000  0.4770810000000  0.5460070000000 1.0
C      1  0.5423040000000  0.4677450000000  0.4778020000000 1.0
C      1  0.5218990000000  0.5429120000000  0.5320240000000 1.0
C      1  0.4761900000000  0.4523780000000  0.5321040000000 1.0
C      1  0.5238070000000  0.4524970000000  0.4674780000000 1.0
C      1  0.5330850000000  0.4793470000000  0.4554960000000 1.0
C      1  0.4675200000000  0.5202760000000  0.4579270000000 1.0
C      1  0.5318930000000  0.5240410000000  0.5477780000000 1.0
C      1  0.4573540000000  0.4681000000000  0.5220080000000 1.0
C      1  0.5457680000000  0.5361880000000  0.5230700000000 1.0
C      1  0.4548480000000  0.5350690000000  0.4755440000000 1.0
C      1  0.5055780000000  0.4845570000000  0.4208780000000 1.0
C      1  0.4842840000000  0.4217020000000  0.5060900000000 1.0
C      1  0.4228010000000  0.5065020000000  0.4840410000000 1.0
C      1  0.4939980000000  0.4845170000000  0.5788180000000 1.0
C      1  0.4936000000000  0.5164300000000  0.4218440000000 1.0
C      1  0.5058450000000  0.5160260000000  0.5784620000000 1.0
C      1  0.5158930000000  0.4216990000000  0.4938580000000 1.0
C      1  0.5147730000000  0.5775200000000  0.5050950000000 1.0
C      1  0.4834370000000  0.5773100000000  0.4937620000000 1.0
C      1  0.5782010000000  0.5057040000000  0.5154250000000 1.0
C      1  0.5776700000000  0.4939980000000  0.4841620000000 1.0
C      1  0.4229130000000  0.4950800000000  0.5146110000000 1.0
C      1  0.4229230000000  0.4852700000000  0.5048890000000 1.0
C      1  0.5058560000000  0.4214090000000  0.4842570000000 1.0
C      1  0.4837900000000  0.5065240000000  0.4218390000000 1.0
C      1  0.5774900000000  0.4840190000000  0.4938840000000 1.0
C      1  0.4229200000000  0.5163440000000  0.4938000000000 1.0
C      1  0.5779260000000  0.5157310000000  0.5058160000000 1.0
C      1  0.4943680000000  0.4214080000000  0.5156560000000 1.0
C      1  0.5049760000000  0.5774770000000  0.5148360000000 1.0
C      1  0.4934060000000  0.5776160000000  0.4840970000000 1.0
C      1  0.5155190000000  0.5060430000000  0.5788050000000 1.0
C      1  0.4840210000000  0.4941950000000  0.5784450000000 1.0
C      1  0.5153330000000  0.4944040000000  0.4212870000000 1.0
C      1  0.5726220000000  0.5378170000000  0.4818460000000 1.0
C      1  0.5377170000000  0.4819500000000  0.5726150000000 1.0
C      1  0.4822950000000  0.5716060000000  0.5372930000000 1.0
C      1  0.4286580000000  0.5377060000000  0.5172580000000 1.0
C      1  0.4281520000000  0.4623270000000  0.4822680000000 1.0
C      1  0.5719440000000  0.4625430000000  0.5177510000000 1.0
C      1  0.4624450000000  0.4821450000000  0.4274040000000 1.0
C      1  0.4619010000000  0.5184280000000  0.5730890000000 1.0
C      1  0.5380450000000  0.5181210000000  0.4270460000000 1.0
C      1  0.5178320000000  0.5724580000000  0.4621950000000 1.0
C      1  0.5181680000000  0.4272740000000  0.5380110000000 1.0
C      1  0.4819700000000  0.4272560000000  0.4618820000000 1.0
C      1  0.4816080000000  0.5381750000000  0.5730990000000 1.0
C      1  0.5723270000000  0.4820500000000  0.5376290000000 1.0
C      1  0.5377120000000  0.5721200000000  0.4822540000000 1.0
C      1  0.5178970000000  0.5379910000000  0.4270620000000 1.0
C      1  0.4819930000000  0.4621340000000  0.4270980000000 1.0
C      1  0.5181120000000  0.4623390000000  0.5726800000000 1.0
C      1  0.4277420000000  0.4821260000000  0.4622570000000 1.0
C      1  0.5723630000000  0.5180000000000  0.4621220000000 1.0
C      1  0.4285910000000  0.5177270000000  0.5371890000000 1.0
C      1  0.4623880000000  0.5714960000000  0.5172440000000 1.0
C      1  0.5377050000000  0.4272510000000  0.5182760000000 1.0
C      1  0.4624330000000  0.4272860000000  0.4817630000000 1.0
C      1  0.4808470000000  0.4653130000000  0.5348710000000 1.0
C      1  0.4789090000000  0.5214550000000  0.4652820000000 1.0
C      1  0.5196360000000  0.4653910000000  0.4641260000000 1.0
C      1  0.5345310000000  0.5193420000000  0.5348320000000 1.0
END
