TITL C-1379265-1223-199 2.62296361166745e-07 1000000 -2187.47483041565 0 0 300 (Th) n - 1
REM
REM in /nfs/bkarasulu/CARBON/AIRSS/Generating-Clusters/GAP-ML-2020/Higher-Symm/Selected-Sizes/TryA-Only_Ih-Symm/Larger-Clusters/Try2-MINAMP_6A
REM
REM
REM
REM
REM
REM ./C.cell (31579ac4e95a012ec27f3239692ae8a5)
REM
REM compiler GCC version 9.2.1 20190827 (Red Hat 9.2.1-1)
REM options -cpp -mtune=generic -march=x86-64 -g -O0 -fpre-include=/usr/include/finclude/math-vector-fortran.h
REM seed 1544566620 -686997883 -318427934 324036713 -1940867121 -476535948 -644559566 -1281016619 -1220195967 29787447 -938974899 -2058906286 -1160111893 -1357670366 831494899 -1404540284 -1451726355 -1584706761 1186853127 1253767824 869580581 -1627584307 -1136360129 -1523244975 -1919996795 355587931 -151015394 -1169718755 -502561843 -93244486 497199210 -139351551 375682483
REM
CELL 1.54180  100.00000  100.00000  100.00000   90.00000   90.00000   90.00000
LATT -1
SFAC C  
C      1  0.4931620000000  0.5279810000000  0.4271970000000 1.0
C      1  0.4271970000000  0.4931620000000  0.5279810000000 1.0
C      1  0.5279810000000  0.4271970000000  0.4931620000000 1.0
C      1  0.4931620000000  0.4720190000000  0.5728030000000 1.0
C      1  0.5068380000000  0.4720190000000  0.4271970000000 1.0
C      1  0.5068380000000  0.5279810000000  0.5728030000000 1.0
C      1  0.4271970000000  0.5068380000000  0.4720190000000 1.0
C      1  0.5728030000000  0.5068380000000  0.5279810000000 1.0
C      1  0.5728030000000  0.4931620000000  0.4720190000000 1.0
C      1  0.5279810000000  0.5728030000000  0.5068380000000 1.0
C      1  0.4720190000000  0.5728030000000  0.4931620000000 1.0
C      1  0.4720190000000  0.4271970000000  0.5068380000000 1.0
C      1  0.5068380000000  0.5279810000000  0.4271970000000 1.0
C      1  0.5728030000000  0.4931620000000  0.5279810000000 1.0
C      1  0.4720190000000  0.4271970000000  0.4931620000000 1.0
C      1  0.5068380000000  0.4720190000000  0.5728030000000 1.0
C      1  0.4931620000000  0.4720190000000  0.4271970000000 1.0
C      1  0.4931620000000  0.5279810000000  0.5728030000000 1.0
C      1  0.5728030000000  0.5068380000000  0.4720190000000 1.0
C      1  0.4271970000000  0.5068380000000  0.5279810000000 1.0
C      1  0.4271970000000  0.4931620000000  0.4720190000000 1.0
C      1  0.4720190000000  0.5728030000000  0.5068380000000 1.0
C      1  0.5279810000000  0.5728030000000  0.4931620000000 1.0
C      1  0.5279810000000  0.4271970000000  0.5068380000000 1.0
C      1  0.4895760000000  0.4503970000000  0.4397440000000 1.0
C      1  0.4397440000000  0.4895760000000  0.4503970000000 1.0
C      1  0.4503970000000  0.4397440000000  0.4895760000000 1.0
C      1  0.4895760000000  0.5496030000000  0.5602560000000 1.0
C      1  0.5104240000000  0.5496030000000  0.4397440000000 1.0
C      1  0.5104240000000  0.4503970000000  0.5602560000000 1.0
C      1  0.4397440000000  0.5104240000000  0.5496030000000 1.0
C      1  0.5602560000000  0.5104240000000  0.4503970000000 1.0
C      1  0.5602560000000  0.4895760000000  0.5496030000000 1.0
C      1  0.4503970000000  0.5602560000000  0.5104240000000 1.0
C      1  0.5496030000000  0.5602560000000  0.4895760000000 1.0
C      1  0.5496030000000  0.4397440000000  0.5104240000000 1.0
C      1  0.5104240000000  0.4503970000000  0.4397440000000 1.0
C      1  0.5602560000000  0.4895760000000  0.4503970000000 1.0
C      1  0.5496030000000  0.4397440000000  0.4895760000000 1.0
C      1  0.5104240000000  0.5496030000000  0.5602560000000 1.0
C      1  0.4895760000000  0.5496030000000  0.4397440000000 1.0
C      1  0.4895760000000  0.4503970000000  0.5602560000000 1.0
C      1  0.5602560000000  0.5104240000000  0.5496030000000 1.0
C      1  0.4397440000000  0.5104240000000  0.4503970000000 1.0
C      1  0.4397440000000  0.4895760000000  0.5496030000000 1.0
C      1  0.5496030000000  0.5602560000000  0.5104240000000 1.0
C      1  0.4503970000000  0.5602560000000  0.4895760000000 1.0
C      1  0.4503970000000  0.4397440000000  0.5104240000000 1.0
C      1  0.5352380000000  0.5510700000000  0.5329970000000 1.0
C      1  0.5329970000000  0.5352380000000  0.5510700000000 1.0
C      1  0.5510700000000  0.5329970000000  0.5352380000000 1.0
C      1  0.5352380000000  0.4489300000000  0.4670030000000 1.0
C      1  0.4647620000000  0.4489300000000  0.5329970000000 1.0
C      1  0.4647620000000  0.5510700000000  0.4670030000000 1.0
C      1  0.5329970000000  0.4647620000000  0.4489300000000 1.0
C      1  0.4670030000000  0.4647620000000  0.5510700000000 1.0
C      1  0.4670030000000  0.5352380000000  0.4489300000000 1.0
C      1  0.5510700000000  0.4670030000000  0.4647620000000 1.0
C      1  0.4489300000000  0.4670030000000  0.5352380000000 1.0
C      1  0.4489300000000  0.5329970000000  0.4647620000000 1.0
C      1  0.4647620000000  0.5510700000000  0.5329970000000 1.0
C      1  0.4670030000000  0.5352380000000  0.5510700000000 1.0
C      1  0.4489300000000  0.5329970000000  0.5352380000000 1.0
C      1  0.4647620000000  0.4489300000000  0.4670030000000 1.0
C      1  0.5352380000000  0.4489300000000  0.5329970000000 1.0
C      1  0.5352380000000  0.5510700000000  0.4670030000000 1.0
C      1  0.4670030000000  0.4647620000000  0.4489300000000 1.0
C      1  0.5329970000000  0.4647620000000  0.5510700000000 1.0
C      1  0.5329970000000  0.5352380000000  0.4489300000000 1.0
C      1  0.4489300000000  0.4670030000000  0.4647620000000 1.0
C      1  0.5510700000000  0.4670030000000  0.5352380000000 1.0
C      1  0.5510700000000  0.5329970000000  0.4647620000000 1.0
C      1  0.5844200000000  0.4925560000000  0.5072000000000 1.0
C      1  0.5072000000000  0.5844200000000  0.4925560000000 1.0
C      1  0.4925560000000  0.5072000000000  0.5844200000000 1.0
C      1  0.5844200000000  0.5074440000000  0.4928000000000 1.0
C      1  0.4155800000000  0.5074440000000  0.5072000000000 1.0
C      1  0.4155800000000  0.4925560000000  0.4928000000000 1.0
C      1  0.5072000000000  0.4155800000000  0.5074440000000 1.0
C      1  0.4928000000000  0.4155800000000  0.4925560000000 1.0
C      1  0.4928000000000  0.5844200000000  0.5074440000000 1.0
C      1  0.4925560000000  0.4928000000000  0.4155800000000 1.0
C      1  0.5074440000000  0.4928000000000  0.5844200000000 1.0
C      1  0.5074440000000  0.5072000000000  0.4155800000000 1.0
C      1  0.4155800000000  0.4925560000000  0.5072000000000 1.0
C      1  0.4928000000000  0.5844200000000  0.4925560000000 1.0
C      1  0.5074440000000  0.5072000000000  0.5844200000000 1.0
C      1  0.4155800000000  0.5074440000000  0.4928000000000 1.0
C      1  0.5844200000000  0.5074440000000  0.5072000000000 1.0
C      1  0.5844200000000  0.4925560000000  0.4928000000000 1.0
C      1  0.4928000000000  0.4155800000000  0.5074440000000 1.0
C      1  0.5072000000000  0.4155800000000  0.4925560000000 1.0
C      1  0.5072000000000  0.5844200000000  0.5074440000000 1.0
C      1  0.5074440000000  0.4928000000000  0.4155800000000 1.0
C      1  0.4925560000000  0.4928000000000  0.5844200000000 1.0
C      1  0.4925560000000  0.5072000000000  0.4155800000000 1.0
C      1  0.4699610000000  0.4380850000000  0.4737740000000 1.0
C      1  0.4737740000000  0.4699610000000  0.4380850000000 1.0
C      1  0.4380850000000  0.4737740000000  0.4699610000000 1.0
C      1  0.4699610000000  0.5619150000000  0.5262260000000 1.0
C      1  0.5300390000000  0.5619150000000  0.4737740000000 1.0
C      1  0.5300390000000  0.4380850000000  0.5262260000000 1.0
C      1  0.4737740000000  0.5300390000000  0.5619150000000 1.0
C      1  0.5262260000000  0.5300390000000  0.4380850000000 1.0
C      1  0.5262260000000  0.4699610000000  0.5619150000000 1.0
C      1  0.4380850000000  0.5262260000000  0.5300390000000 1.0
C      1  0.5619150000000  0.5262260000000  0.4699610000000 1.0
C      1  0.5619150000000  0.4737740000000  0.5300390000000 1.0
C      1  0.5300390000000  0.4380850000000  0.4737740000000 1.0
C      1  0.5262260000000  0.4699610000000  0.4380850000000 1.0
C      1  0.5619150000000  0.4737740000000  0.4699610000000 1.0
C      1  0.5300390000000  0.5619150000000  0.5262260000000 1.0
C      1  0.4699610000000  0.5619150000000  0.4737740000000 1.0
C      1  0.4699610000000  0.4380850000000  0.5262260000000 1.0
C      1  0.5262260000000  0.5300390000000  0.5619150000000 1.0
C      1  0.4737740000000  0.5300390000000  0.4380850000000 1.0
C      1  0.4737740000000  0.4699610000000  0.5619150000000 1.0
C      1  0.5619150000000  0.5262260000000  0.5300390000000 1.0
C      1  0.4380850000000  0.5262260000000  0.4699610000000 1.0
C      1  0.4380850000000  0.4737740000000  0.5300390000000 1.0
C      1  0.4404180000000  0.5072930000000  0.5072290000000 1.0
C      1  0.5072290000000  0.4404180000000  0.5072930000000 1.0
C      1  0.5072930000000  0.5072290000000  0.4404180000000 1.0
C      1  0.4404180000000  0.4927070000000  0.4927710000000 1.0
C      1  0.5595820000000  0.4927070000000  0.5072290000000 1.0
C      1  0.5595820000000  0.5072930000000  0.4927710000000 1.0
C      1  0.5072290000000  0.5595820000000  0.4927070000000 1.0
C      1  0.4927710000000  0.5595820000000  0.5072930000000 1.0
C      1  0.4927710000000  0.4404180000000  0.4927070000000 1.0
C      1  0.5072930000000  0.4927710000000  0.5595820000000 1.0
C      1  0.4927070000000  0.4927710000000  0.4404180000000 1.0
C      1  0.4927070000000  0.5072290000000  0.5595820000000 1.0
C      1  0.5595820000000  0.5072930000000  0.5072290000000 1.0
C      1  0.4927710000000  0.4404180000000  0.5072930000000 1.0
C      1  0.4927070000000  0.5072290000000  0.4404180000000 1.0
C      1  0.5595820000000  0.4927070000000  0.4927710000000 1.0
C      1  0.4404180000000  0.4927070000000  0.5072290000000 1.0
C      1  0.4404180000000  0.5072930000000  0.4927710000000 1.0
C      1  0.4927710000000  0.5595820000000  0.4927070000000 1.0
C      1  0.5072290000000  0.5595820000000  0.5072930000000 1.0
C      1  0.5072290000000  0.4404180000000  0.4927070000000 1.0
C      1  0.4927070000000  0.4927710000000  0.5595820000000 1.0
C      1  0.5072930000000  0.4927710000000  0.4404180000000 1.0
C      1  0.5072930000000  0.5072290000000  0.5595820000000 1.0
C      1  0.4627240000000  0.5662550000000  0.4851920000000 1.0
C      1  0.4851920000000  0.4627240000000  0.5662550000000 1.0
C      1  0.5662550000000  0.4851920000000  0.4627240000000 1.0
C      1  0.4627240000000  0.4337450000000  0.5148080000000 1.0
C      1  0.5372760000000  0.4337450000000  0.4851920000000 1.0
C      1  0.5372760000000  0.5662550000000  0.5148080000000 1.0
C      1  0.4851920000000  0.5372760000000  0.4337450000000 1.0
C      1  0.5148080000000  0.5372760000000  0.5662550000000 1.0
C      1  0.5148080000000  0.4627240000000  0.4337450000000 1.0
C      1  0.5662550000000  0.5148080000000  0.5372760000000 1.0
C      1  0.4337450000000  0.5148080000000  0.4627240000000 1.0
C      1  0.4337450000000  0.4851920000000  0.5372760000000 1.0
C      1  0.5372760000000  0.5662550000000  0.4851920000000 1.0
C      1  0.5148080000000  0.4627240000000  0.5662550000000 1.0
C      1  0.4337450000000  0.4851920000000  0.4627240000000 1.0
C      1  0.5372760000000  0.4337450000000  0.5148080000000 1.0
C      1  0.4627240000000  0.4337450000000  0.4851920000000 1.0
C      1  0.4627240000000  0.5662550000000  0.5148080000000 1.0
C      1  0.5148080000000  0.5372760000000  0.4337450000000 1.0
C      1  0.4851920000000  0.5372760000000  0.5662550000000 1.0
C      1  0.4851920000000  0.4627240000000  0.4337450000000 1.0
C      1  0.4337450000000  0.5148080000000  0.5372760000000 1.0
C      1  0.5662550000000  0.5148080000000  0.4627240000000 1.0
C      1  0.5662550000000  0.4851920000000  0.5372760000000 1.0
C      1  0.5152240000000  0.5529020000000  0.5470590000000 1.0
C      1  0.5470590000000  0.5152240000000  0.5529020000000 1.0
C      1  0.5529020000000  0.5470590000000  0.5152240000000 1.0
C      1  0.5152240000000  0.4470980000000  0.4529410000000 1.0
C      1  0.4847760000000  0.4470980000000  0.5470590000000 1.0
C      1  0.4847760000000  0.5529020000000  0.4529410000000 1.0
C      1  0.5470590000000  0.4847760000000  0.4470980000000 1.0
C      1  0.4529410000000  0.4847760000000  0.5529020000000 1.0
C      1  0.4529410000000  0.5152240000000  0.4470980000000 1.0
C      1  0.5529020000000  0.4529410000000  0.4847760000000 1.0
C      1  0.4470980000000  0.4529410000000  0.5152240000000 1.0
C      1  0.4470980000000  0.5470590000000  0.4847760000000 1.0
C      1  0.4847760000000  0.5529020000000  0.5470590000000 1.0
C      1  0.4529410000000  0.5152240000000  0.5529020000000 1.0
C      1  0.4470980000000  0.5470590000000  0.5152240000000 1.0
C      1  0.4847760000000  0.4470980000000  0.4529410000000 1.0
C      1  0.5152240000000  0.4470980000000  0.5470590000000 1.0
C      1  0.5152240000000  0.5529020000000  0.4529410000000 1.0
C      1  0.4529410000000  0.4847760000000  0.4470980000000 1.0
C      1  0.5470590000000  0.4847760000000  0.5529020000000 1.0
C      1  0.5470590000000  0.5152240000000  0.4470980000000 1.0
C      1  0.4470980000000  0.4529410000000  0.4847760000000 1.0
C      1  0.5529020000000  0.4529410000000  0.5152240000000 1.0
C      1  0.5529020000000  0.5470590000000  0.4847760000000 1.0
C      1  0.4278810000000  0.4868160000000  0.5140190000000 1.0
C      1  0.5140190000000  0.4278810000000  0.4868160000000 1.0
C      1  0.4868160000000  0.5140190000000  0.4278810000000 1.0
C      1  0.4278810000000  0.5131840000000  0.4859810000000 1.0
C      1  0.5721190000000  0.5131840000000  0.5140190000000 1.0
C      1  0.5721190000000  0.4868160000000  0.4859810000000 1.0
C      1  0.5140190000000  0.5721190000000  0.5131840000000 1.0
C      1  0.4859810000000  0.5721190000000  0.4868160000000 1.0
C      1  0.4859810000000  0.4278810000000  0.5131840000000 1.0
C      1  0.4868160000000  0.4859810000000  0.5721190000000 1.0
C      1  0.5131840000000  0.4859810000000  0.4278810000000 1.0
C      1  0.5131840000000  0.5140190000000  0.5721190000000 1.0
C      1  0.5721190000000  0.4868160000000  0.5140190000000 1.0
C      1  0.4859810000000  0.4278810000000  0.4868160000000 1.0
C      1  0.5131840000000  0.5140190000000  0.4278810000000 1.0
C      1  0.5721190000000  0.5131840000000  0.4859810000000 1.0
C      1  0.4278810000000  0.5131840000000  0.5140190000000 1.0
C      1  0.4278810000000  0.4868160000000  0.4859810000000 1.0
C      1  0.4859810000000  0.5721190000000  0.5131840000000 1.0
C      1  0.5140190000000  0.5721190000000  0.4868160000000 1.0
C      1  0.5140190000000  0.4278810000000  0.5131840000000 1.0
C      1  0.5131840000000  0.4859810000000  0.5721190000000 1.0
C      1  0.4868160000000  0.4859810000000  0.4278810000000 1.0
C      1  0.4868160000000  0.5140190000000  0.5721190000000 1.0
C      1  0.5267870000000  0.4837350000000  0.4339260000000 1.0
C      1  0.4339260000000  0.5267870000000  0.4837350000000 1.0
C      1  0.4837350000000  0.4339260000000  0.5267870000000 1.0
C      1  0.5267870000000  0.5162650000000  0.5660740000000 1.0
C      1  0.4732130000000  0.5162650000000  0.4339260000000 1.0
C      1  0.4732130000000  0.4837350000000  0.5660740000000 1.0
C      1  0.4339260000000  0.4732130000000  0.5162650000000 1.0
C      1  0.5660740000000  0.4732130000000  0.4837350000000 1.0
C      1  0.5660740000000  0.5267870000000  0.5162650000000 1.0
C      1  0.4837350000000  0.5660740000000  0.4732130000000 1.0
C      1  0.5162650000000  0.5660740000000  0.5267870000000 1.0
C      1  0.5162650000000  0.4339260000000  0.4732130000000 1.0
C      1  0.4732130000000  0.4837350000000  0.4339260000000 1.0
C      1  0.5660740000000  0.5267870000000  0.4837350000000 1.0
C      1  0.5162650000000  0.4339260000000  0.5267870000000 1.0
C      1  0.4732130000000  0.5162650000000  0.5660740000000 1.0
C      1  0.5267870000000  0.5162650000000  0.4339260000000 1.0
C      1  0.5267870000000  0.4837350000000  0.5660740000000 1.0
C      1  0.5660740000000  0.4732130000000  0.5162650000000 1.0
C      1  0.4339260000000  0.4732130000000  0.4837350000000 1.0
C      1  0.4339260000000  0.5267870000000  0.5162650000000 1.0
C      1  0.5162650000000  0.5660740000000  0.4732130000000 1.0
C      1  0.4837350000000  0.5660740000000  0.5267870000000 1.0
C      1  0.4837350000000  0.4339260000000  0.4732130000000 1.0
C      1  0.4560150000000  0.4722490000000  0.4534040000000 1.0
C      1  0.4534040000000  0.4560150000000  0.4722490000000 1.0
C      1  0.4722490000000  0.4534040000000  0.4560150000000 1.0
C      1  0.4560150000000  0.5277510000000  0.5465960000000 1.0
C      1  0.5439850000000  0.5277510000000  0.4534040000000 1.0
C      1  0.5439850000000  0.4722490000000  0.5465960000000 1.0
C      1  0.4534040000000  0.5439850000000  0.5277510000000 1.0
C      1  0.5465960000000  0.5439850000000  0.4722490000000 1.0
C      1  0.5465960000000  0.4560150000000  0.5277510000000 1.0
C      1  0.4722490000000  0.5465960000000  0.5439850000000 1.0
C      1  0.5277510000000  0.5465960000000  0.4560150000000 1.0
C      1  0.5277510000000  0.4534040000000  0.5439850000000 1.0
C      1  0.5439850000000  0.4722490000000  0.4534040000000 1.0
C      1  0.5465960000000  0.4560150000000  0.4722490000000 1.0
C      1  0.5277510000000  0.4534040000000  0.4560150000000 1.0
C      1  0.5439850000000  0.5277510000000  0.5465960000000 1.0
C      1  0.4560150000000  0.5277510000000  0.4534040000000 1.0
C      1  0.4560150000000  0.4722490000000  0.5465960000000 1.0
C      1  0.5465960000000  0.5439850000000  0.5277510000000 1.0
C      1  0.4534040000000  0.5439850000000  0.4722490000000 1.0
C      1  0.4534040000000  0.4560150000000  0.5277510000000 1.0
C      1  0.5277510000000  0.5465960000000  0.5439850000000 1.0
C      1  0.4722490000000  0.5465960000000  0.4560150000000 1.0
C      1  0.4722490000000  0.4534040000000  0.5439850000000 1.0
C      1  0.4630400000000  0.4924240000000  0.4393710000000 1.0
C      1  0.4393710000000  0.4630400000000  0.4924240000000 1.0
C      1  0.4924240000000  0.4393710000000  0.4630400000000 1.0
C      1  0.4630400000000  0.5075760000000  0.5606290000000 1.0
C      1  0.5369600000000  0.5075760000000  0.4393710000000 1.0
C      1  0.5369600000000  0.4924240000000  0.5606290000000 1.0
C      1  0.4393710000000  0.5369600000000  0.5075760000000 1.0
C      1  0.5606290000000  0.5369600000000  0.4924240000000 1.0
C      1  0.5606290000000  0.4630400000000  0.5075760000000 1.0
C      1  0.4924240000000  0.5606290000000  0.5369600000000 1.0
C      1  0.5075760000000  0.5606290000000  0.4630400000000 1.0
C      1  0.5075760000000  0.4393710000000  0.5369600000000 1.0
C      1  0.5369600000000  0.4924240000000  0.4393710000000 1.0
C      1  0.5606290000000  0.4630400000000  0.4924240000000 1.0
C      1  0.5075760000000  0.4393710000000  0.4630400000000 1.0
C      1  0.5369600000000  0.5075760000000  0.5606290000000 1.0
C      1  0.4630400000000  0.5075760000000  0.4393710000000 1.0
C      1  0.4630400000000  0.4924240000000  0.5606290000000 1.0
C      1  0.5606290000000  0.5369600000000  0.5075760000000 1.0
C      1  0.4393710000000  0.5369600000000  0.4924240000000 1.0
C      1  0.4393710000000  0.4630400000000  0.5075760000000 1.0
C      1  0.5075760000000  0.5606290000000  0.5369600000000 1.0
C      1  0.4924240000000  0.5606290000000  0.4630400000000 1.0
C      1  0.4924240000000  0.4393710000000  0.5369600000000 1.0
C      1  0.5568050000000  0.4336380000000  0.5000000000000 1.0
C      1  0.4431950000000  0.5663620000000  0.5000000000000 1.0
C      1  0.5568050000000  0.5663620000000  0.5000000000000 1.0
C      1  0.5000000000000  0.4431950000000  0.5663620000000 1.0
C      1  0.5000000000000  0.5568050000000  0.4336380000000 1.0
C      1  0.4431950000000  0.4336380000000  0.5000000000000 1.0
C      1  0.5000000000000  0.5568050000000  0.5663620000000 1.0
C      1  0.5663620000000  0.5000000000000  0.5568050000000 1.0
C      1  0.5000000000000  0.4431950000000  0.4336380000000 1.0
C      1  0.5663620000000  0.5000000000000  0.4431950000000 1.0
C      1  0.4336380000000  0.5000000000000  0.5568050000000 1.0
C      1  0.4336380000000  0.5000000000000  0.4431950000000 1.0
END
