TITL C-1379268-1316-12 7.52264431579302e-07 1000000 -2810.60500934968 0 0 400 (C1) n - 1
REM
REM in /nfs/bkarasulu/CARBON/AIRSS/Generating-Clusters/GAP-ML-2020/Higher-Symm/Selected-Sizes/TryA-Only_Ih-Symm/Larger-Clusters/Try2-MINAMP_6A
REM
REM
REM
REM
REM
REM ./C.cell (31579ac4e95a012ec27f3239692ae8a5)
REM
REM compiler GCC version 9.2.1 20190827 (Red Hat 9.2.1-1)
REM options -cpp -mtune=generic -march=x86-64 -g -O0 -fpre-include=/usr/include/finclude/math-vector-fortran.h
REM seed -2024504701 1674507915 1524063246 -1213435171 -431721371 -1566490077 548106543 525056552 1546307960 -1301176285 -1808211910 -2077210954 1748050452 1415829935 -1607154214 -1507691085 607853883 1221313479 -1794765698 461969 1706233998 -1738772304 142315013 1811657272 -86998553 -706861400 1652657930 1932864356 1343276868 1480027738 -1945912491 -470012017 -315052353
REM
CELL 1.54180  100.00000  100.00000  100.00000   90.00000   90.00000   90.00000
LATT -1
SFAC C  
C      1  0.4614000000000  0.4530600000000  0.5008840000000 1.0
C      1  0.4565420000000  0.5034520000000  0.4650040000000 1.0
C      1  0.5050590000000  0.4601470000000  0.4534530000000 1.0
C      1  0.5361820000000  0.5453350000000  0.5042300000000 1.0
C      1  0.4638470000000  0.5467330000000  0.4999570000000 1.0
C      1  0.5337130000000  0.4557240000000  0.4952590000000 1.0
C      1  0.5466500000000  0.4981680000000  0.4630360000000 1.0
C      1  0.4535890000000  0.4961600000000  0.5373490000000 1.0
C      1  0.5439040000000  0.5045110000000  0.5354680000000 1.0
C      1  0.4960010000000  0.5339690000000  0.4565090000000 1.0
C      1  0.5017810000000  0.5381900000000  0.5492940000000 1.0
C      1  0.4940490000000  0.4666420000000  0.5434700000000 1.0
C      1  0.4541950000000  0.4640720000000  0.5044200000000 1.0
C      1  0.5030280000000  0.4494130000000  0.4613000000000 1.0
C      1  0.4643480000000  0.5000430000000  0.4545290000000 1.0
C      1  0.5466320000000  0.5369990000000  0.5019740000000 1.0
C      1  0.5436430000000  0.4649920000000  0.4956470000000 1.0
C      1  0.4558420000000  0.5365200000000  0.4967730000000 1.0
C      1  0.4960240000000  0.5436810000000  0.4662320000000 1.0
C      1  0.4940480000000  0.4569260000000  0.5337710000000 1.0
C      1  0.5046840000000  0.5463300000000  0.5391170000000 1.0
C      1  0.5362390000000  0.4960730000000  0.4546220000000 1.0
C      1  0.5342300000000  0.5045020000000  0.5449960000000 1.0
C      1  0.4611400000000  0.4992980000000  0.5480100000000 1.0
C      1  0.4914950000000  0.4683560000000  0.4816990000000 1.0
C      1  0.4706180000000  0.4778160000000  0.4895490000000 1.0
C      1  0.4811280000000  0.4867620000000  0.4695910000000 1.0
C      1  0.5112550000000  0.5295950000000  0.4803020000000 1.0
C      1  0.4901130000000  0.5307050000000  0.5230300000000 1.0
C      1  0.5103820000000  0.4702110000000  0.5205640000000 1.0
C      1  0.5317680000000  0.5208390000000  0.4891470000000 1.0
C      1  0.4707800000000  0.5207210000000  0.5122840000000 1.0
C      1  0.5293790000000  0.4805530000000  0.5100540000000 1.0
C      1  0.5214740000000  0.5101940000000  0.4700970000000 1.0
C      1  0.4793850000000  0.5111610000000  0.5328410000000 1.0
C      1  0.5199750000000  0.4901200000000  0.5299790000000 1.0
C      1  0.4714190000000  0.4876780000000  0.4795250000000 1.0
C      1  0.4800290000000  0.4676990000000  0.4899650000000 1.0
C      1  0.4910650000000  0.4768790000000  0.4700880000000 1.0
C      1  0.5317670000000  0.5109480000000  0.4792210000000 1.0
C      1  0.5294280000000  0.4903510000000  0.5199490000000 1.0
C      1  0.4702140000000  0.5108750000000  0.5223190000000 1.0
C      1  0.5214800000000  0.5299700000000  0.4899190000000 1.0
C      1  0.5197870000000  0.4706580000000  0.5101690000000 1.0
C      1  0.4803720000000  0.5308130000000  0.5129570000000 1.0
C      1  0.5112570000000  0.5198320000000  0.4705240000000 1.0
C      1  0.5103810000000  0.4799210000000  0.5302890000000 1.0
C      1  0.4895090000000  0.5209660000000  0.5330880000000 1.0
C      1  0.4470350000000  0.5160190000000  0.5267160000000 1.0
C      1  0.5152850000000  0.5255580000000  0.4473290000000 1.0
C      1  0.5251240000000  0.4474380000000  0.5152940000000 1.0
C      1  0.5526060000000  0.4865520000000  0.5242590000000 1.0
C      1  0.4483620000000  0.4838490000000  0.4734850000000 1.0
C      1  0.5546860000000  0.5167940000000  0.4727040000000 1.0
C      1  0.4860550000000  0.4713130000000  0.4464570000000 1.0
C      1  0.5145530000000  0.4734870000000  0.5536120000000 1.0
C      1  0.4838610000000  0.5267400000000  0.5565080000000 1.0
C      1  0.4751770000000  0.5543250000000  0.5178490000000 1.0
C      1  0.5261710000000  0.5531220000000  0.4851180000000 1.0
C      1  0.4734090000000  0.4440980000000  0.4835990000000 1.0
C      1  0.5144770000000  0.4468440000000  0.5266700000000 1.0
C      1  0.5261370000000  0.5151510000000  0.4469680000000 1.0
C      1  0.4477100000000  0.5266370000000  0.5161460000000 1.0
C      1  0.4855990000000  0.5540160000000  0.5286090000000 1.0
C      1  0.4844750000000  0.4432550000000  0.4732050000000 1.0
C      1  0.5153150000000  0.5528390000000  0.4747230000000 1.0
C      1  0.4756470000000  0.4821750000000  0.4461780000000 1.0
C      1  0.4728820000000  0.5165450000000  0.5562520000000 1.0
C      1  0.5254340000000  0.4845740000000  0.5532160000000 1.0
C      1  0.5525140000000  0.4760610000000  0.5136680000000 1.0
C      1  0.5546950000000  0.5273700000000  0.4833360000000 1.0
C      1  0.4476160000000  0.4732800000000  0.4840920000000 1.0
C      1  0.4976800000000  0.4894360000000  0.5767810000000 1.0
C      1  0.4903030000000  0.5770230000000  0.5016340000000 1.0
C      1  0.5781620000000  0.5017530000000  0.4878610000000 1.0
C      1  0.4991910000000  0.5099270000000  0.5781050000000 1.0
C      1  0.5004820000000  0.5090100000000  0.4230890000000 1.0
C      1  0.5004480000000  0.4882710000000  0.4233450000000 1.0
C      1  0.5085910000000  0.4235510000000  0.5011560000000 1.0
C      1  0.4878460000000  0.4224950000000  0.5000510000000 1.0
C      1  0.5108360000000  0.5771190000000  0.5019910000000 1.0
C      1  0.4242540000000  0.5006560000000  0.4891130000000 1.0
C      1  0.5770940000000  0.5018570000000  0.5085220000000 1.0
C      1  0.4239150000000  0.5006080000000  0.5098360000000 1.0
C      1  0.4880900000000  0.5003080000000  0.5779050000000 1.0
C      1  0.5770490000000  0.4915880000000  0.4981930000000 1.0
C      1  0.5006070000000  0.5771150000000  0.4914200000000 1.0
C      1  0.5089380000000  0.4991160000000  0.5772010000000 1.0
C      1  0.5107580000000  0.4984760000000  0.4230040000000 1.0
C      1  0.4902060000000  0.4987560000000  0.4233470000000 1.0
C      1  0.4245500000000  0.5109390000000  0.4994840000000 1.0
C      1  0.4235890000000  0.4902570000000  0.4995580000000 1.0
C      1  0.5781840000000  0.5122220000000  0.4983830000000 1.0
C      1  0.4989250000000  0.4223700000000  0.4904130000000 1.0
C      1  0.5004830000000  0.5769350000000  0.5121850000000 1.0
C      1  0.4974290000000  0.4238590000000  0.5108600000000 1.0
C      1  0.4559080000000  0.4396000000000  0.5029190000000 1.0
C      1  0.4430710000000  0.5064980000000  0.4599060000000 1.0
C      1  0.5075040000000  0.4572310000000  0.4395640000000 1.0
C      1  0.5406800000000  0.5590570000000  0.5066610000000 1.0
C      1  0.4590100000000  0.5602410000000  0.4977640000000 1.0
C      1  0.5384610000000  0.4417060000000  0.4905890000000 1.0
C      1  0.5600430000000  0.4964870000000  0.4574520000000 1.0
C      1  0.4394970000000  0.4940030000000  0.5411000000000 1.0
C      1  0.5578630000000  0.5095420000000  0.5389390000000 1.0
C      1  0.4911880000000  0.5385850000000  0.4424400000000 1.0
C      1  0.5036420000000  0.5421370000000  0.5630340000000 1.0
C      1  0.4843870000000  0.4650390000000  0.5534690000000 1.0
C      1  0.4400670000000  0.4597420000000  0.5065420000000 1.0
C      1  0.5039970000000  0.4354990000000  0.4574050000000 1.0
C      1  0.4593250000000  0.5023720000000  0.4411080000000 1.0
C      1  0.5600140000000  0.5426030000000  0.5036730000000 1.0
C      1  0.5575220000000  0.4613350000000  0.4905690000000 1.0
C      1  0.4423440000000  0.5410330000000  0.4938570000000 1.0
C      1  0.4912600000000  0.5578420000000  0.4617800000000 1.0
C      1  0.4843240000000  0.4469720000000  0.5353480000000 1.0
C      1  0.5072360000000  0.5600530000000  0.5427990000000 1.0
C      1  0.5407270000000  0.4937760000000  0.4408710000000 1.0
C      1  0.5388850000000  0.5094030000000  0.5588850000000 1.0
C      1  0.4558250000000  0.4972620000000  0.5615150000000 1.0
C      1  0.4870490000000  0.5270710000000  0.4341530000000 1.0
C      1  0.5270220000000  0.4332400000000  0.4872660000000 1.0
C      1  0.4323940000000  0.4878640000000  0.5301230000000 1.0
C      1  0.5135850000000  0.4686540000000  0.4333840000000 1.0
C      1  0.4833670000000  0.4731310000000  0.5649350000000 1.0
C      1  0.5109180000000  0.5311620000000  0.5694170000000 1.0
C      1  0.4692930000000  0.5673310000000  0.4901900000000 1.0
C      1  0.5305160000000  0.5660800000000  0.5139110000000 1.0
C      1  0.4659690000000  0.4312810000000  0.5097710000000 1.0
C      1  0.5660430000000  0.5142530000000  0.5273580000000 1.0
C      1  0.4354870000000  0.5130890000000  0.4700180000000 1.0
C      1  0.5675390000000  0.4893210000000  0.4676080000000 1.0
C      1  0.5305480000000  0.4865010000000  0.4338870000000 1.0
C      1  0.4351480000000  0.5305310000000  0.4873870000000 1.0
C      1  0.4831950000000  0.4355540000000  0.5272120000000 1.0
C      1  0.4693020000000  0.5100050000000  0.4336080000000 1.0
C      1  0.4661280000000  0.4904510000000  0.5695210000000 1.0
C      1  0.5274980000000  0.5129210000000  0.5674190000000 1.0
C      1  0.5658210000000  0.4728380000000  0.4858070000000 1.0
C      1  0.5675540000000  0.5324580000000  0.5108330000000 1.0
C      1  0.4326780000000  0.4704680000000  0.5126480000000 1.0
C      1  0.5134290000000  0.5666270000000  0.5317040000000 1.0
C      1  0.5109350000000  0.4297590000000  0.4688940000000 1.0
C      1  0.4871700000000  0.5661650000000  0.4733020000000 1.0
C      1  0.4512130000000  0.4727590000000  0.5457280000000 1.0
C      1  0.4775820000000  0.5439470000000  0.4467660000000 1.0
C      1  0.5435460000000  0.4460960000000  0.4770430000000 1.0
C      1  0.5535100000000  0.5231660000000  0.5444510000000 1.0
C      1  0.4575550000000  0.5342690000000  0.4560120000000 1.0
C      1  0.5543600000000  0.4660780000000  0.4669070000000 1.0
C      1  0.5334550000000  0.4547500000000  0.4568090000000 1.0
C      1  0.4715100000000  0.4611010000000  0.5489570000000 1.0
C      1  0.5333650000000  0.5324260000000  0.5556450000000 1.0
C      1  0.4679170000000  0.5547390000000  0.4669640000000 1.0
C      1  0.5438090000000  0.5429800000000  0.5350870000000 1.0
C      1  0.4619720000000  0.4468240000000  0.5296100000000 1.0
C      1  0.4714860000000  0.4515260000000  0.5393020000000 1.0
C      1  0.5437570000000  0.4649380000000  0.4569490000000 1.0
C      1  0.4574920000000  0.5445930000000  0.4662150000000 1.0
C      1  0.5335240000000  0.5428920000000  0.5452710000000 1.0
C      1  0.5330980000000  0.4445650000000  0.4674900000000 1.0
C      1  0.4776060000000  0.5536470000000  0.4564380000000 1.0
C      1  0.4679030000000  0.5334110000000  0.4458120000000 1.0
C      1  0.4619960000000  0.4707020000000  0.5538160000000 1.0
C      1  0.5439910000000  0.5229770000000  0.5543410000000 1.0
C      1  0.5532310000000  0.4558450000000  0.4768770000000 1.0
C      1  0.5544640000000  0.5330880000000  0.5340960000000 1.0
C      1  0.4513650000000  0.4551100000000  0.5275900000000 1.0
C      1  0.4312570000000  0.4690470000000  0.4570540000000 1.0
C      1  0.4696940000000  0.4551910000000  0.4293580000000 1.0
C      1  0.4559050000000  0.4282830000000  0.4670870000000 1.0
C      1  0.5700970000000  0.5335090000000  0.4560310000000 1.0
C      1  0.4300390000000  0.5324480000000  0.5419970000000 1.0
C      1  0.5699290000000  0.4710120000000  0.5399620000000 1.0
C      1  0.5295880000000  0.5426210000000  0.4302350000000 1.0
C      1  0.4668840000000  0.5430100000000  0.5726140000000 1.0
C      1  0.5365160000000  0.4594830000000  0.5702370000000 1.0
C      1  0.5405720000000  0.5705280000000  0.4687430000000 1.0
C      1  0.4592000000000  0.5711440000000  0.5340910000000 1.0
C      1  0.5455990000000  0.4322090000000  0.5288060000000 1.0
C      1  0.4668880000000  0.4272740000000  0.4572780000000 1.0
C      1  0.4594030000000  0.4661500000000  0.4292100000000 1.0
C      1  0.4305120000000  0.4582070000000  0.4679140000000 1.0
C      1  0.5296790000000  0.5700200000000  0.4577800000000 1.0
C      1  0.5363760000000  0.4299950000000  0.5402450000000 1.0
C      1  0.4695010000000  0.5707330000000  0.5450130000000 1.0
C      1  0.5404810000000  0.5316900000000  0.4296110000000 1.0
C      1  0.5458350000000  0.4709040000000  0.5681780000000 1.0
C      1  0.4558240000000  0.5332400000000  0.5719600000000 1.0
C      1  0.5701140000000  0.5440870000000  0.4666610000000 1.0
C      1  0.5698580000000  0.4602340000000  0.5290480000000 1.0
C      1  0.4308000000000  0.5432070000000  0.5312170000000 1.0
C      1  0.5336140000000  0.5564940000000  0.4544470000000 1.0
C      1  0.5559830000000  0.4571930000000  0.5321650000000 1.0
C      1  0.4537070000000  0.5356470000000  0.5576730000000 1.0
C      1  0.4655480000000  0.4415350000000  0.4537990000000 1.0
C      1  0.5358790000000  0.4444970000000  0.5442370000000 1.0
C      1  0.4659450000000  0.5569060000000  0.5477480000000 1.0
C      1  0.4444080000000  0.5465420000000  0.5353670000000 1.0
C      1  0.5558940000000  0.5467640000000  0.4644090000000 1.0
C      1  0.4439970000000  0.4538410000000  0.4644850000000 1.0
C      1  0.5464500000000  0.4673970000000  0.5541380000000 1.0
C      1  0.4558550000000  0.4637810000000  0.4432510000000 1.0
C      1  0.5447060000000  0.5352520000000  0.4431270000000 1.0
C      1  0.5558750000000  0.5358040000000  0.4533870000000 1.0
C      1  0.4554510000000  0.5570800000000  0.5362420000000 1.0
C      1  0.5359430000000  0.4557270000000  0.5556740000000 1.0
C      1  0.4448350000000  0.4647510000000  0.4537090000000 1.0
C      1  0.4435630000000  0.5357250000000  0.5463310000000 1.0
C      1  0.5560740000000  0.4679060000000  0.5430660000000 1.0
C      1  0.5462540000000  0.4461950000000  0.5324670000000 1.0
C      1  0.5447500000000  0.5570390000000  0.4650470000000 1.0
C      1  0.4540680000000  0.4425260000000  0.4644980000000 1.0
C      1  0.4652230000000  0.5462730000000  0.5583590000000 1.0
C      1  0.4663270000000  0.4522700000000  0.4432370000000 1.0
C      1  0.5335860000000  0.5458690000000  0.4437660000000 1.0
C      1  0.4778040000000  0.4934070000000  0.4562800000000 1.0
C      1  0.4973340000000  0.4503660000000  0.4746560000000 1.0
C      1  0.4568930000000  0.4764220000000  0.4957880000000 1.0
C      1  0.5234190000000  0.5037670000000  0.4567280000000 1.0
C      1  0.4752360000000  0.5048910000000  0.5464000000000 1.0
C      1  0.5220650000000  0.4962000000000  0.5436330000000 1.0
C      1  0.5044440000000  0.5427500000000  0.4783160000000 1.0
C      1  0.4974320000000  0.5439630000000  0.5255800000000 1.0
C      1  0.5036730000000  0.4569800000000  0.5225590000000 1.0
C      1  0.5453410000000  0.5241590000000  0.4945450000000 1.0
C      1  0.4578080000000  0.5231530000000  0.5044120000000 1.0
C      1  0.5422790000000  0.4780010000000  0.5026290000000 1.0
C      1  0.4979960000000  0.4738010000000  0.4565870000000 1.0
C      1  0.4582360000000  0.4948980000000  0.4774070000000 1.0
C      1  0.4755240000000  0.4540390000000  0.4954050000000 1.0
C      1  0.5044440000000  0.5218530000000  0.4573910000000 1.0
C      1  0.5036880000000  0.4778380000000  0.5434710000000 1.0
C      1  0.4953040000000  0.5245430000000  0.5468310000000 1.0
C      1  0.5453430000000  0.5055680000000  0.4759050000000 1.0
C      1  0.5423860000000  0.4976730000000  0.5224100000000 1.0
C      1  0.4566390000000  0.5037040000000  0.5240630000000 1.0
C      1  0.5234040000000  0.5433110000000  0.4963890000000 1.0
C      1  0.5214460000000  0.4571380000000  0.5034160000000 1.0
C      1  0.4773900000000  0.5444410000000  0.5064280000000 1.0
C      1  0.5714180000000  0.5029610000000  0.5210270000000 1.0
C      1  0.5000890000000  0.5234190000000  0.5747580000000 1.0
C      1  0.5234250000000  0.5716450000000  0.5027200000000 1.0
C      1  0.4280880000000  0.4995430000000  0.5229290000000 1.0
C      1  0.5732650000000  0.5004870000000  0.4748790000000 1.0
C      1  0.4298190000000  0.5015300000000  0.4765120000000 1.0
C      1  0.4958000000000  0.4769800000000  0.5704640000000 1.0
C      1  0.5019910000000  0.4753440000000  0.4278670000000 1.0
C      1  0.4987720000000  0.5215510000000  0.4286010000000 1.0
C      1  0.4742870000000  0.4256810000000  0.4995780000000 1.0
C      1  0.5214360000000  0.4285450000000  0.4994680000000 1.0
C      1  0.4772780000000  0.5724920000000  0.5009330000000 1.0
C      1  0.5018820000000  0.5724190000000  0.5251410000000 1.0
C      1  0.5218830000000  0.5006800000000  0.5722270000000 1.0
C      1  0.5732750000000  0.5252000000000  0.4996630000000 1.0
C      1  0.4956080000000  0.4300790000000  0.5233150000000 1.0
C      1  0.4988980000000  0.5716610000000  0.4788500000000 1.0
C      1  0.4999630000000  0.4248780000000  0.4768050000000 1.0
C      1  0.4745000000000  0.5007860000000  0.5748030000000 1.0
C      1  0.4772790000000  0.4993670000000  0.4281650000000 1.0
C      1  0.5233690000000  0.4976910000000  0.4284280000000 1.0
C      1  0.4283360000000  0.4773650000000  0.5007880000000 1.0
C      1  0.4294750000000  0.5237810000000  0.4987580000000 1.0
C      1  0.5712430000000  0.4791480000000  0.4970780000000 1.0
C      1  0.5250770000000  0.4632820000000  0.5474830000000 1.0
C      1  0.4645330000000  0.5477010000000  0.5276420000000 1.0
C      1  0.5474310000000  0.5265550000000  0.4627120000000 1.0
C      1  0.4742760000000  0.5372970000000  0.5496040000000 1.0
C      1  0.5252940000000  0.5363100000000  0.4534940000000 1.0
C      1  0.4756980000000  0.4609340000000  0.4526380000000 1.0
C      1  0.5352970000000  0.4545570000000  0.5250070000000 1.0
C      1  0.4636230000000  0.4511260000000  0.4734490000000 1.0
C      1  0.5365000000000  0.5472530000000  0.4743860000000 1.0
C      1  0.4545970000000  0.4732550000000  0.4630450000000 1.0
C      1  0.5456720000000  0.4761880000000  0.5348150000000 1.0
C      1  0.4533380000000  0.5262240000000  0.5377350000000 1.0
C      1  0.4629520000000  0.5265890000000  0.5490600000000 1.0
C      1  0.5455710000000  0.4655920000000  0.5240040000000 1.0
C      1  0.5253090000000  0.5467170000000  0.4639450000000 1.0
C      1  0.5355010000000  0.4749820000000  0.5459750000000 1.0
C      1  0.5364680000000  0.5258560000000  0.4528860000000 1.0
C      1  0.4650330000000  0.4723050000000  0.4525990000000 1.0
C      1  0.4541010000000  0.5371740000000  0.5267610000000 1.0
C      1  0.4538840000000  0.4623560000000  0.4739010000000 1.0
C      1  0.5474430000000  0.5374090000000  0.4736190000000 1.0
C      1  0.4748110000000  0.4502610000000  0.4627690000000 1.0
C      1  0.4751750000000  0.5475470000000  0.5389500000000 1.0
C      1  0.5250370000000  0.4528440000000  0.5368380000000 1.0
C      1  0.5095660000000  0.5454260000000  0.5025650000000 1.0
C      1  0.5442040000000  0.5081980000000  0.5130160000000 1.0
C      1  0.5054510000000  0.5149510000000  0.5461350000000 1.0
C      1  0.4850400000000  0.4538300000000  0.5058160000000 1.0
C      1  0.5072640000000  0.4551920000000  0.4978960000000 1.0
C      1  0.4864050000000  0.5451450000000  0.4956080000000 1.0
C      1  0.4552200000000  0.4933340000000  0.5144850000000 1.0
C      1  0.5470660000000  0.4999010000000  0.4898920000000 1.0
C      1  0.4558220000000  0.5006530000000  0.4913190000000 1.0
C      1  0.4981260000000  0.4919580000000  0.5461000000000 1.0
C      1  0.5078050000000  0.4840270000000  0.4549030000000 1.0
C      1  0.4993750000000  0.5074320000000  0.4548420000000 1.0
C      1  0.5470690000000  0.5101690000000  0.5002220000000 1.0
C      1  0.5075880000000  0.5453050000000  0.5157990000000 1.0
C      1  0.5080410000000  0.5019200000000  0.5460390000000 1.0
C      1  0.4551090000000  0.4905350000000  0.5014560000000 1.0
C      1  0.4560970000000  0.5137390000000  0.4939660000000 1.0
C      1  0.5441040000000  0.4871320000000  0.4919020000000 1.0
C      1  0.4981150000000  0.4543270000000  0.5084350000000 1.0
C      1  0.4992930000000  0.5453420000000  0.4926230000000 1.0
C      1  0.5018930000000  0.4584020000000  0.4850560000000 1.0
C      1  0.4849910000000  0.4946310000000  0.5460980000000 1.0
C      1  0.4865250000000  0.5044330000000  0.4552720000000 1.0
C      1  0.5096000000000  0.4973390000000  0.4547090000000 1.0
C      1  0.4921510000000  0.4278100000000  0.4549060000000 1.0
C      1  0.4336560000000  0.4557230000000  0.4939060000000 1.0
C      1  0.4562490000000  0.4907960000000  0.4327940000000 1.0
C      1  0.5036930000000  0.5656170000000  0.4566870000000 1.0
C      1  0.4954890000000  0.5675760000000  0.5469320000000 1.0
C      1  0.5152420000000  0.4252650000000  0.5381210000000 1.0
C      1  0.5675520000000  0.5465480000000  0.4919530000000 1.0
C      1  0.4353000000000  0.5454170000000  0.5057370000000 1.0
C      1  0.5660870000000  0.4573250000000  0.5032520000000 1.0
C      1  0.5444490000000  0.5060190000000  0.4334750000000 1.0
C      1  0.4522190000000  0.5084510000000  0.5694150000000 1.0
C      1  0.5444710000000  0.4969940000000  0.5653710000000 1.0
C      1  0.4362290000000  0.4946360000000  0.4549400000000 1.0
C      1  0.4520690000000  0.4316600000000  0.4918250000000 1.0
C      1  0.4958050000000  0.4534950000000  0.4316380000000 1.0
C      1  0.5675540000000  0.5082140000000  0.4535220000000 1.0
C      1  0.5663110000000  0.4968450000000  0.5429600000000 1.0
C      1  0.4327670000000  0.5065730000000  0.5445890000000 1.0
C      1  0.5444800000000  0.5664680000000  0.4944330000000 1.0
C      1  0.5442760000000  0.4354700000000  0.5028310000000 1.0
C      1  0.4560040000000  0.5684530000000  0.5093620000000 1.0
C      1  0.5036140000000  0.5436780000000  0.4347270000000 1.0
C      1  0.5153350000000  0.4618550000000  0.5750550000000 1.0
C      1  0.4921400000000  0.5451650000000  0.5714410000000 1.0
C      1  0.5743540000000  0.5439800000000  0.4804170000000 1.0
C      1  0.5437050000000  0.4850120000000  0.5713690000000 1.0
C      1  0.4836660000000  0.5740130000000  0.5451210000000 1.0
C      1  0.4269890000000  0.4583710000000  0.4819630000000 1.0
C      1  0.5726040000000  0.4595620000000  0.5149000000000 1.0
C      1  0.4279280000000  0.5430150000000  0.5170980000000 1.0
C      1  0.4561160000000  0.5193830000000  0.5760060000000 1.0
C      1  0.5408870000000  0.5175940000000  0.4264540000000 1.0
C      1  0.4596950000000  0.4798800000000  0.4255170000000 1.0
C      1  0.5262740000000  0.4209050000000  0.5431930000000 1.0
C      1  0.4802740000000  0.4221050000000  0.4585500000000 1.0
C      1  0.5153540000000  0.5723670000000  0.4578830000000 1.0
C      1  0.5409800000000  0.5735760000000  0.4828650000000 1.0
C      1  0.4804110000000  0.5418310000000  0.5773840000000 1.0
C      1  0.5727030000000  0.4851750000000  0.5406670000000 1.0
C      1  0.4560960000000  0.4247340000000  0.4811120000000 1.0
C      1  0.4596260000000  0.5752900000000  0.5204670000000 1.0
C      1  0.5432750000000  0.4292510000000  0.5146690000000 1.0
C      1  0.5263130000000  0.4565170000000  0.5792250000000 1.0
C      1  0.5152530000000  0.5425120000000  0.4279220000000 1.0
C      1  0.4837540000000  0.4551330000000  0.4258190000000 1.0
C      1  0.4263520000000  0.5184120000000  0.5418670000000 1.0
C      1  0.4286090000000  0.4831800000000  0.4572710000000 1.0
C      1  0.5743400000000  0.5197520000000  0.4560940000000 1.0
C      1  0.5299600000000  0.4896800000000  0.5668470000000 1.0
C      1  0.4899810000000  0.5681230000000  0.5323510000000 1.0
C      1  0.5683930000000  0.5317540000000  0.4876020000000 1.0
C      1  0.4687260000000  0.5132040000000  0.5704330000000 1.0
C      1  0.5295640000000  0.5102280000000  0.4330050000000 1.0
C      1  0.4714670000000  0.4868250000000  0.4324120000000 1.0
C      1  0.5079040000000  0.4337100000000  0.5303970000000 1.0
C      1  0.4876830000000  0.4288770000000  0.4700400000000 1.0
C      1  0.5100640000000  0.5665300000000  0.4709450000000 1.0
C      1  0.4333250000000  0.4702850000000  0.4888360000000 1.0
C      1  0.5662870000000  0.4720020000000  0.5086730000000 1.0
C      1  0.4338070000000  0.5305450000000  0.5109730000000 1.0
C      1  0.4878940000000  0.5301730000000  0.5706270000000 1.0
C      1  0.5664550000000  0.4913860000000  0.5282010000000 1.0
C      1  0.5296160000000  0.5670540000000  0.4901740000000 1.0
C      1  0.5080240000000  0.4697650000000  0.5667430000000 1.0
C      1  0.5099740000000  0.5294310000000  0.4336880000000 1.0
C      1  0.4902490000000  0.4679530000000  0.4321910000000 1.0
C      1  0.4326490000000  0.5116200000000  0.5298280000000 1.0
C      1  0.4346760000000  0.4894810000000  0.4695500000000 1.0
C      1  0.5683910000000  0.5125510000000  0.4683210000000 1.0
C      1  0.4688400000000  0.4300030000000  0.4870330000000 1.0
C      1  0.4712440000000  0.5682350000000  0.5133690000000 1.0
C      1  0.5295520000000  0.4338010000000  0.5103840000000 1.0
C      1  0.4735350000000  0.5639750000000  0.4770780000000 1.0
C      1  0.5233170000000  0.4348830000000  0.4736230000000 1.0
C      1  0.5265220000000  0.4732380000000  0.4369200000000 1.0
C      1  0.4694320000000  0.4354820000000  0.5226620000000 1.0
C      1  0.4384820000000  0.5261270000000  0.4744330000000 1.0
C      1  0.4734630000000  0.5232160000000  0.4366370000000 1.0
C      1  0.5237130000000  0.5266190000000  0.5654130000000 1.0
C      1  0.4695830000000  0.4776250000000  0.5651030000000 1.0
C      1  0.5263330000000  0.5629690000000  0.5271050000000 1.0
C      1  0.5638250000000  0.4762700000000  0.4720930000000 1.0
C      1  0.4356790000000  0.4746770000000  0.5259190000000 1.0
C      1  0.5639250000000  0.5279440000000  0.5238980000000 1.0
C      1  0.4462090000000  0.4670760000000  0.5335530000000 1.0
C      1  0.4491290000000  0.5332860000000  0.4672850000000 1.0
C      1  0.5333300000000  0.4658520000000  0.4476850000000 1.0
C      1  0.5331140000000  0.5520700000000  0.5343240000000 1.0
END
