TITL C-1379267-1329-330 -2.76984048233437e-07 1000000 -3479.78872821149 0 0 480 (C1) n - 1
REM
REM in /nfs/bkarasulu/CARBON/AIRSS/Generating-Clusters/GAP-ML-2020/Higher-Symm/Selected-Sizes/TryA-Only_Ih-Symm/Larger-Clusters/Try2-MINAMP_6A
REM
REM
REM
REM
REM
REM ./C.cell (31579ac4e95a012ec27f3239692ae8a5)
REM
REM compiler GCC version 9.2.1 20190827 (Red Hat 9.2.1-1)
REM options -cpp -mtune=generic -march=x86-64 -g -O0 -fpre-include=/usr/include/finclude/math-vector-fortran.h
REM seed -1263880027 269301699 1249809020 737287536 1923067554 -1955779304 1054092372 736026614 988229038 941429930 -420482813 -739357327 1218791742 -920666440 1149679442 8807596 2093090010 -1298774184 1960628798 -2066848753 1730591581 -1779946762 1260732979 1144887419 1350352264 65513430 904355336 -363097952 -354796990 -211594190 848001148 2136133 -853858176
REM
CELL 1.54180  100.00000  100.00000  100.00000   90.00000   90.00000   90.00000
LATT -1
SFAC C  
C      1  0.4763940000000  0.5469550000000  0.5144820000000 1.0
C      1  0.5141420000000  0.4740520000000  0.5498750000000 1.0
C      1  0.5466430000000  0.5151950000000  0.4762500000000 1.0
C      1  0.5296020000000  0.4547170000000  0.5240850000000 1.0
C      1  0.5240660000000  0.5473190000000  0.4814060000000 1.0
C      1  0.4765670000000  0.4539200000000  0.4829920000000 1.0
C      1  0.4822300000000  0.5233280000000  0.5451920000000 1.0
C      1  0.4799490000000  0.4756390000000  0.4581570000000 1.0
C      1  0.5212190000000  0.5256140000000  0.4572230000000 1.0
C      1  0.4527440000000  0.4843630000000  0.4766220000000 1.0
C      1  0.4580470000000  0.5198670000000  0.5228740000000 1.0
C      1  0.5481470000000  0.4823870000000  0.5255450000000 1.0
C      1  0.4755480000000  0.5486690000000  0.4815290000000 1.0
C      1  0.5150540000000  0.4753280000000  0.4525580000000 1.0
C      1  0.5408490000000  0.5181590000000  0.5233030000000 1.0
C      1  0.5278030000000  0.4560870000000  0.4790890000000 1.0
C      1  0.5232020000000  0.5458760000000  0.5146260000000 1.0
C      1  0.4768670000000  0.4532110000000  0.5175340000000 1.0
C      1  0.4775300000000  0.5277170000000  0.4567770000000 1.0
C      1  0.4797420000000  0.4730750000000  0.5433190000000 1.0
C      1  0.5163820000000  0.5218940000000  0.5450160000000 1.0
C      1  0.4526820000000  0.4854220000000  0.5237970000000 1.0
C      1  0.4520480000000  0.5174130000000  0.4759120000000 1.0
C      1  0.5479510000000  0.4815870000000  0.4760530000000 1.0
C      1  0.5072040000000  0.4923830000000  0.6069090000000 1.0
C      1  0.6066270000000  0.5090100000000  0.4929330000000 1.0
C      1  0.4929050000000  0.6069690000000  0.5087140000000 1.0
C      1  0.4925150000000  0.5070370000000  0.6062910000000 1.0
C      1  0.4923710000000  0.4925720000000  0.3946760000000 1.0
C      1  0.5071500000000  0.5072250000000  0.3945270000000 1.0
C      1  0.3937050000000  0.4929250000000  0.4930460000000 1.0
C      1  0.3942540000000  0.5076510000000  0.5077400000000 1.0
C      1  0.6073520000000  0.4943410000000  0.5076190000000 1.0
C      1  0.5076700000000  0.3927220000000  0.5071580000000 1.0
C      1  0.5075720000000  0.6076020000000  0.4939880000000 1.0
C      1  0.4930220000000  0.3930540000000  0.4924180000000 1.0
C      1  0.5071190000000  0.4925650000000  0.3943400000000 1.0
C      1  0.6062070000000  0.5090370000000  0.5076010000000 1.0
C      1  0.4929080000000  0.6078330000000  0.4940090000000 1.0
C      1  0.4923710000000  0.5072150000000  0.3946870000000 1.0
C      1  0.4924880000000  0.4923680000000  0.6065960000000 1.0
C      1  0.5072350000000  0.5070680000000  0.6064140000000 1.0
C      1  0.3940210000000  0.4928920000000  0.5077010000000 1.0
C      1  0.3937500000000  0.5076740000000  0.4931100000000 1.0
C      1  0.6076040000000  0.4943150000000  0.4929460000000 1.0
C      1  0.5076900000000  0.3929740000000  0.4924060000000 1.0
C      1  0.5075750000000  0.6067430000000  0.5087040000000 1.0
C      1  0.4930090000000  0.3928350000000  0.5071420000000 1.0
C      1  0.4417170000000  0.4406010000000  0.5259140000000 1.0
C      1  0.5261500000000  0.4430800000000  0.4433010000000 1.0
C      1  0.4404080000000  0.5266960000000  0.4410100000000 1.0
C      1  0.5580270000000  0.5582930000000  0.5255090000000 1.0
C      1  0.5594480000000  0.4406700000000  0.4744010000000 1.0
C      1  0.4406900000000  0.5607510000000  0.4731280000000 1.0
C      1  0.4738860000000  0.5592970000000  0.4407740000000 1.0
C      1  0.4735960000000  0.4403920000000  0.5594670000000 1.0
C      1  0.5257650000000  0.5577410000000  0.5579870000000 1.0
C      1  0.5605090000000  0.4731620000000  0.4413700000000 1.0
C      1  0.5577030000000  0.5257460000000  0.5581190000000 1.0
C      1  0.4427050000000  0.4740150000000  0.5567380000000 1.0
C      1  0.4417870000000  0.4412640000000  0.4742030000000 1.0
C      1  0.5259040000000  0.4420170000000  0.5578810000000 1.0
C      1  0.4410170000000  0.5262460000000  0.5589080000000 1.0
C      1  0.5588200000000  0.5596240000000  0.4732720000000 1.0
C      1  0.5594610000000  0.4397610000000  0.5259470000000 1.0
C      1  0.4415910000000  0.5591570000000  0.5257220000000 1.0
C      1  0.4742030000000  0.5580230000000  0.5583370000000 1.0
C      1  0.4736880000000  0.4409160000000  0.4412150000000 1.0
C      1  0.5258010000000  0.5584840000000  0.4412080000000 1.0
C      1  0.5585580000000  0.4738140000000  0.5570860000000 1.0
C      1  0.5583710000000  0.5255460000000  0.4415610000000 1.0
C      1  0.4404760000000  0.4738090000000  0.4414670000000 1.0
C      1  0.5949850000000  0.5143430000000  0.5136010000000 1.0
C      1  0.5137520000000  0.5957260000000  0.5141200000000 1.0
C      1  0.5134700000000  0.5132070000000  0.5957220000000 1.0
C      1  0.4045590000000  0.4865920000000  0.5137620000000 1.0
C      1  0.4041120000000  0.5138340000000  0.4865730000000 1.0
C      1  0.5975900000000  0.4874530000000  0.4863880000000 1.0
C      1  0.4866710000000  0.4033390000000  0.5134210000000 1.0
C      1  0.4863080000000  0.5978310000000  0.4872140000000 1.0
C      1  0.5140630000000  0.4036320000000  0.4863940000000 1.0
C      1  0.4865330000000  0.4858800000000  0.5959970000000 1.0
C      1  0.4862430000000  0.5134800000000  0.4052880000000 1.0
C      1  0.5134700000000  0.4861020000000  0.4046160000000 1.0
C      1  0.5958460000000  0.5143770000000  0.4863680000000 1.0
C      1  0.5138680000000  0.5973990000000  0.4871710000000 1.0
C      1  0.5134070000000  0.5133700000000  0.4051870000000 1.0
C      1  0.4041740000000  0.4868050000000  0.4865520000000 1.0
C      1  0.4051340000000  0.5136990000000  0.5136570000000 1.0
C      1  0.5972850000000  0.4873960000000  0.5138950000000 1.0
C      1  0.4866450000000  0.4036840000000  0.4864220000000 1.0
C      1  0.4864420000000  0.5961170000000  0.5141150000000 1.0
C      1  0.5140210000000  0.4031880000000  0.5135110000000 1.0
C      1  0.4864430000000  0.4863280000000  0.4054300000000 1.0
C      1  0.4864450000000  0.5131880000000  0.5955910000000 1.0
C      1  0.5134810000000  0.4857880000000  0.5966620000000 1.0
C      1  0.5473140000000  0.4370810000000  0.5424660000000 1.0
C      1  0.5423390000000  0.5466670000000  0.4378660000000 1.0
C      1  0.4387180000000  0.5425650000000  0.5463670000000 1.0
C      1  0.4534120000000  0.5623660000000  0.5424070000000 1.0
C      1  0.4526500000000  0.4372110000000  0.4573260000000 1.0
C      1  0.5471930000000  0.5627530000000  0.4566210000000 1.0
C      1  0.4573000000000  0.4532710000000  0.4386180000000 1.0
C      1  0.4572600000000  0.5472620000000  0.5625080000000 1.0
C      1  0.5424750000000  0.4534040000000  0.5611280000000 1.0
C      1  0.5622050000000  0.4570490000000  0.5458070000000 1.0
C      1  0.5620440000000  0.5424660000000  0.4530070000000 1.0
C      1  0.4374260000000  0.4571930000000  0.4533830000000 1.0
C      1  0.5477600000000  0.4374150000000  0.4578100000000 1.0
C      1  0.5427880000000  0.5473780000000  0.5627310000000 1.0
C      1  0.4374580000000  0.5434070000000  0.4529650000000 1.0
C      1  0.4525590000000  0.5635770000000  0.4565650000000 1.0
C      1  0.4531440000000  0.4371730000000  0.5426030000000 1.0
C      1  0.5467780000000  0.5623840000000  0.5424570000000 1.0
C      1  0.4572610000000  0.4525370000000  0.5620580000000 1.0
C      1  0.4572290000000  0.5474830000000  0.4376430000000 1.0
C      1  0.5434040000000  0.4530800000000  0.4381810000000 1.0
C      1  0.5634660000000  0.4566510000000  0.4533230000000 1.0
C      1  0.5612060000000  0.5423190000000  0.5463320000000 1.0
C      1  0.4377640000000  0.4568160000000  0.5465390000000 1.0
C      1  0.5266940000000  0.5228820000000  0.5223440000000 1.0
C      1  0.5258930000000  0.5322110000000  0.5121460000000 1.0
C      1  0.5159830000000  0.5247940000000  0.5311510000000 1.0
C      1  0.4651730000000  0.4852030000000  0.5299750000000 1.0
C      1  0.4657250000000  0.5155920000000  0.4726570000000 1.0
C      1  0.5340180000000  0.4810890000000  0.4730190000000 1.0
C      1  0.4737230000000  0.4671050000000  0.5178350000000 1.0
C      1  0.4727880000000  0.5347620000000  0.4816860000000 1.0
C      1  0.5263190000000  0.4696200000000  0.4738100000000 1.0
C      1  0.4740020000000  0.4743920000000  0.5296940000000 1.0
C      1  0.4744450000000  0.5261200000000  0.4710710000000 1.0
C      1  0.5152060000000  0.4695980000000  0.4653040000000 1.0
C      1  0.5328770000000  0.5130410000000  0.4733130000000 1.0
C      1  0.5265360000000  0.5333300000000  0.4816530000000 1.0
C      1  0.5246530000000  0.5240870000000  0.4714840000000 1.0
C      1  0.4663230000000  0.4866420000000  0.4734150000000 1.0
C      1  0.4724370000000  0.5240170000000  0.5220510000000 1.0
C      1  0.5365050000000  0.4791010000000  0.5328490000000 1.0
C      1  0.4740390000000  0.4678820000000  0.4835170000000 1.0
C      1  0.4734330000000  0.5333630000000  0.5118930000000 1.0
C      1  0.5295580000000  0.4666420000000  0.5322310000000 1.0
C      1  0.4757240000000  0.4765780000000  0.4726390000000 1.0
C      1  0.4829080000000  0.5257210000000  0.5311940000000 1.0
C      1  0.5168020000000  0.4667400000000  0.5383150000000 1.0
C      1  0.5174190000000  0.5392320000000  0.5702080000000 1.0
C      1  0.5701980000000  0.5168910000000  0.5401310000000 1.0
C      1  0.5401380000000  0.5710140000000  0.5170190000000 1.0
C      1  0.4824550000000  0.4581190000000  0.5722760000000 1.0
C      1  0.4828320000000  0.5398970000000  0.4303290000000 1.0
C      1  0.5177450000000  0.4600170000000  0.4294770000000 1.0
C      1  0.4295410000000  0.4824170000000  0.5394040000000 1.0
C      1  0.4273060000000  0.5183280000000  0.4589670000000 1.0
C      1  0.5729040000000  0.4819900000000  0.4595640000000 1.0
C      1  0.4601710000000  0.4284400000000  0.5174550000000 1.0
C      1  0.4589830000000  0.5735540000000  0.4816930000000 1.0
C      1  0.5401850000000  0.4295490000000  0.4833180000000 1.0
C      1  0.5167430000000  0.5391720000000  0.4307200000000 1.0
C      1  0.5714830000000  0.5172210000000  0.4593870000000 1.0
C      1  0.5405470000000  0.5723960000000  0.4818120000000 1.0
C      1  0.4827230000000  0.4590700000000  0.4292520000000 1.0
C      1  0.4825990000000  0.5395850000000  0.5704550000000 1.0
C      1  0.5176320000000  0.4595560000000  0.5715660000000 1.0
C      1  0.4277480000000  0.4824190000000  0.4594430000000 1.0
C      1  0.4293180000000  0.5173320000000  0.5404020000000 1.0
C      1  0.5714050000000  0.4823330000000  0.5393490000000 1.0
C      1  0.4601100000000  0.4288400000000  0.4826060000000 1.0
C      1  0.4594620000000  0.5720260000000  0.5172050000000 1.0
C      1  0.5401650000000  0.4290120000000  0.5170450000000 1.0
C      1  0.4931250000000  0.4125350000000  0.4770030000000 1.0
C      1  0.4770610000000  0.4927250000000  0.4144200000000 1.0
C      1  0.4131700000000  0.4772830000000  0.4928660000000 1.0
C      1  0.5071840000000  0.5891270000000  0.4773540000000 1.0
C      1  0.5075310000000  0.4117610000000  0.5231800000000 1.0
C      1  0.4928780000000  0.5865170000000  0.5228870000000 1.0
C      1  0.5228430000000  0.5067530000000  0.4139130000000 1.0
C      1  0.5231660000000  0.4922040000000  0.5879380000000 1.0
C      1  0.4770380000000  0.5065850000000  0.5867980000000 1.0
C      1  0.5862680000000  0.5232900000000  0.4926470000000 1.0
C      1  0.5892180000000  0.4773430000000  0.5072100000000 1.0
C      1  0.4139490000000  0.5230920000000  0.5070260000000 1.0
C      1  0.4931210000000  0.4118720000000  0.5231750000000 1.0
C      1  0.4771890000000  0.4922060000000  0.5869500000000 1.0
C      1  0.4133710000000  0.4771550000000  0.5070210000000 1.0
C      1  0.5070890000000  0.5862460000000  0.5228400000000 1.0
C      1  0.5075100000000  0.4125890000000  0.4771430000000 1.0
C      1  0.4927420000000  0.5894460000000  0.4773050000000 1.0
C      1  0.5229020000000  0.5065250000000  0.5870970000000 1.0
C      1  0.5231430000000  0.4925290000000  0.4134040000000 1.0
C      1  0.4768430000000  0.5070390000000  0.4142360000000 1.0
C      1  0.5855070000000  0.5229420000000  0.5068930000000 1.0
C      1  0.5893560000000  0.4774450000000  0.4928280000000 1.0
C      1  0.4131140000000  0.5234620000000  0.4927790000000 1.0
C      1  0.5621710000000  0.5306790000000  0.5126550000000 1.0
C      1  0.5136750000000  0.5629690000000  0.5308780000000 1.0
C      1  0.5315280000000  0.5124370000000  0.5636750000000 1.0
C      1  0.4364430000000  0.4681560000000  0.5138440000000 1.0
C      1  0.4346820000000  0.5341390000000  0.4844980000000 1.0
C      1  0.5671830000000  0.4672900000000  0.4862430000000 1.0
C      1  0.4858060000000  0.4342020000000  0.5332230000000 1.0
C      1  0.4855530000000  0.5676110000000  0.4669530000000 1.0
C      1  0.5141000000000  0.4352440000000  0.4686150000000 1.0
C      1  0.4684560000000  0.4856230000000  0.5644680000000 1.0
C      1  0.4664980000000  0.5149250000000  0.4360550000000 1.0
C      1  0.5329010000000  0.4845180000000  0.4357840000000 1.0
C      1  0.5640790000000  0.5324760000000  0.4844950000000 1.0
C      1  0.5139080000000  0.5668360000000  0.4673080000000 1.0
C      1  0.5319520000000  0.5126020000000  0.4367630000000 1.0
C      1  0.4359850000000  0.4681440000000  0.4863280000000 1.0
C      1  0.4368170000000  0.5322710000000  0.5127060000000 1.0
C      1  0.5668430000000  0.4672270000000  0.5144320000000 1.0
C      1  0.4855140000000  0.4349090000000  0.4672750000000 1.0
C      1  0.4859350000000  0.5635670000000  0.5311320000000 1.0
C      1  0.5146790000000  0.4337600000000  0.5330230000000 1.0
C      1  0.4674690000000  0.4860260000000  0.4368120000000 1.0
C      1  0.4669960000000  0.5143670000000  0.5645940000000 1.0
C      1  0.5320320000000  0.4847290000000  0.5656890000000 1.0
C      1  0.5155270000000  0.5535310000000  0.4723000000000 1.0
C      1  0.4715490000000  0.5161420000000  0.5510710000000 1.0
C      1  0.5535220000000  0.4725780000000  0.5165970000000 1.0
C      1  0.4840690000000  0.4483160000000  0.4722590000000 1.0
C      1  0.4838630000000  0.5504940000000  0.5260460000000 1.0
C      1  0.5176870000000  0.4467600000000  0.5278020000000 1.0
C      1  0.5247660000000  0.4828490000000  0.5537310000000 1.0
C      1  0.5284230000000  0.5148920000000  0.4503580000000 1.0
C      1  0.4710670000000  0.4842210000000  0.4504980000000 1.0
C      1  0.4504730000000  0.5286560000000  0.5141610000000 1.0
C      1  0.4491840000000  0.4730480000000  0.4844080000000 1.0
C      1  0.5509690000000  0.5273190000000  0.4823070000000 1.0
C      1  0.5159870000000  0.5497680000000  0.5261810000000 1.0
C      1  0.4698260000000  0.5176920000000  0.4496870000000 1.0
C      1  0.5539140000000  0.4724940000000  0.4849610000000 1.0
C      1  0.4848710000000  0.4475540000000  0.5279100000000 1.0
C      1  0.4843360000000  0.5544560000000  0.4723420000000 1.0
C      1  0.5166560000000  0.4483440000000  0.4737260000000 1.0
C      1  0.5274030000000  0.4822240000000  0.4488430000000 1.0
C      1  0.5264160000000  0.5131090000000  0.5503340000000 1.0
C      1  0.4735600000000  0.4837060000000  0.5512900000000 1.0
C      1  0.4479310000000  0.5292610000000  0.4823180000000 1.0
C      1  0.4494630000000  0.4734020000000  0.5162190000000 1.0
C      1  0.5486200000000  0.5269350000000  0.5144760000000 1.0
C      1  0.5166740000000  0.5784630000000  0.4746580000000 1.0
C      1  0.4746850000000  0.5163460000000  0.5761880000000 1.0
C      1  0.5785910000000  0.4745390000000  0.5166550000000 1.0
C      1  0.4833490000000  0.4231240000000  0.4746990000000 1.0
C      1  0.4833730000000  0.5757750000000  0.5244200000000 1.0
C      1  0.5172520000000  0.4222770000000  0.5257270000000 1.0
C      1  0.5257790000000  0.4823670000000  0.5778400000000 1.0
C      1  0.5246640000000  0.5157170000000  0.4251750000000 1.0
C      1  0.4750250000000  0.4830970000000  0.4252100000000 1.0
C      1  0.4252060000000  0.5249330000000  0.5161460000000 1.0
C      1  0.4239630000000  0.4752240000000  0.4835390000000 1.0
C      1  0.5760350000000  0.5252310000000  0.4826120000000 1.0
C      1  0.5162890000000  0.5751500000000  0.5241560000000 1.0
C      1  0.4745400000000  0.5168690000000  0.4247450000000 1.0
C      1  0.5788790000000  0.4745890000000  0.4832610000000 1.0
C      1  0.4833720000000  0.4224380000000  0.5257290000000 1.0
C      1  0.4828660000000  0.5792670000000  0.4743490000000 1.0
C      1  0.5169820000000  0.4234480000000  0.4752970000000 1.0
C      1  0.5255520000000  0.4828640000000  0.4238390000000 1.0
C      1  0.5247350000000  0.5155400000000  0.5757170000000 1.0
C      1  0.4750480000000  0.4823780000000  0.5763770000000 1.0
C      1  0.4230700000000  0.5262120000000  0.4826550000000 1.0
C      1  0.4243690000000  0.4751480000000  0.5160900000000 1.0
C      1  0.5741460000000  0.5239560000000  0.5159860000000 1.0
C      1  0.4638150000000  0.5083700000000  0.4599040000000 1.0
C      1  0.4616190000000  0.4669110000000  0.5087410000000 1.0
C      1  0.5073360000000  0.4581140000000  0.4686300000000 1.0
C      1  0.5342360000000  0.4895360000000  0.4605670000000 1.0
C      1  0.5325610000000  0.5030290000000  0.5405380000000 1.0
C      1  0.4681520000000  0.4930230000000  0.5415870000000 1.0
C      1  0.5388630000000  0.5340400000000  0.5051280000000 1.0
C      1  0.5441890000000  0.4655940000000  0.4938900000000 1.0
C      1  0.4599080000000  0.5357340000000  0.4895740000000 1.0
C      1  0.4928590000000  0.5441880000000  0.4657950000000 1.0
C      1  0.4946460000000  0.4570130000000  0.5342060000000 1.0
C      1  0.5078800000000  0.5377060000000  0.5322390000000 1.0
C      1  0.4655090000000  0.5065940000000  0.5413090000000 1.0
C      1  0.4615680000000  0.4670020000000  0.4922970000000 1.0
C      1  0.5085210000000  0.4565270000000  0.5331170000000 1.0
C      1  0.5311810000000  0.4890400000000  0.5421450000000 1.0
C      1  0.5344830000000  0.5052990000000  0.4607240000000 1.0
C      1  0.4641560000000  0.4933700000000  0.4602690000000 1.0
C      1  0.5392830000000  0.5341210000000  0.4896720000000 1.0
C      1  0.5440460000000  0.4653780000000  0.5079340000000 1.0
C      1  0.4603870000000  0.5355340000000  0.5049480000000 1.0
C      1  0.4916370000000  0.5381530000000  0.5321590000000 1.0
C      1  0.4937100000000  0.4581480000000  0.4662500000000 1.0
C      1  0.5067440000000  0.5434740000000  0.4659170000000 1.0
C      1  0.5613630000000  0.4931880000000  0.5440450000000 1.0
C      1  0.5453150000000  0.5618950000000  0.4916470000000 1.0
C      1  0.4923750000000  0.5439940000000  0.5598840000000 1.0
C      1  0.4345630000000  0.5069470000000  0.5490310000000 1.0
C      1  0.4372310000000  0.4927230000000  0.4542550000000 1.0
C      1  0.5616660000000  0.5068970000000  0.4547460000000 1.0
C      1  0.4555610000000  0.4392470000000  0.4925100000000 1.0
C      1  0.4543770000000  0.5625170000000  0.5068420000000 1.0
C      1  0.5448940000000  0.4403540000000  0.5077690000000 1.0
C      1  0.5060970000000  0.4540830000000  0.5628680000000 1.0
C      1  0.5073860000000  0.5440390000000  0.4416290000000 1.0
C      1  0.4930740000000  0.4504670000000  0.4346450000000 1.0
C      1  0.5623800000000  0.4917110000000  0.4545990000000 1.0
C      1  0.5449580000000  0.5612350000000  0.5068270000000 1.0
C      1  0.4921640000000  0.5445570000000  0.4413950000000 1.0
C      1  0.4369910000000  0.5079630000000  0.4540600000000 1.0
C      1  0.4384900000000  0.4936540000000  0.5443480000000 1.0
C      1  0.5647700000000  0.5066010000000  0.5486130000000 1.0
C      1  0.4555960000000  0.4390240000000  0.5076640000000 1.0
C      1  0.4540340000000  0.5632280000000  0.4916550000000 1.0
C      1  0.5448740000000  0.4406870000000  0.4927560000000 1.0
C      1  0.5064240000000  0.4551680000000  0.4385350000000 1.0
C      1  0.5075740000000  0.5436760000000  0.5597570000000 1.0
C      1  0.4927920000000  0.4494130000000  0.5667570000000 1.0
C      1  0.4603110000000  0.4405590000000  0.4462540000000 1.0
C      1  0.4458930000000  0.4605940000000  0.4414220000000 1.0
C      1  0.4407880000000  0.4459150000000  0.4607860000000 1.0
C      1  0.5394090000000  0.5592390000000  0.4456240000000 1.0
C      1  0.5392940000000  0.4412470000000  0.5529810000000 1.0
C      1  0.4607660000000  0.5590640000000  0.5537380000000 1.0
C      1  0.5533300000000  0.5389240000000  0.4412780000000 1.0
C      1  0.5536950000000  0.4605420000000  0.5575420000000 1.0
C      1  0.4461190000000  0.5396260000000  0.5592280000000 1.0
C      1  0.5591310000000  0.5541300000000  0.4600810000000 1.0
C      1  0.5595170000000  0.4451860000000  0.5391710000000 1.0
C      1  0.4415550000000  0.5538560000000  0.5389510000000 1.0
C      1  0.4605360000000  0.4403780000000  0.5538420000000 1.0
C      1  0.4466000000000  0.4604160000000  0.5582480000000 1.0
C      1  0.4409850000000  0.4454200000000  0.5393250000000 1.0
C      1  0.5392700000000  0.5590860000000  0.5537240000000 1.0
C      1  0.5397880000000  0.4415150000000  0.4471940000000 1.0
C      1  0.4604170000000  0.5597310000000  0.4457100000000 1.0
C      1  0.5534430000000  0.5393360000000  0.5589780000000 1.0
C      1  0.5551750000000  0.4599210000000  0.4410930000000 1.0
C      1  0.4461120000000  0.5398480000000  0.4411350000000 1.0
C      1  0.5585660000000  0.5537050000000  0.5389780000000 1.0
C      1  0.5599950000000  0.4455360000000  0.4609630000000 1.0
C      1  0.4404090000000  0.5551430000000  0.4599710000000 1.0
C      1  0.5571900000000  0.4863490000000  0.4413900000000 1.0
C      1  0.4407340000000  0.5578820000000  0.4864440000000 1.0
C      1  0.4872130000000  0.4393080000000  0.5579040000000 1.0
C      1  0.4426900000000  0.5132310000000  0.4409770000000 1.0
C      1  0.4455640000000  0.4872190000000  0.5563630000000 1.0
C      1  0.5561640000000  0.5120580000000  0.5589260000000 1.0
C      1  0.5595530000000  0.4440320000000  0.4875150000000 1.0
C      1  0.5579170000000  0.5553510000000  0.5122620000000 1.0
C      1  0.4422100000000  0.4440450000000  0.5128360000000 1.0
C      1  0.5127070000000  0.5570560000000  0.5546690000000 1.0
C      1  0.5128410000000  0.4433060000000  0.4458360000000 1.0
C      1  0.4870520000000  0.5593270000000  0.4441740000000 1.0
C      1  0.5546780000000  0.4866870000000  0.5563160000000 1.0
C      1  0.4413520000000  0.5567120000000  0.5123480000000 1.0
C      1  0.4874000000000  0.4399770000000  0.4428910000000 1.0
C      1  0.4426640000000  0.5125140000000  0.5597130000000 1.0
C      1  0.4430520000000  0.4871840000000  0.4412910000000 1.0
C      1  0.5560020000000  0.5121570000000  0.4416430000000 1.0
C      1  0.5596030000000  0.4435640000000  0.5129180000000 1.0
C      1  0.5585910000000  0.5565410000000  0.4865230000000 1.0
C      1  0.4422080000000  0.4443510000000  0.4873490000000 1.0
C      1  0.5126810000000  0.5586430000000  0.4445610000000 1.0
C      1  0.5125600000000  0.4422650000000  0.5554800000000 1.0
C      1  0.4872940000000  0.5574230000000  0.5549960000000 1.0
C      1  0.5444920000000  0.4921300000000  0.5640700000000 1.0
C      1  0.5643190000000  0.5449580000000  0.4922030000000 1.0
C      1  0.4930610000000  0.5636950000000  0.5438460000000 1.0
C      1  0.4545160000000  0.5066870000000  0.5651660000000 1.0
C      1  0.4544110000000  0.4932170000000  0.4352990000000 1.0
C      1  0.5449590000000  0.5056170000000  0.4357060000000 1.0
C      1  0.4358320000000  0.4553520000000  0.4933420000000 1.0
C      1  0.4352360000000  0.5455890000000  0.5060460000000 1.0
C      1  0.5668780000000  0.4543170000000  0.5073440000000 1.0
C      1  0.5067150000000  0.4344920000000  0.5454400000000 1.0
C      1  0.5067690000000  0.5666880000000  0.4545050000000 1.0
C      1  0.4931630000000  0.4345330000000  0.4547360000000 1.0
C      1  0.5456420000000  0.4918300000000  0.4354330000000 1.0
C      1  0.5636950000000  0.5440310000000  0.5059810000000 1.0
C      1  0.4929270000000  0.5671430000000  0.4542520000000 1.0
C      1  0.4540190000000  0.5070850000000  0.4351080000000 1.0
C      1  0.4556820000000  0.4930470000000  0.5640780000000 1.0
C      1  0.5446040000000  0.5057890000000  0.5643710000000 1.0
C      1  0.4360290000000  0.4552470000000  0.5070540000000 1.0
C      1  0.4345950000000  0.5465530000000  0.4922360000000 1.0
C      1  0.5669570000000  0.4544580000000  0.4934680000000 1.0
C      1  0.5067790000000  0.4357480000000  0.4558770000000 1.0
C      1  0.5067400000000  0.5633800000000  0.5436540000000 1.0
C      1  0.4930010000000  0.4337400000000  0.5460850000000 1.0
C      1  0.4929550000000  0.4747220000000  0.5892000000000 1.0
C      1  0.5902150000000  0.4933510000000  0.4753150000000 1.0
C      1  0.4751170000000  0.5905910000000  0.4931400000000 1.0
C      1  0.5070610000000  0.5239560000000  0.5883720000000 1.0
C      1  0.5071280000000  0.4752320000000  0.4117960000000 1.0
C      1  0.4928230000000  0.5242240000000  0.4124100000000 1.0
C      1  0.4108520000000  0.5075160000000  0.4754780000000 1.0
C      1  0.4119050000000  0.4930010000000  0.5244300000000 1.0
C      1  0.5882590000000  0.5074700000000  0.5244130000000 1.0
C      1  0.5249070000000  0.4107260000000  0.4930090000000 1.0
C      1  0.5246180000000  0.5890450000000  0.5072890000000 1.0
C      1  0.4758070000000  0.4105940000000  0.5070890000000 1.0
C      1  0.4929520000000  0.4754140000000  0.4123250000000 1.0
C      1  0.5895400000000  0.4933850000000  0.5246800000000 1.0
C      1  0.4753940000000  0.5896710000000  0.5073460000000 1.0
C      1  0.5068980000000  0.5239910000000  0.4125330000000 1.0
C      1  0.5071900000000  0.4747520000000  0.5894990000000 1.0
C      1  0.4929200000000  0.5240210000000  0.5884260000000 1.0
C      1  0.4123330000000  0.5071640000000  0.5243230000000 1.0
C      1  0.4110270000000  0.4932120000000  0.4756030000000 1.0
C      1  0.5894200000000  0.5075440000000  0.4753330000000 1.0
C      1  0.5248540000000  0.4105100000000  0.5071380000000 1.0
C      1  0.5248790000000  0.5899100000000  0.4931290000000 1.0
C      1  0.4757420000000  0.4107450000000  0.4929140000000 1.0
C      1  0.5676130000000  0.4705070000000  0.5456080000000 1.0
C      1  0.5471960000000  0.5683770000000  0.4699490000000 1.0
C      1  0.4708680000000  0.5465430000000  0.5672050000000 1.0
C      1  0.4335580000000  0.5292990000000  0.5463350000000 1.0
C      1  0.4318510000000  0.4705330000000  0.4531740000000 1.0
C      1  0.5674030000000  0.5289960000000  0.4529720000000 1.0
C      1  0.4532870000000  0.4323900000000  0.4708710000000 1.0
C      1  0.4532320000000  0.5678940000000  0.5290520000000 1.0
C      1  0.5472610000000  0.4317910000000  0.5289470000000 1.0
C      1  0.5291780000000  0.4537940000000  0.5664020000000 1.0
C      1  0.5286740000000  0.5461430000000  0.4334730000000 1.0
C      1  0.4706270000000  0.4532170000000  0.4334170000000 1.0
C      1  0.5690320000000  0.4699910000000  0.4531780000000 1.0
C      1  0.5465610000000  0.5672330000000  0.5288380000000 1.0
C      1  0.4709190000000  0.5470990000000  0.4328700000000 1.0
C      1  0.4315980000000  0.5301290000000  0.4525640000000 1.0
C      1  0.4335380000000  0.4706700000000  0.5455870000000 1.0
C      1  0.5657280000000  0.5288420000000  0.5459580000000 1.0
C      1  0.4534610000000  0.4319940000000  0.5292340000000 1.0
C      1  0.4524450000000  0.5693400000000  0.4698150000000 1.0
C      1  0.5472860000000  0.4326040000000  0.4714530000000 1.0
C      1  0.5294960000000  0.4541540000000  0.4340350000000 1.0
C      1  0.5290530000000  0.5462170000000  0.5668140000000 1.0
C      1  0.4703870000000  0.4523390000000  0.5678500000000 1.0
C      1  0.5286450000000  0.5800760000000  0.4831700000000 1.0
C      1  0.4835270000000  0.5277920000000  0.5781560000000 1.0
C      1  0.5796510000000  0.4835040000000  0.5281400000000 1.0
C      1  0.4718920000000  0.4210830000000  0.4835580000000 1.0
C      1  0.4716100000000  0.5790330000000  0.5162960000000 1.0
C      1  0.5285980000000  0.4209790000000  0.5163310000000 1.0
C      1  0.5167310000000  0.4709770000000  0.5794300000000 1.0
C      1  0.5158290000000  0.5273100000000  0.4232970000000 1.0
C      1  0.4837760000000  0.4715790000000  0.4228100000000 1.0
C      1  0.4229440000000  0.5162930000000  0.5278590000000 1.0
C      1  0.4210300000000  0.4835640000000  0.4717240000000 1.0
C      1  0.5789330000000  0.5165640000000  0.4712750000000 1.0
C      1  0.5281060000000  0.5782190000000  0.5160900000000 1.0
C      1  0.4836810000000  0.5280610000000  0.4228490000000 1.0
C      1  0.5805150000000  0.4833090000000  0.4714360000000 1.0
C      1  0.4719370000000  0.4206940000000  0.5166410000000 1.0
C      1  0.4710090000000  0.5810320000000  0.4830150000000 1.0
C      1  0.5285410000000  0.4216010000000  0.4841890000000 1.0
C      1  0.5167520000000  0.4715400000000  0.4217920000000 1.0
C      1  0.5163260000000  0.5273740000000  0.5778370000000 1.0
C      1  0.4836130000000  0.4706360000000  0.5788840000000 1.0
C      1  0.4204230000000  0.5174190000000  0.4711750000000 1.0
C      1  0.4221410000000  0.4835470000000  0.5277200000000 1.0
C      1  0.5769670000000  0.5158510000000  0.5277840000000 1.0
C      1  0.4649960000000  0.5508680000000  0.5057610000000 1.0
C      1  0.5022040000000  0.4679400000000  0.5549050000000 1.0
C      1  0.5500580000000  0.5058450000000  0.4652210000000 1.0
C      1  0.5379240000000  0.4535210000000  0.5132100000000 1.0
C      1  0.5349940000000  0.5500370000000  0.4908650000000 1.0
C      1  0.4657810000000  0.4511590000000  0.4928120000000 1.0
C      1  0.4922240000000  0.5338830000000  0.5479530000000 1.0
C      1  0.4915750000000  0.4682690000000  0.4559640000000 1.0
C      1  0.5123600000000  0.5360240000000  0.4546820000000 1.0
C      1  0.4488040000000  0.4931580000000  0.4652790000000 1.0
C      1  0.4555590000000  0.5087520000000  0.5308900000000 1.0
C      1  0.5527040000000  0.4954080000000  0.5301820000000 1.0
C      1  0.4644750000000  0.5514640000000  0.4908500000000 1.0
C      1  0.5031360000000  0.4694280000000  0.4465740000000 1.0
C      1  0.5425820000000  0.5061010000000  0.5305080000000 1.0
C      1  0.5377180000000  0.4539100000000  0.4882370000000 1.0
C      1  0.5344770000000  0.5495760000000  0.5057750000000 1.0
C      1  0.4659200000000  0.4508270000000  0.5077680000000 1.0
C      1  0.4869750000000  0.5373910000000  0.4543500000000 1.0
C      1  0.4916940000000  0.4663870000000  0.5446690000000 1.0
C      1  0.5072110000000  0.5332850000000  0.5479460000000 1.0
C      1  0.4463430000000  0.4970960000000  0.5297600000000 1.0
C      1  0.4484940000000  0.5080520000000  0.4649630000000 1.0
C      1  0.5505460000000  0.4909750000000  0.4650370000000 1.0
END
