TITL C-1379266-1300-189 1.79566131627011e-07 1000000 -2238.82250440133 0 0 320 (Th) n - 1
REM
REM in /nfs/bkarasulu/CARBON/AIRSS/Generating-Clusters/GAP-ML-2020/Higher-Symm/Selected-Sizes/TryA-Only_Ih-Symm/Larger-Clusters/Try2-MINAMP_6A
REM
REM
REM
REM
REM
REM ./C.cell (31579ac4e95a012ec27f3239692ae8a5)
REM
REM compiler GCC version 9.2.1 20190827 (Red Hat 9.2.1-1)
REM options -cpp -mtune=generic -march=x86-64 -g -O0 -fpre-include=/usr/include/finclude/math-vector-fortran.h
REM seed -1595886031 524864214 496097874 963099956 1980738872 -680251007 398053729 972844167 -586055688 -943845394 -666706670 1262627643 2093787300 455421823 -912145185 642748618 1455068648 567054564 1736871672 166616886 1920396320 1211904167 -1078774664 -1196346766 638133741 -2093844497 -1905678619 2111467829 1034196372 -822177732 1472228032 865727217 1736737668
REM
CELL 1.54180  100.00000  100.00000  100.00000   90.00000   90.00000   90.00000
LATT -1
SFAC C  
C      1  0.5461290000000  0.4625910000000  0.4810250000000 1.0
C      1  0.4812440000000  0.5455960000000  0.4629040000000 1.0
C      1  0.4631230000000  0.4807120000000  0.5459100000000 1.0
C      1  0.4544980000000  0.5369720000000  0.4810250000000 1.0
C      1  0.4544980000000  0.4625910000000  0.5191640000000 1.0
C      1  0.5461290000000  0.5369720000000  0.5191640000000 1.0
C      1  0.5193830000000  0.4539660000000  0.4629040000000 1.0
C      1  0.5193830000000  0.5455960000000  0.5372850000000 1.0
C      1  0.4812440000000  0.4539660000000  0.5372850000000 1.0
C      1  0.5375040000000  0.5188510000000  0.5459100000000 1.0
C      1  0.5375040000000  0.4807120000000  0.4542800000000 1.0
C      1  0.4631230000000  0.5188510000000  0.4542800000000 1.0
C      1  0.5461290000000  0.4625910000000  0.5191640000000 1.0
C      1  0.4812440000000  0.5455960000000  0.5372850000000 1.0
C      1  0.4631230000000  0.4807120000000  0.4542800000000 1.0
C      1  0.4544980000000  0.5369720000000  0.5191640000000 1.0
C      1  0.4544980000000  0.4625910000000  0.4810250000000 1.0
C      1  0.5461290000000  0.5369720000000  0.4810250000000 1.0
C      1  0.5193830000000  0.4539660000000  0.5372850000000 1.0
C      1  0.5193830000000  0.5455960000000  0.4629040000000 1.0
C      1  0.4812440000000  0.4539660000000  0.4629040000000 1.0
C      1  0.5375040000000  0.5188510000000  0.4542800000000 1.0
C      1  0.5375040000000  0.4807120000000  0.5459100000000 1.0
C      1  0.4631230000000  0.5188510000000  0.5459100000000 1.0
C      1  0.5784530000000  0.4660960000000  0.4939050000000 1.0
C      1  0.4941230000000  0.5779200000000  0.4664090000000 1.0
C      1  0.4666280000000  0.4935910000000  0.5782340000000 1.0
C      1  0.4221740000000  0.5334670000000  0.4939050000000 1.0
C      1  0.4221740000000  0.4660960000000  0.5062850000000 1.0
C      1  0.5784530000000  0.5334670000000  0.5062850000000 1.0
C      1  0.5065040000000  0.4216420000000  0.4664090000000 1.0
C      1  0.5065040000000  0.5779200000000  0.5337800000000 1.0
C      1  0.4941230000000  0.4216420000000  0.5337800000000 1.0
C      1  0.5339990000000  0.5059720000000  0.5782340000000 1.0
C      1  0.5339990000000  0.4935910000000  0.4219560000000 1.0
C      1  0.4666280000000  0.5059720000000  0.4219560000000 1.0
C      1  0.5784530000000  0.4660960000000  0.5062850000000 1.0
C      1  0.4941230000000  0.5779200000000  0.5337800000000 1.0
C      1  0.4666280000000  0.4935910000000  0.4219560000000 1.0
C      1  0.4221740000000  0.5334670000000  0.5062850000000 1.0
C      1  0.4221740000000  0.4660960000000  0.4939050000000 1.0
C      1  0.5784530000000  0.5334670000000  0.4939050000000 1.0
C      1  0.5065040000000  0.4216420000000  0.5337800000000 1.0
C      1  0.5065040000000  0.5779200000000  0.4664090000000 1.0
C      1  0.4941230000000  0.4216420000000  0.4664090000000 1.0
C      1  0.5339990000000  0.5059720000000  0.4219560000000 1.0
C      1  0.5339990000000  0.4935910000000  0.5782340000000 1.0
C      1  0.4666280000000  0.5059720000000  0.5782340000000 1.0
C      1  0.5271750000000  0.4511990000000  0.4738060000000 1.0
C      1  0.4740250000000  0.5266430000000  0.4515120000000 1.0
C      1  0.4517310000000  0.4734930000000  0.5269570000000 1.0
C      1  0.4734520000000  0.5483640000000  0.4738060000000 1.0
C      1  0.4734520000000  0.4511990000000  0.5263830000000 1.0
C      1  0.5271750000000  0.5483640000000  0.5263830000000 1.0
C      1  0.5266020000000  0.4729200000000  0.4515120000000 1.0
C      1  0.5266020000000  0.5266430000000  0.5486770000000 1.0
C      1  0.4740250000000  0.4729200000000  0.5486770000000 1.0
C      1  0.5488960000000  0.5260700000000  0.5269570000000 1.0
C      1  0.5488960000000  0.4734930000000  0.4732330000000 1.0
C      1  0.4517310000000  0.5260700000000  0.4732330000000 1.0
C      1  0.5271750000000  0.4511990000000  0.5263830000000 1.0
C      1  0.4740250000000  0.5266430000000  0.5486770000000 1.0
C      1  0.4517310000000  0.4734930000000  0.4732330000000 1.0
C      1  0.4734520000000  0.5483640000000  0.5263830000000 1.0
C      1  0.4734520000000  0.4511990000000  0.4738060000000 1.0
C      1  0.5271750000000  0.5483640000000  0.4738060000000 1.0
C      1  0.5266020000000  0.4729200000000  0.5486770000000 1.0
C      1  0.5266020000000  0.5266430000000  0.4515120000000 1.0
C      1  0.4740250000000  0.4729200000000  0.4515120000000 1.0
C      1  0.5488960000000  0.5260700000000  0.4732330000000 1.0
C      1  0.5488960000000  0.4734930000000  0.5269570000000 1.0
C      1  0.4517310000000  0.5260700000000  0.5269570000000 1.0
C      1  0.5396040000000  0.5275580000000  0.4322490000000 1.0
C      1  0.4324670000000  0.5390720000000  0.5278710000000 1.0
C      1  0.5280900000000  0.4319350000000  0.5393850000000 1.0
C      1  0.4610230000000  0.4720050000000  0.4322490000000 1.0
C      1  0.4610230000000  0.5275580000000  0.5679410000000 1.0
C      1  0.5396040000000  0.4720050000000  0.5679410000000 1.0
C      1  0.5681600000000  0.4604910000000  0.5278710000000 1.0
C      1  0.5681600000000  0.5390720000000  0.4723180000000 1.0
C      1  0.4324670000000  0.4604910000000  0.4723180000000 1.0
C      1  0.4725370000000  0.5676270000000  0.5393850000000 1.0
C      1  0.4725370000000  0.4319350000000  0.4608040000000 1.0
C      1  0.5280900000000  0.5676270000000  0.4608040000000 1.0
C      1  0.5396040000000  0.5275580000000  0.5679410000000 1.0
C      1  0.4324670000000  0.5390720000000  0.4723180000000 1.0
C      1  0.5280900000000  0.4319350000000  0.4608040000000 1.0
C      1  0.4610230000000  0.4720050000000  0.5679410000000 1.0
C      1  0.4610230000000  0.5275580000000  0.4322490000000 1.0
C      1  0.5396040000000  0.4720050000000  0.4322490000000 1.0
C      1  0.5681600000000  0.4604910000000  0.4723180000000 1.0
C      1  0.5681600000000  0.5390720000000  0.5278710000000 1.0
C      1  0.4324670000000  0.4604910000000  0.5278710000000 1.0
C      1  0.4725370000000  0.5676270000000  0.4608040000000 1.0
C      1  0.4725370000000  0.4319350000000  0.5393850000000 1.0
C      1  0.5280900000000  0.5676270000000  0.5393850000000 1.0
C      1  0.5201270000000  0.4233360000000  0.4685530000000 1.0
C      1  0.4687720000000  0.5195950000000  0.4236490000000 1.0
C      1  0.4238680000000  0.4682390000000  0.5199080000000 1.0
C      1  0.4805000000000  0.5762270000000  0.4685530000000 1.0
C      1  0.4805000000000  0.4233360000000  0.5316370000000 1.0
C      1  0.5201270000000  0.5762270000000  0.5316370000000 1.0
C      1  0.5318550000000  0.4799680000000  0.4236490000000 1.0
C      1  0.5318550000000  0.5195950000000  0.5765400000000 1.0
C      1  0.4687720000000  0.4799680000000  0.5765400000000 1.0
C      1  0.5767590000000  0.5313230000000  0.5199080000000 1.0
C      1  0.5767590000000  0.4682390000000  0.4802810000000 1.0
C      1  0.4238680000000  0.5313230000000  0.4802810000000 1.0
C      1  0.5201270000000  0.4233360000000  0.5316370000000 1.0
C      1  0.4687720000000  0.5195950000000  0.5765400000000 1.0
C      1  0.4238680000000  0.4682390000000  0.4802810000000 1.0
C      1  0.4805000000000  0.5762270000000  0.5316370000000 1.0
C      1  0.4805000000000  0.4233360000000  0.4685530000000 1.0
C      1  0.5201270000000  0.5762270000000  0.4685530000000 1.0
C      1  0.5318550000000  0.4799680000000  0.5765400000000 1.0
C      1  0.5318550000000  0.5195950000000  0.4236490000000 1.0
C      1  0.4687720000000  0.4799680000000  0.4236490000000 1.0
C      1  0.5767590000000  0.5313230000000  0.4802810000000 1.0
C      1  0.5767590000000  0.4682390000000  0.5199080000000 1.0
C      1  0.4238680000000  0.5313230000000  0.5199080000000 1.0
C      1  0.4166990000000  0.4935680000000  0.4779600000000 1.0
C      1  0.4781780000000  0.4161660000000  0.4938820000000 1.0
C      1  0.4941010000000  0.4776460000000  0.4164800000000 1.0
C      1  0.5839280000000  0.5059940000000  0.4779600000000 1.0
C      1  0.5839280000000  0.4935680000000  0.5222300000000 1.0
C      1  0.4166990000000  0.5059940000000  0.5222300000000 1.0
C      1  0.5224490000000  0.5833960000000  0.4938820000000 1.0
C      1  0.5224490000000  0.4161660000000  0.5063080000000 1.0
C      1  0.4781780000000  0.5833960000000  0.5063080000000 1.0
C      1  0.5065260000000  0.5219160000000  0.4164800000000 1.0
C      1  0.5065260000000  0.4776460000000  0.5837100000000 1.0
C      1  0.4941010000000  0.5219160000000  0.5837100000000 1.0
C      1  0.4166990000000  0.4935680000000  0.5222300000000 1.0
C      1  0.4781780000000  0.4161660000000  0.5063080000000 1.0
C      1  0.4941010000000  0.4776460000000  0.5837100000000 1.0
C      1  0.5839280000000  0.5059940000000  0.5222300000000 1.0
C      1  0.5839280000000  0.4935680000000  0.4779600000000 1.0
C      1  0.4166990000000  0.5059940000000  0.4779600000000 1.0
C      1  0.5224490000000  0.5833960000000  0.5063080000000 1.0
C      1  0.5224490000000  0.4161660000000  0.4938820000000 1.0
C      1  0.4781780000000  0.5833960000000  0.4938820000000 1.0
C      1  0.5065260000000  0.5219160000000  0.5837100000000 1.0
C      1  0.5065260000000  0.4776460000000  0.4164800000000 1.0
C      1  0.4941010000000  0.5219160000000  0.4164800000000 1.0
C      1  0.4529150000000  0.4752450000000  0.5565910000000 1.0
C      1  0.5568100000000  0.4523830000000  0.4755580000000 1.0
C      1  0.4757770000000  0.5562780000000  0.4526970000000 1.0
C      1  0.5477120000000  0.5243180000000  0.5565910000000 1.0
C      1  0.5477120000000  0.4752450000000  0.4435990000000 1.0
C      1  0.4529150000000  0.5243180000000  0.4435990000000 1.0
C      1  0.4438170000000  0.5471790000000  0.4755580000000 1.0
C      1  0.4438170000000  0.4523830000000  0.5246310000000 1.0
C      1  0.5568100000000  0.5471790000000  0.5246310000000 1.0
C      1  0.5248500000000  0.4432850000000  0.4526970000000 1.0
C      1  0.5248500000000  0.5562780000000  0.5474930000000 1.0
C      1  0.4757770000000  0.4432850000000  0.5474930000000 1.0
C      1  0.4529150000000  0.4752450000000  0.4435990000000 1.0
C      1  0.5568100000000  0.4523830000000  0.5246310000000 1.0
C      1  0.4757770000000  0.5562780000000  0.5474930000000 1.0
C      1  0.5477120000000  0.5243180000000  0.4435990000000 1.0
C      1  0.5477120000000  0.4752450000000  0.5565910000000 1.0
C      1  0.4529150000000  0.5243180000000  0.5565910000000 1.0
C      1  0.4438170000000  0.5471790000000  0.5246310000000 1.0
C      1  0.4438170000000  0.4523830000000  0.4755580000000 1.0
C      1  0.5568100000000  0.5471790000000  0.4755580000000 1.0
C      1  0.5248500000000  0.4432850000000  0.5474930000000 1.0
C      1  0.5248500000000  0.5562780000000  0.4526970000000 1.0
C      1  0.4757770000000  0.4432850000000  0.4526970000000 1.0
C      1  0.5492780000000  0.5537540000000  0.5346710000000 1.0
C      1  0.5348900000000  0.5487460000000  0.5540680000000 1.0
C      1  0.5542870000000  0.5343580000000  0.5490600000000 1.0
C      1  0.4513490000000  0.4458080000000  0.5346710000000 1.0
C      1  0.4513490000000  0.5537540000000  0.4655180000000 1.0
C      1  0.5492780000000  0.4458080000000  0.4655180000000 1.0
C      1  0.4657370000000  0.4508160000000  0.5540680000000 1.0
C      1  0.4657370000000  0.5487460000000  0.4461220000000 1.0
C      1  0.5348900000000  0.4508160000000  0.4461220000000 1.0
C      1  0.4463400000000  0.4652050000000  0.5490600000000 1.0
C      1  0.4463400000000  0.5343580000000  0.4511300000000 1.0
C      1  0.5542870000000  0.4652050000000  0.4511300000000 1.0
C      1  0.5492780000000  0.5537540000000  0.4655180000000 1.0
C      1  0.5348900000000  0.5487460000000  0.4461220000000 1.0
C      1  0.5542870000000  0.5343580000000  0.4511300000000 1.0
C      1  0.4513490000000  0.4458080000000  0.4655180000000 1.0
C      1  0.4513490000000  0.5537540000000  0.5346710000000 1.0
C      1  0.5492780000000  0.4458080000000  0.5346710000000 1.0
C      1  0.4657370000000  0.4508160000000  0.4461220000000 1.0
C      1  0.4657370000000  0.5487460000000  0.5540680000000 1.0
C      1  0.5348900000000  0.4508160000000  0.5540680000000 1.0
C      1  0.4463400000000  0.4652050000000  0.4511300000000 1.0
C      1  0.4463400000000  0.5343580000000  0.5490600000000 1.0
C      1  0.5542870000000  0.4652050000000  0.5490600000000 1.0
C      1  0.5612300000000  0.5296770000000  0.4630980000000 1.0
C      1  0.4633170000000  0.5606980000000  0.5299910000000 1.0
C      1  0.5302090000000  0.4627850000000  0.5610110000000 1.0
C      1  0.4393970000000  0.4698860000000  0.4630980000000 1.0
C      1  0.4393970000000  0.5296770000000  0.5370920000000 1.0
C      1  0.5612300000000  0.4698860000000  0.5370920000000 1.0
C      1  0.5373100000000  0.4388650000000  0.5299910000000 1.0
C      1  0.5373100000000  0.5606980000000  0.4701990000000 1.0
C      1  0.4633170000000  0.4388650000000  0.4701990000000 1.0
C      1  0.4704180000000  0.5367780000000  0.5610110000000 1.0
C      1  0.4704180000000  0.4627850000000  0.4391780000000 1.0
C      1  0.5302090000000  0.5367780000000  0.4391780000000 1.0
C      1  0.5612300000000  0.5296770000000  0.5370920000000 1.0
C      1  0.4633170000000  0.5606980000000  0.4701990000000 1.0
C      1  0.5302090000000  0.4627850000000  0.4391780000000 1.0
C      1  0.4393970000000  0.4698860000000  0.5370920000000 1.0
C      1  0.4393970000000  0.5296770000000  0.4630980000000 1.0
C      1  0.5612300000000  0.4698860000000  0.4630980000000 1.0
C      1  0.5373100000000  0.4388650000000  0.4701990000000 1.0
C      1  0.5373100000000  0.5606980000000  0.5299910000000 1.0
C      1  0.4633170000000  0.4388650000000  0.5299910000000 1.0
C      1  0.4704180000000  0.5367780000000  0.4391780000000 1.0
C      1  0.4704180000000  0.4627850000000  0.5610110000000 1.0
C      1  0.5302090000000  0.5367780000000  0.5610110000000 1.0
C      1  0.5153680000000  0.5335990000000  0.5438210000000 1.0
C      1  0.5440400000000  0.5148360000000  0.5339130000000 1.0
C      1  0.5341320000000  0.5435080000000  0.5151490000000 1.0
C      1  0.4852590000000  0.4659630000000  0.5438210000000 1.0
C      1  0.4852590000000  0.5335990000000  0.4563690000000 1.0
C      1  0.5153680000000  0.4659630000000  0.4563690000000 1.0
C      1  0.4565870000000  0.4847270000000  0.5339130000000 1.0
C      1  0.4565870000000  0.5148360000000  0.4662770000000 1.0
C      1  0.5440400000000  0.4847270000000  0.4662770000000 1.0
C      1  0.4664950000000  0.4560550000000  0.5151490000000 1.0
C      1  0.4664950000000  0.5435080000000  0.4850410000000 1.0
C      1  0.5341320000000  0.4560550000000  0.4850410000000 1.0
C      1  0.5153680000000  0.5335990000000  0.4563690000000 1.0
C      1  0.5440400000000  0.5148360000000  0.4662770000000 1.0
C      1  0.5341320000000  0.5435080000000  0.4850410000000 1.0
C      1  0.4852590000000  0.4659630000000  0.4563690000000 1.0
C      1  0.4852590000000  0.5335990000000  0.5438210000000 1.0
C      1  0.5153680000000  0.4659630000000  0.5438210000000 1.0
C      1  0.4565870000000  0.4847270000000  0.4662770000000 1.0
C      1  0.4565870000000  0.5148360000000  0.5339130000000 1.0
C      1  0.5440400000000  0.4847270000000  0.5339130000000 1.0
C      1  0.4664950000000  0.4560550000000  0.4850410000000 1.0
C      1  0.4664950000000  0.5435080000000  0.5151490000000 1.0
C      1  0.5341320000000  0.4560550000000  0.5151490000000 1.0
C      1  0.4823660000000  0.4738700000000  0.4226760000000 1.0
C      1  0.4228940000000  0.4818340000000  0.4741840000000 1.0
C      1  0.4744030000000  0.4223620000000  0.4821470000000 1.0
C      1  0.5182610000000  0.5256920000000  0.4226760000000 1.0
C      1  0.5182610000000  0.4738700000000  0.5775140000000 1.0
C      1  0.4823660000000  0.5256920000000  0.5775140000000 1.0
C      1  0.5777330000000  0.5177290000000  0.4741840000000 1.0
C      1  0.5777330000000  0.4818340000000  0.5260060000000 1.0
C      1  0.4228940000000  0.5177290000000  0.5260060000000 1.0
C      1  0.5262240000000  0.5772000000000  0.4821470000000 1.0
C      1  0.5262240000000  0.4223620000000  0.5180420000000 1.0
C      1  0.4744030000000  0.5772000000000  0.5180420000000 1.0
C      1  0.4823660000000  0.4738700000000  0.5775140000000 1.0
C      1  0.4228940000000  0.4818340000000  0.5260060000000 1.0
C      1  0.4744030000000  0.4223620000000  0.5180420000000 1.0
C      1  0.5182610000000  0.5256920000000  0.5775140000000 1.0
C      1  0.5182610000000  0.4738700000000  0.4226760000000 1.0
C      1  0.4823660000000  0.5256920000000  0.4226760000000 1.0
C      1  0.5777330000000  0.5177290000000  0.5260060000000 1.0
C      1  0.5777330000000  0.4818340000000  0.4741840000000 1.0
C      1  0.4228940000000  0.5177290000000  0.4741840000000 1.0
C      1  0.5262240000000  0.5772000000000  0.5180420000000 1.0
C      1  0.5262240000000  0.4223620000000  0.4821470000000 1.0
C      1  0.4744030000000  0.5772000000000  0.4821470000000 1.0
C      1  0.4439200000000  0.4928950000000  0.5358610000000 1.0
C      1  0.5360800000000  0.4433880000000  0.4932090000000 1.0
C      1  0.4934270000000  0.5355480000000  0.4437020000000 1.0
C      1  0.5567070000000  0.5066670000000  0.5358610000000 1.0
C      1  0.5567070000000  0.4928950000000  0.4643280000000 1.0
C      1  0.4439200000000  0.5066670000000  0.4643280000000 1.0
C      1  0.4645470000000  0.5561740000000  0.4932090000000 1.0
C      1  0.4645470000000  0.4433880000000  0.5069810000000 1.0
C      1  0.5360800000000  0.5561740000000  0.5069810000000 1.0
C      1  0.5072000000000  0.4640150000000  0.4437020000000 1.0
C      1  0.5072000000000  0.5355480000000  0.5564880000000 1.0
C      1  0.4934270000000  0.4640150000000  0.5564880000000 1.0
C      1  0.4439200000000  0.4928950000000  0.4643280000000 1.0
C      1  0.5360800000000  0.4433880000000  0.5069810000000 1.0
C      1  0.4934270000000  0.5355480000000  0.5564880000000 1.0
C      1  0.5567070000000  0.5066670000000  0.4643280000000 1.0
C      1  0.5567070000000  0.4928950000000  0.5358610000000 1.0
C      1  0.4439200000000  0.5066670000000  0.5358610000000 1.0
C      1  0.4645470000000  0.5561740000000  0.5069810000000 1.0
C      1  0.4645470000000  0.4433880000000  0.4932090000000 1.0
C      1  0.5360800000000  0.5561740000000  0.4932090000000 1.0
C      1  0.5072000000000  0.4640150000000  0.5564880000000 1.0
C      1  0.5072000000000  0.5355480000000  0.4437020000000 1.0
C      1  0.4934270000000  0.4640150000000  0.4437020000000 1.0
C      1  0.5360490000000  0.4326320000000  0.5167020000000 1.0
C      1  0.5169210000000  0.5355170000000  0.4329460000000 1.0
C      1  0.4331650000000  0.5163880000000  0.5358310000000 1.0
C      1  0.4645780000000  0.5669300000000  0.5167020000000 1.0
C      1  0.4645780000000  0.4326320000000  0.4834880000000 1.0
C      1  0.5360490000000  0.5669300000000  0.4834880000000 1.0
C      1  0.4837060000000  0.4640460000000  0.4329460000000 1.0
C      1  0.4837060000000  0.5355170000000  0.5672440000000 1.0
C      1  0.5169210000000  0.4640460000000  0.5672440000000 1.0
C      1  0.5674620000000  0.4831740000000  0.5358310000000 1.0
C      1  0.5674620000000  0.5163880000000  0.4643590000000 1.0
C      1  0.4331650000000  0.4831740000000  0.4643590000000 1.0
C      1  0.5360490000000  0.4326320000000  0.4834880000000 1.0
C      1  0.5169210000000  0.5355170000000  0.5672440000000 1.0
C      1  0.4331650000000  0.5163880000000  0.4643590000000 1.0
C      1  0.4645780000000  0.5669300000000  0.4834880000000 1.0
C      1  0.4645780000000  0.4326320000000  0.5167020000000 1.0
C      1  0.5360490000000  0.5669300000000  0.5167020000000 1.0
C      1  0.4837060000000  0.4640460000000  0.5672440000000 1.0
C      1  0.4837060000000  0.5355170000000  0.4329460000000 1.0
C      1  0.5169210000000  0.4640460000000  0.4329460000000 1.0
C      1  0.5674620000000  0.4831740000000  0.4643590000000 1.0
C      1  0.5674620000000  0.5163880000000  0.5358310000000 1.0
C      1  0.4331650000000  0.4831740000000  0.5358310000000 1.0
C      1  0.4531830000000  0.5469120000000  0.4529640000000 1.0
C      1  0.4531830000000  0.4526510000000  0.5472250000000 1.0
C      1  0.5474440000000  0.4526510000000  0.4529640000000 1.0
C      1  0.5474440000000  0.5469120000000  0.5472250000000 1.0
C      1  0.4531830000000  0.5469120000000  0.5472250000000 1.0
C      1  0.4531830000000  0.4526510000000  0.4529640000000 1.0
C      1  0.5474440000000  0.4526510000000  0.5472250000000 1.0
C      1  0.5474440000000  0.5469120000000  0.4529640000000 1.0
END
