TITL C-1379267-1329-307 -2.90195930923571e-06 1000000 -3055.40217361198 0 0 420 (Td) n - 1
REM
REM in /nfs/bkarasulu/CARBON/AIRSS/Generating-Clusters/GAP-ML-2020/Higher-Symm/Selected-Sizes/TryA-Only_Ih-Symm/Larger-Clusters/Try2-MINAMP_6A
REM
REM
REM
REM
REM
REM ./C.cell (31579ac4e95a012ec27f3239692ae8a5)
REM
REM compiler GCC version 9.2.1 20190827 (Red Hat 9.2.1-1)
REM options -cpp -mtune=generic -march=x86-64 -g -O0 -fpre-include=/usr/include/finclude/math-vector-fortran.h
REM seed 605338989 -251828211 1351587729 -380849923 1918242062 1067763159 484180602 -974537250 1932706271 1883229234 469551690 1943432413 1843408197 728308294 569278056 -1503467216 -1689362130 1917659065 -1894551068 -501795707 1828080873 -1020313431 883881191 1827349336 -881789126 1193513544 259568719 -986646962 -661815908 1240812391 -681945065 -860299305 -1996590980
REM
CELL 1.54180  100.00000  100.00000  100.00000   90.00000   90.00000   90.00000
LATT -1
SFAC C  
C      1  0.5116720000000  0.4481300000000  0.4687560000000 1.0
C      1  0.4481300000000  0.4687560000000  0.5116720000000 1.0
C      1  0.4687560000000  0.5116720000000  0.4481300000000 1.0
C      1  0.4883280000000  0.4481300000000  0.5312440000000 1.0
C      1  0.4883280000000  0.5518700000000  0.4687560000000 1.0
C      1  0.5116720000000  0.5518700000000  0.5312440000000 1.0
C      1  0.5518700000000  0.4687560000000  0.4883280000000 1.0
C      1  0.5518700000000  0.5312440000000  0.5116720000000 1.0
C      1  0.4481300000000  0.5312440000000  0.4883280000000 1.0
C      1  0.5312440000000  0.5116720000000  0.5518700000000 1.0
C      1  0.5312440000000  0.4883280000000  0.4481300000000 1.0
C      1  0.4687560000000  0.4883280000000  0.5518700000000 1.0
C      1  0.4687560000000  0.4481300000000  0.5116720000000 1.0
C      1  0.5116720000000  0.4687560000000  0.4481300000000 1.0
C      1  0.4481300000000  0.5116720000000  0.4687560000000 1.0
C      1  0.5312440000000  0.4481300000000  0.4883280000000 1.0
C      1  0.4687560000000  0.5518700000000  0.4883280000000 1.0
C      1  0.5312440000000  0.5518700000000  0.5116720000000 1.0
C      1  0.4883280000000  0.4687560000000  0.5518700000000 1.0
C      1  0.5116720000000  0.5312440000000  0.5518700000000 1.0
C      1  0.4883280000000  0.5312440000000  0.4481300000000 1.0
C      1  0.5518700000000  0.5116720000000  0.5312440000000 1.0
C      1  0.4481300000000  0.4883280000000  0.5312440000000 1.0
C      1  0.5518700000000  0.4883280000000  0.4687560000000 1.0
C      1  0.5102750000000  0.4999660000000  0.5775750000000 1.0
C      1  0.4999660000000  0.5775750000000  0.5102750000000 1.0
C      1  0.5775750000000  0.5102750000000  0.4999660000000 1.0
C      1  0.4897250000000  0.4999660000000  0.4224250000000 1.0
C      1  0.4897250000000  0.5000340000000  0.5775750000000 1.0
C      1  0.5102750000000  0.5000340000000  0.4224250000000 1.0
C      1  0.5000340000000  0.5775750000000  0.4897250000000 1.0
C      1  0.5000340000000  0.4224250000000  0.5102750000000 1.0
C      1  0.4999660000000  0.4224250000000  0.4897250000000 1.0
C      1  0.4224250000000  0.5102750000000  0.5000340000000 1.0
C      1  0.4224250000000  0.4897250000000  0.4999660000000 1.0
C      1  0.5775750000000  0.4897250000000  0.5000340000000 1.0
C      1  0.5775750000000  0.4999660000000  0.5102750000000 1.0
C      1  0.5102750000000  0.5775750000000  0.4999660000000 1.0
C      1  0.4999660000000  0.5102750000000  0.5775750000000 1.0
C      1  0.4224250000000  0.4999660000000  0.4897250000000 1.0
C      1  0.5775750000000  0.5000340000000  0.4897250000000 1.0
C      1  0.4224250000000  0.5000340000000  0.5102750000000 1.0
C      1  0.4897250000000  0.5775750000000  0.5000340000000 1.0
C      1  0.5102750000000  0.4224250000000  0.5000340000000 1.0
C      1  0.4897250000000  0.4224250000000  0.4999660000000 1.0
C      1  0.5000340000000  0.5102750000000  0.4224250000000 1.0
C      1  0.4999660000000  0.4897250000000  0.4224250000000 1.0
C      1  0.5000340000000  0.4897250000000  0.5775750000000 1.0
C      1  0.4571410000000  0.4668360000000  0.4766550000000 1.0
C      1  0.4668360000000  0.4766550000000  0.4571410000000 1.0
C      1  0.4766550000000  0.4571410000000  0.4668360000000 1.0
C      1  0.5428590000000  0.4668360000000  0.5233450000000 1.0
C      1  0.5428590000000  0.5331640000000  0.4766550000000 1.0
C      1  0.4571410000000  0.5331640000000  0.5233450000000 1.0
C      1  0.5331640000000  0.4766550000000  0.5428590000000 1.0
C      1  0.5331640000000  0.5233450000000  0.4571410000000 1.0
C      1  0.4668360000000  0.5233450000000  0.5428590000000 1.0
C      1  0.5233450000000  0.4571410000000  0.5331640000000 1.0
C      1  0.5233450000000  0.5428590000000  0.4668360000000 1.0
C      1  0.4766550000000  0.5428590000000  0.5331640000000 1.0
C      1  0.4766550000000  0.4668360000000  0.4571410000000 1.0
C      1  0.4571410000000  0.4766550000000  0.4668360000000 1.0
C      1  0.4668360000000  0.4571410000000  0.4766550000000 1.0
C      1  0.5233450000000  0.4668360000000  0.5428590000000 1.0
C      1  0.4766550000000  0.5331640000000  0.5428590000000 1.0
C      1  0.5233450000000  0.5331640000000  0.4571410000000 1.0
C      1  0.5428590000000  0.4766550000000  0.5331640000000 1.0
C      1  0.4571410000000  0.5233450000000  0.5331640000000 1.0
C      1  0.5428590000000  0.5233450000000  0.4668360000000 1.0
C      1  0.5331640000000  0.4571410000000  0.5233450000000 1.0
C      1  0.4668360000000  0.5428590000000  0.5233450000000 1.0
C      1  0.5331640000000  0.5428590000000  0.4766550000000 1.0
C      1  0.4701480000000  0.4489000000000  0.4882490000000 1.0
C      1  0.4489000000000  0.4882490000000  0.4701480000000 1.0
C      1  0.4882490000000  0.4701480000000  0.4489000000000 1.0
C      1  0.5298520000000  0.4489000000000  0.5117510000000 1.0
C      1  0.5298520000000  0.5511000000000  0.4882490000000 1.0
C      1  0.4701480000000  0.5511000000000  0.5117510000000 1.0
C      1  0.5511000000000  0.4882490000000  0.5298520000000 1.0
C      1  0.5511000000000  0.5117510000000  0.4701480000000 1.0
C      1  0.4489000000000  0.5117510000000  0.5298520000000 1.0
C      1  0.5117510000000  0.4701480000000  0.5511000000000 1.0
C      1  0.5117510000000  0.5298520000000  0.4489000000000 1.0
C      1  0.4882490000000  0.5298520000000  0.5511000000000 1.0
C      1  0.4882490000000  0.4489000000000  0.4701480000000 1.0
C      1  0.4701480000000  0.4882490000000  0.4489000000000 1.0
C      1  0.4489000000000  0.4701480000000  0.4882490000000 1.0
C      1  0.5117510000000  0.4489000000000  0.5298520000000 1.0
C      1  0.4882490000000  0.5511000000000  0.5298520000000 1.0
C      1  0.5117510000000  0.5511000000000  0.4701480000000 1.0
C      1  0.5298520000000  0.4882490000000  0.5511000000000 1.0
C      1  0.4701480000000  0.5117510000000  0.5511000000000 1.0
C      1  0.5298520000000  0.5117510000000  0.4489000000000 1.0
C      1  0.5511000000000  0.4701480000000  0.5117510000000 1.0
C      1  0.4489000000000  0.5298520000000  0.5117510000000 1.0
C      1  0.5511000000000  0.5298520000000  0.4882490000000 1.0
C      1  0.5728410000000  0.4748420000000  0.5350980000000 1.0
C      1  0.4748420000000  0.5350980000000  0.5728410000000 1.0
C      1  0.5350980000000  0.5728410000000  0.4748420000000 1.0
C      1  0.4271590000000  0.4748420000000  0.4649020000000 1.0
C      1  0.4271590000000  0.5251580000000  0.5350980000000 1.0
C      1  0.5728410000000  0.5251580000000  0.4649020000000 1.0
C      1  0.5251580000000  0.5350980000000  0.4271590000000 1.0
C      1  0.5251580000000  0.4649020000000  0.5728410000000 1.0
C      1  0.4748420000000  0.4649020000000  0.4271590000000 1.0
C      1  0.4649020000000  0.5728410000000  0.5251580000000 1.0
C      1  0.4649020000000  0.4271590000000  0.4748420000000 1.0
C      1  0.5350980000000  0.4271590000000  0.5251580000000 1.0
C      1  0.5350980000000  0.4748420000000  0.5728410000000 1.0
C      1  0.5728410000000  0.5350980000000  0.4748420000000 1.0
C      1  0.4748420000000  0.5728410000000  0.5350980000000 1.0
C      1  0.4649020000000  0.4748420000000  0.4271590000000 1.0
C      1  0.5350980000000  0.5251580000000  0.4271590000000 1.0
C      1  0.4649020000000  0.5251580000000  0.5728410000000 1.0
C      1  0.4271590000000  0.5350980000000  0.5251580000000 1.0
C      1  0.5728410000000  0.4649020000000  0.5251580000000 1.0
C      1  0.4271590000000  0.4649020000000  0.4748420000000 1.0
C      1  0.5251580000000  0.5728410000000  0.4649020000000 1.0
C      1  0.4748420000000  0.4271590000000  0.4649020000000 1.0
C      1  0.5251580000000  0.4271590000000  0.5350980000000 1.0
C      1  0.4331160000000  0.5114130000000  0.4717790000000 1.0
C      1  0.5114130000000  0.4717790000000  0.4331160000000 1.0
C      1  0.4717790000000  0.4331160000000  0.5114130000000 1.0
C      1  0.5668840000000  0.5114130000000  0.5282210000000 1.0
C      1  0.5668840000000  0.4885870000000  0.4717790000000 1.0
C      1  0.4331160000000  0.4885870000000  0.5282210000000 1.0
C      1  0.4885870000000  0.4717790000000  0.5668840000000 1.0
C      1  0.4885870000000  0.5282210000000  0.4331160000000 1.0
C      1  0.5114130000000  0.5282210000000  0.5668840000000 1.0
C      1  0.5282210000000  0.4331160000000  0.4885870000000 1.0
C      1  0.5282210000000  0.5668840000000  0.5114130000000 1.0
C      1  0.4717790000000  0.5668840000000  0.4885870000000 1.0
C      1  0.4717790000000  0.5114130000000  0.4331160000000 1.0
C      1  0.4331160000000  0.4717790000000  0.5114130000000 1.0
C      1  0.5114130000000  0.4331160000000  0.4717790000000 1.0
C      1  0.5282210000000  0.5114130000000  0.5668840000000 1.0
C      1  0.4717790000000  0.4885870000000  0.5668840000000 1.0
C      1  0.5282210000000  0.4885870000000  0.4331160000000 1.0
C      1  0.5668840000000  0.4717790000000  0.4885870000000 1.0
C      1  0.4331160000000  0.5282210000000  0.4885870000000 1.0
C      1  0.5668840000000  0.5282210000000  0.5114130000000 1.0
C      1  0.4885870000000  0.4331160000000  0.5282210000000 1.0
C      1  0.5114130000000  0.5668840000000  0.5282210000000 1.0
C      1  0.4885870000000  0.5668840000000  0.4717790000000 1.0
C      1  0.4969190000000  0.4518720000000  0.4352910000000 1.0
C      1  0.4518720000000  0.4352910000000  0.4969190000000 1.0
C      1  0.4352910000000  0.4969190000000  0.4518720000000 1.0
C      1  0.5030810000000  0.4518720000000  0.5647090000000 1.0
C      1  0.5030810000000  0.5481280000000  0.4352910000000 1.0
C      1  0.4969190000000  0.5481280000000  0.5647090000000 1.0
C      1  0.5481280000000  0.4352910000000  0.5030810000000 1.0
C      1  0.5481280000000  0.5647090000000  0.4969190000000 1.0
C      1  0.4518720000000  0.5647090000000  0.5030810000000 1.0
C      1  0.5647090000000  0.4969190000000  0.5481280000000 1.0
C      1  0.5647090000000  0.5030810000000  0.4518720000000 1.0
C      1  0.4352910000000  0.5030810000000  0.5481280000000 1.0
C      1  0.4352910000000  0.4518720000000  0.4969190000000 1.0
C      1  0.4969190000000  0.4352910000000  0.4518720000000 1.0
C      1  0.4518720000000  0.4969190000000  0.4352910000000 1.0
C      1  0.5647090000000  0.4518720000000  0.5030810000000 1.0
C      1  0.4352910000000  0.5481280000000  0.5030810000000 1.0
C      1  0.5647090000000  0.5481280000000  0.4969190000000 1.0
C      1  0.5030810000000  0.4352910000000  0.5481280000000 1.0
C      1  0.4969190000000  0.5647090000000  0.5481280000000 1.0
C      1  0.5030810000000  0.5647090000000  0.4518720000000 1.0
C      1  0.5481280000000  0.4969190000000  0.5647090000000 1.0
C      1  0.4518720000000  0.5030810000000  0.5647090000000 1.0
C      1  0.5481280000000  0.5030810000000  0.4352910000000 1.0
C      1  0.5722110000000  0.5010690000000  0.4768310000000 1.0
C      1  0.5010690000000  0.4768310000000  0.5722110000000 1.0
C      1  0.4768310000000  0.5722110000000  0.5010690000000 1.0
C      1  0.4277890000000  0.5010690000000  0.5231690000000 1.0
C      1  0.4277890000000  0.4989310000000  0.4768310000000 1.0
C      1  0.5722110000000  0.4989310000000  0.5231690000000 1.0
C      1  0.4989310000000  0.4768310000000  0.4277890000000 1.0
C      1  0.4989310000000  0.5231690000000  0.5722110000000 1.0
C      1  0.5010690000000  0.5231690000000  0.4277890000000 1.0
C      1  0.5231690000000  0.5722110000000  0.4989310000000 1.0
C      1  0.5231690000000  0.4277890000000  0.5010690000000 1.0
C      1  0.4768310000000  0.4277890000000  0.4989310000000 1.0
C      1  0.4768310000000  0.5010690000000  0.5722110000000 1.0
C      1  0.5722110000000  0.4768310000000  0.5010690000000 1.0
C      1  0.5010690000000  0.5722110000000  0.4768310000000 1.0
C      1  0.5231690000000  0.5010690000000  0.4277890000000 1.0
C      1  0.4768310000000  0.4989310000000  0.4277890000000 1.0
C      1  0.5231690000000  0.4989310000000  0.5722110000000 1.0
C      1  0.4277890000000  0.4768310000000  0.4989310000000 1.0
C      1  0.5722110000000  0.5231690000000  0.4989310000000 1.0
C      1  0.4277890000000  0.5231690000000  0.5010690000000 1.0
C      1  0.4989310000000  0.5722110000000  0.5231690000000 1.0
C      1  0.5010690000000  0.4277890000000  0.5231690000000 1.0
C      1  0.4989310000000  0.4277890000000  0.4768310000000 1.0
C      1  0.5170560000000  0.5462590000000  0.5073640000000 1.0
C      1  0.5462590000000  0.5073640000000  0.5170560000000 1.0
C      1  0.5073640000000  0.5170560000000  0.5462590000000 1.0
C      1  0.4829440000000  0.5462590000000  0.4926360000000 1.0
C      1  0.4829440000000  0.4537410000000  0.5073640000000 1.0
C      1  0.5170560000000  0.4537410000000  0.4926360000000 1.0
C      1  0.4537410000000  0.5073640000000  0.4829440000000 1.0
C      1  0.4537410000000  0.4926360000000  0.5170560000000 1.0
C      1  0.5462590000000  0.4926360000000  0.4829440000000 1.0
C      1  0.4926360000000  0.5170560000000  0.4537410000000 1.0
C      1  0.4926360000000  0.4829440000000  0.5462590000000 1.0
C      1  0.5073640000000  0.4829440000000  0.4537410000000 1.0
C      1  0.5073640000000  0.5462590000000  0.5170560000000 1.0
C      1  0.5170560000000  0.5073640000000  0.5462590000000 1.0
C      1  0.5462590000000  0.5170560000000  0.5073640000000 1.0
C      1  0.4926360000000  0.5462590000000  0.4829440000000 1.0
C      1  0.5073640000000  0.4537410000000  0.4829440000000 1.0
C      1  0.4926360000000  0.4537410000000  0.5170560000000 1.0
C      1  0.4829440000000  0.5073640000000  0.4537410000000 1.0
C      1  0.5170560000000  0.4926360000000  0.4537410000000 1.0
C      1  0.4829440000000  0.4926360000000  0.5462590000000 1.0
C      1  0.4537410000000  0.5170560000000  0.4926360000000 1.0
C      1  0.5462590000000  0.4829440000000  0.4926360000000 1.0
C      1  0.4537410000000  0.4829440000000  0.5073640000000 1.0
C      1  0.4493120000000  0.5405130000000  0.5608220000000 1.0
C      1  0.5405130000000  0.5608220000000  0.4493120000000 1.0
C      1  0.5608220000000  0.4493120000000  0.5405130000000 1.0
C      1  0.5506880000000  0.5405130000000  0.4391780000000 1.0
C      1  0.5506880000000  0.4594870000000  0.5608220000000 1.0
C      1  0.4493120000000  0.4594870000000  0.4391780000000 1.0
C      1  0.4594870000000  0.5608220000000  0.5506880000000 1.0
C      1  0.4594870000000  0.4391780000000  0.4493120000000 1.0
C      1  0.5405130000000  0.4391780000000  0.5506880000000 1.0
C      1  0.4391780000000  0.4493120000000  0.4594870000000 1.0
C      1  0.4391780000000  0.5506880000000  0.5405130000000 1.0
C      1  0.5608220000000  0.5506880000000  0.4594870000000 1.0
C      1  0.5608220000000  0.5405130000000  0.4493120000000 1.0
C      1  0.4493120000000  0.5608220000000  0.5405130000000 1.0
C      1  0.5405130000000  0.4493120000000  0.5608220000000 1.0
C      1  0.4391780000000  0.5405130000000  0.5506880000000 1.0
C      1  0.5608220000000  0.4594870000000  0.5506880000000 1.0
C      1  0.4391780000000  0.4594870000000  0.4493120000000 1.0
C      1  0.5506880000000  0.5608220000000  0.4594870000000 1.0
C      1  0.4493120000000  0.4391780000000  0.4594870000000 1.0
C      1  0.5506880000000  0.4391780000000  0.5405130000000 1.0
C      1  0.4594870000000  0.4493120000000  0.4391780000000 1.0
C      1  0.5405130000000  0.5506880000000  0.4391780000000 1.0
C      1  0.4594870000000  0.5506880000000  0.5608220000000 1.0
C      1  0.5675650000000  0.4719400000000  0.5477880000000 1.0
C      1  0.4719400000000  0.5477880000000  0.5675650000000 1.0
C      1  0.5477880000000  0.5675650000000  0.4719400000000 1.0
C      1  0.4324350000000  0.4719400000000  0.4522120000000 1.0
C      1  0.4324350000000  0.5280600000000  0.5477880000000 1.0
C      1  0.5675650000000  0.5280600000000  0.4522120000000 1.0
C      1  0.5280600000000  0.5477880000000  0.4324350000000 1.0
C      1  0.5280600000000  0.4522120000000  0.5675650000000 1.0
C      1  0.4719400000000  0.4522120000000  0.4324350000000 1.0
C      1  0.4522120000000  0.5675650000000  0.5280600000000 1.0
C      1  0.4522120000000  0.4324350000000  0.4719400000000 1.0
C      1  0.5477880000000  0.4324350000000  0.5280600000000 1.0
C      1  0.5477880000000  0.4719400000000  0.5675650000000 1.0
C      1  0.5675650000000  0.5477880000000  0.4719400000000 1.0
C      1  0.4719400000000  0.5675650000000  0.5477880000000 1.0
C      1  0.4522120000000  0.4719400000000  0.4324350000000 1.0
C      1  0.5477880000000  0.5280600000000  0.4324350000000 1.0
C      1  0.4522120000000  0.5280600000000  0.5675650000000 1.0
C      1  0.4324350000000  0.5477880000000  0.5280600000000 1.0
C      1  0.5675650000000  0.4522120000000  0.5280600000000 1.0
C      1  0.4324350000000  0.4522120000000  0.4719400000000 1.0
C      1  0.5280600000000  0.5675650000000  0.4522120000000 1.0
C      1  0.4719400000000  0.4324350000000  0.4522120000000 1.0
C      1  0.5280600000000  0.4324350000000  0.5477880000000 1.0
C      1  0.4932160000000  0.5581320000000  0.4328160000000 1.0
C      1  0.5581320000000  0.4328160000000  0.4932160000000 1.0
C      1  0.4328160000000  0.4932160000000  0.5581320000000 1.0
C      1  0.5067840000000  0.5581320000000  0.5671840000000 1.0
C      1  0.5067840000000  0.4418680000000  0.4328160000000 1.0
C      1  0.4932160000000  0.4418680000000  0.5671840000000 1.0
C      1  0.4418680000000  0.4328160000000  0.5067840000000 1.0
C      1  0.4418680000000  0.5671840000000  0.4932160000000 1.0
C      1  0.5581320000000  0.5671840000000  0.5067840000000 1.0
C      1  0.5671840000000  0.4932160000000  0.4418680000000 1.0
C      1  0.5671840000000  0.5067840000000  0.5581320000000 1.0
C      1  0.4328160000000  0.5067840000000  0.4418680000000 1.0
C      1  0.4328160000000  0.5581320000000  0.4932160000000 1.0
C      1  0.4932160000000  0.4328160000000  0.5581320000000 1.0
C      1  0.5581320000000  0.4932160000000  0.4328160000000 1.0
C      1  0.5671840000000  0.5581320000000  0.5067840000000 1.0
C      1  0.4328160000000  0.4418680000000  0.5067840000000 1.0
C      1  0.5671840000000  0.4418680000000  0.4932160000000 1.0
C      1  0.5067840000000  0.4328160000000  0.4418680000000 1.0
C      1  0.4932160000000  0.5671840000000  0.4418680000000 1.0
C      1  0.5067840000000  0.5671840000000  0.5581320000000 1.0
C      1  0.4418680000000  0.4932160000000  0.5671840000000 1.0
C      1  0.5581320000000  0.5067840000000  0.5671840000000 1.0
C      1  0.4418680000000  0.5067840000000  0.4328160000000 1.0
C      1  0.5162800000000  0.5539170000000  0.4363340000000 1.0
C      1  0.5539170000000  0.4363340000000  0.5162800000000 1.0
C      1  0.4363340000000  0.5162800000000  0.5539170000000 1.0
C      1  0.4837200000000  0.5539170000000  0.5636660000000 1.0
C      1  0.4837200000000  0.4460830000000  0.4363340000000 1.0
C      1  0.5162800000000  0.4460830000000  0.5636660000000 1.0
C      1  0.4460830000000  0.4363340000000  0.4837200000000 1.0
C      1  0.4460830000000  0.5636660000000  0.5162800000000 1.0
C      1  0.5539170000000  0.5636660000000  0.4837200000000 1.0
C      1  0.5636660000000  0.5162800000000  0.4460830000000 1.0
C      1  0.5636660000000  0.4837200000000  0.5539170000000 1.0
C      1  0.4363340000000  0.4837200000000  0.4460830000000 1.0
C      1  0.4363340000000  0.5539170000000  0.5162800000000 1.0
C      1  0.5162800000000  0.4363340000000  0.5539170000000 1.0
C      1  0.5539170000000  0.5162800000000  0.4363340000000 1.0
C      1  0.5636660000000  0.5539170000000  0.4837200000000 1.0
C      1  0.4363340000000  0.4460830000000  0.4837200000000 1.0
C      1  0.5636660000000  0.4460830000000  0.5162800000000 1.0
C      1  0.4837200000000  0.4363340000000  0.4460830000000 1.0
C      1  0.5162800000000  0.5636660000000  0.4460830000000 1.0
C      1  0.4837200000000  0.5636660000000  0.5539170000000 1.0
C      1  0.4460830000000  0.5162800000000  0.5636660000000 1.0
C      1  0.5539170000000  0.4837200000000  0.5636660000000 1.0
C      1  0.4460830000000  0.4837200000000  0.4363340000000 1.0
C      1  0.5447760000000  0.5346740000000  0.5245530000000 1.0
C      1  0.5346740000000  0.5245530000000  0.5447760000000 1.0
C      1  0.5245530000000  0.5447760000000  0.5346740000000 1.0
C      1  0.4552240000000  0.5346740000000  0.4754470000000 1.0
C      1  0.4552240000000  0.4653260000000  0.5245530000000 1.0
C      1  0.5447760000000  0.4653260000000  0.4754470000000 1.0
C      1  0.4653260000000  0.5245530000000  0.4552240000000 1.0
C      1  0.4653260000000  0.4754470000000  0.5447760000000 1.0
C      1  0.5346740000000  0.4754470000000  0.4552240000000 1.0
C      1  0.4754470000000  0.5447760000000  0.4653260000000 1.0
C      1  0.4754470000000  0.4552240000000  0.5346740000000 1.0
C      1  0.5245530000000  0.4552240000000  0.4653260000000 1.0
C      1  0.5245530000000  0.5346740000000  0.5447760000000 1.0
C      1  0.5447760000000  0.5245530000000  0.5346740000000 1.0
C      1  0.5346740000000  0.5447760000000  0.5245530000000 1.0
C      1  0.4754470000000  0.5346740000000  0.4552240000000 1.0
C      1  0.5245530000000  0.4653260000000  0.4552240000000 1.0
C      1  0.4754470000000  0.4653260000000  0.5447760000000 1.0
C      1  0.4552240000000  0.5245530000000  0.4653260000000 1.0
C      1  0.5447760000000  0.4754470000000  0.4653260000000 1.0
C      1  0.4552240000000  0.4754470000000  0.5346740000000 1.0
C      1  0.4653260000000  0.5447760000000  0.4754470000000 1.0
C      1  0.5346740000000  0.4552240000000  0.4754470000000 1.0
C      1  0.4653260000000  0.4552240000000  0.5245530000000 1.0
C      1  0.5005620000000  0.5514630000000  0.4596430000000 1.0
C      1  0.5514630000000  0.4596430000000  0.5005620000000 1.0
C      1  0.4596430000000  0.5005620000000  0.5514630000000 1.0
C      1  0.4994380000000  0.5514630000000  0.5403570000000 1.0
C      1  0.4994380000000  0.4485370000000  0.4596430000000 1.0
C      1  0.5005620000000  0.4485370000000  0.5403570000000 1.0
C      1  0.4485370000000  0.4596430000000  0.4994380000000 1.0
C      1  0.4485370000000  0.5403570000000  0.5005620000000 1.0
C      1  0.5514630000000  0.5403570000000  0.4994380000000 1.0
C      1  0.5403570000000  0.5005620000000  0.4485370000000 1.0
C      1  0.5403570000000  0.4994380000000  0.5514630000000 1.0
C      1  0.4596430000000  0.4994380000000  0.4485370000000 1.0
C      1  0.4596430000000  0.5514630000000  0.5005620000000 1.0
C      1  0.5005620000000  0.4596430000000  0.5514630000000 1.0
C      1  0.5514630000000  0.5005620000000  0.4596430000000 1.0
C      1  0.5403570000000  0.5514630000000  0.4994380000000 1.0
C      1  0.4596430000000  0.4485370000000  0.4994380000000 1.0
C      1  0.5403570000000  0.4485370000000  0.5005620000000 1.0
C      1  0.4994380000000  0.4596430000000  0.4485370000000 1.0
C      1  0.5005620000000  0.5403570000000  0.4485370000000 1.0
C      1  0.4994380000000  0.5403570000000  0.5514630000000 1.0
C      1  0.4485370000000  0.5005620000000  0.5403570000000 1.0
C      1  0.5514630000000  0.4994380000000  0.5403570000000 1.0
C      1  0.4485370000000  0.4994380000000  0.4596430000000 1.0
C      1  0.4538840000000  0.4836270000000  0.4935260000000 1.0
C      1  0.4836270000000  0.4935260000000  0.4538840000000 1.0
C      1  0.4935260000000  0.4538840000000  0.4836270000000 1.0
C      1  0.5461160000000  0.4836270000000  0.5064740000000 1.0
C      1  0.5461160000000  0.5163730000000  0.4935260000000 1.0
C      1  0.4538840000000  0.5163730000000  0.5064740000000 1.0
C      1  0.5163730000000  0.4935260000000  0.5461160000000 1.0
C      1  0.5163730000000  0.5064740000000  0.4538840000000 1.0
C      1  0.4836270000000  0.5064740000000  0.5461160000000 1.0
C      1  0.5064740000000  0.4538840000000  0.5163730000000 1.0
C      1  0.5064740000000  0.5461160000000  0.4836270000000 1.0
C      1  0.4935260000000  0.5461160000000  0.5163730000000 1.0
C      1  0.4935260000000  0.4836270000000  0.4538840000000 1.0
C      1  0.4538840000000  0.4935260000000  0.4836270000000 1.0
C      1  0.4836270000000  0.4538840000000  0.4935260000000 1.0
C      1  0.5064740000000  0.4836270000000  0.5461160000000 1.0
C      1  0.4935260000000  0.5163730000000  0.5461160000000 1.0
C      1  0.5064740000000  0.5163730000000  0.4538840000000 1.0
C      1  0.5461160000000  0.4935260000000  0.5163730000000 1.0
C      1  0.4538840000000  0.5064740000000  0.5163730000000 1.0
C      1  0.5461160000000  0.5064740000000  0.4836270000000 1.0
C      1  0.5163730000000  0.4538840000000  0.5064740000000 1.0
C      1  0.4836270000000  0.5461160000000  0.5064740000000 1.0
C      1  0.5163730000000  0.5461160000000  0.4935260000000 1.0
C      1  0.5145120000000  0.4738170000000  0.5663960000000 1.0
C      1  0.4738170000000  0.5663960000000  0.5145120000000 1.0
C      1  0.5663960000000  0.5145120000000  0.4738170000000 1.0
C      1  0.4854880000000  0.4738170000000  0.4336040000000 1.0
C      1  0.4854880000000  0.5261830000000  0.5663960000000 1.0
C      1  0.5145120000000  0.5261830000000  0.4336040000000 1.0
C      1  0.5261830000000  0.5663960000000  0.4854880000000 1.0
C      1  0.5261830000000  0.4336040000000  0.5145120000000 1.0
C      1  0.4738170000000  0.4336040000000  0.4854880000000 1.0
C      1  0.4336040000000  0.5145120000000  0.5261830000000 1.0
C      1  0.4336040000000  0.4854880000000  0.4738170000000 1.0
C      1  0.5663960000000  0.4854880000000  0.5261830000000 1.0
C      1  0.5663960000000  0.4738170000000  0.5145120000000 1.0
C      1  0.5145120000000  0.5663960000000  0.4738170000000 1.0
C      1  0.4738170000000  0.5145120000000  0.5663960000000 1.0
C      1  0.4336040000000  0.4738170000000  0.4854880000000 1.0
C      1  0.5663960000000  0.5261830000000  0.4854880000000 1.0
C      1  0.4336040000000  0.5261830000000  0.5145120000000 1.0
C      1  0.4854880000000  0.5663960000000  0.5261830000000 1.0
C      1  0.5145120000000  0.4336040000000  0.5261830000000 1.0
C      1  0.4854880000000  0.4336040000000  0.4738170000000 1.0
C      1  0.5261830000000  0.5145120000000  0.4336040000000 1.0
C      1  0.4738170000000  0.4854880000000  0.4336040000000 1.0
C      1  0.5261830000000  0.4854880000000  0.5663960000000 1.0
C      1  0.4767530000000  0.4767530000000  0.5706790000000 1.0
C      1  0.5706790000000  0.4767530000000  0.4767530000000 1.0
C      1  0.4767530000000  0.5706790000000  0.4767530000000 1.0
C      1  0.4293210000000  0.4767530000000  0.5232470000000 1.0
C      1  0.4293210000000  0.5232470000000  0.4767530000000 1.0
C      1  0.5706790000000  0.5232470000000  0.5232470000000 1.0
C      1  0.5232470000000  0.4767530000000  0.4293210000000 1.0
C      1  0.5232470000000  0.5232470000000  0.5706790000000 1.0
C      1  0.4767530000000  0.5232470000000  0.4293210000000 1.0
C      1  0.5232470000000  0.5706790000000  0.5232470000000 1.0
C      1  0.5232470000000  0.4293210000000  0.4767530000000 1.0
C      1  0.4767530000000  0.4293210000000  0.5232470000000 1.0
END
