TITL C-1379265-1223-90 -6.76563068324146e-07 1000000 -3269.1726927609 0 0 440 (Th) n - 1
REM
REM in /nfs/bkarasulu/CARBON/AIRSS/Generating-Clusters/GAP-ML-2020/Higher-Symm/Selected-Sizes/TryA-Only_Ih-Symm/Larger-Clusters/Try2-MINAMP_6A
REM
REM
REM
REM
REM
REM ./C.cell (31579ac4e95a012ec27f3239692ae8a5)
REM
REM compiler GCC version 9.2.1 20190827 (Red Hat 9.2.1-1)
REM options -cpp -mtune=generic -march=x86-64 -g -O0 -fpre-include=/usr/include/finclude/math-vector-fortran.h
REM seed -1259793407 -1282006695 1975843916 -204982661 270594768 -641518785 425307706 2110449676 1232264415 2013497304 394464833 -1917961855 -812211663 1382949966 -1840019568 -1321107422 -166109760 671917553 1689680815 -936476608 276558050 1344222795 2130632353 -657961481 1587808655 1122014394 382311255 -1060157808 1318349428 1850676891 1149886616 -1749745938 -139363572
REM
CELL 1.54180  100.00000  100.00000  100.00000   90.00000   90.00000   90.00000
LATT -1
SFAC C  
C      1  0.5271840000000  0.4726010000000  0.4232650000000 1.0
C      1  0.4725600000000  0.4235300000000  0.5269610000000 1.0
C      1  0.4234880000000  0.5272250000000  0.4723370000000 1.0
C      1  0.5271840000000  0.5278450000000  0.5766520000000 1.0
C      1  0.4731800000000  0.4726010000000  0.5766520000000 1.0
C      1  0.4731800000000  0.5278450000000  0.4232650000000 1.0
C      1  0.4725600000000  0.5769170000000  0.4729570000000 1.0
C      1  0.5278040000000  0.4235300000000  0.4729570000000 1.0
C      1  0.5278040000000  0.5769170000000  0.5269610000000 1.0
C      1  0.4234880000000  0.4732210000000  0.5275810000000 1.0
C      1  0.5768750000000  0.5272250000000  0.5275810000000 1.0
C      1  0.5768750000000  0.4732210000000  0.4723370000000 1.0
C      1  0.4731800000000  0.4726010000000  0.4232650000000 1.0
C      1  0.5278040000000  0.4235300000000  0.5269610000000 1.0
C      1  0.5768750000000  0.5272250000000  0.4723370000000 1.0
C      1  0.4731800000000  0.5278450000000  0.5766520000000 1.0
C      1  0.5271840000000  0.4726010000000  0.5766520000000 1.0
C      1  0.5271840000000  0.5278450000000  0.4232650000000 1.0
C      1  0.5278040000000  0.5769170000000  0.4729570000000 1.0
C      1  0.4725600000000  0.4235300000000  0.4729570000000 1.0
C      1  0.4725600000000  0.5769170000000  0.5269610000000 1.0
C      1  0.5768750000000  0.4732210000000  0.5275810000000 1.0
C      1  0.4234880000000  0.5272250000000  0.5275810000000 1.0
C      1  0.4234880000000  0.4732210000000  0.4723370000000 1.0
C      1  0.4832590000000  0.4363690000000  0.4498480000000 1.0
C      1  0.4363270000000  0.4501120000000  0.4830360000000 1.0
C      1  0.4500710000000  0.4833010000000  0.4361040000000 1.0
C      1  0.4832590000000  0.5640770000000  0.5500700000000 1.0
C      1  0.5171040000000  0.4363690000000  0.5500700000000 1.0
C      1  0.5171040000000  0.5640770000000  0.4498480000000 1.0
C      1  0.4363270000000  0.5503340000000  0.5168810000000 1.0
C      1  0.5640360000000  0.4501120000000  0.5168810000000 1.0
C      1  0.5640360000000  0.5503340000000  0.4830360000000 1.0
C      1  0.4500710000000  0.5171450000000  0.5638130000000 1.0
C      1  0.5502930000000  0.4833010000000  0.5638130000000 1.0
C      1  0.5502930000000  0.5171450000000  0.4361040000000 1.0
C      1  0.5171040000000  0.4363690000000  0.4498480000000 1.0
C      1  0.5640360000000  0.4501120000000  0.4830360000000 1.0
C      1  0.5502930000000  0.4833010000000  0.4361040000000 1.0
C      1  0.5171040000000  0.5640770000000  0.5500700000000 1.0
C      1  0.4832590000000  0.4363690000000  0.5500700000000 1.0
C      1  0.4832590000000  0.5640770000000  0.4498480000000 1.0
C      1  0.5640360000000  0.5503340000000  0.5168810000000 1.0
C      1  0.4363270000000  0.4501120000000  0.5168810000000 1.0
C      1  0.4363270000000  0.5503340000000  0.4830360000000 1.0
C      1  0.5502930000000  0.5171450000000  0.5638130000000 1.0
C      1  0.4500710000000  0.4833010000000  0.5638130000000 1.0
C      1  0.4500710000000  0.5171450000000  0.4361040000000 1.0
C      1  0.5301040000000  0.4184730000000  0.4860560000000 1.0
C      1  0.4184320000000  0.4863210000000  0.5298810000000 1.0
C      1  0.4862790000000  0.5301450000000  0.4182090000000 1.0
C      1  0.5301040000000  0.5819730000000  0.5138610000000 1.0
C      1  0.4702590000000  0.4184730000000  0.5138610000000 1.0
C      1  0.4702590000000  0.5819730000000  0.4860560000000 1.0
C      1  0.4184320000000  0.5141260000000  0.4700360000000 1.0
C      1  0.5819310000000  0.4863210000000  0.4700360000000 1.0
C      1  0.5819310000000  0.5141260000000  0.5298810000000 1.0
C      1  0.4862790000000  0.4703010000000  0.5817080000000 1.0
C      1  0.5140840000000  0.5301450000000  0.5817080000000 1.0
C      1  0.5140840000000  0.4703010000000  0.4182090000000 1.0
C      1  0.4702590000000  0.4184730000000  0.4860560000000 1.0
C      1  0.5819310000000  0.4863210000000  0.5298810000000 1.0
C      1  0.5140840000000  0.5301450000000  0.4182090000000 1.0
C      1  0.4702590000000  0.5819730000000  0.5138610000000 1.0
C      1  0.5301040000000  0.4184730000000  0.5138610000000 1.0
C      1  0.5301040000000  0.5819730000000  0.4860560000000 1.0
C      1  0.5819310000000  0.5141260000000  0.4700360000000 1.0
C      1  0.4184320000000  0.4863210000000  0.4700360000000 1.0
C      1  0.4184320000000  0.5141260000000  0.5298810000000 1.0
C      1  0.5140840000000  0.4703010000000  0.5817080000000 1.0
C      1  0.4862790000000  0.5301450000000  0.5817080000000 1.0
C      1  0.4862790000000  0.4703010000000  0.4182090000000 1.0
C      1  0.4470410000000  0.4934510000000  0.5411530000000 1.0
C      1  0.4934100000000  0.5414170000000  0.4468180000000 1.0
C      1  0.5413760000000  0.4470820000000  0.4931870000000 1.0
C      1  0.4470410000000  0.5069950000000  0.4587650000000 1.0
C      1  0.5533230000000  0.4934510000000  0.4587650000000 1.0
C      1  0.5533230000000  0.5069950000000  0.5411530000000 1.0
C      1  0.4934100000000  0.4590290000000  0.5531000000000 1.0
C      1  0.5069530000000  0.5414170000000  0.5531000000000 1.0
C      1  0.5069530000000  0.4590290000000  0.4468180000000 1.0
C      1  0.5413760000000  0.5533640000000  0.5067300000000 1.0
C      1  0.4589880000000  0.4470820000000  0.5067300000000 1.0
C      1  0.4589880000000  0.5533640000000  0.4931870000000 1.0
C      1  0.5533230000000  0.4934510000000  0.5411530000000 1.0
C      1  0.5069530000000  0.5414170000000  0.4468180000000 1.0
C      1  0.4589880000000  0.4470820000000  0.4931870000000 1.0
C      1  0.5533230000000  0.5069950000000  0.4587650000000 1.0
C      1  0.4470410000000  0.4934510000000  0.4587650000000 1.0
C      1  0.4470410000000  0.5069950000000  0.5411530000000 1.0
C      1  0.5069530000000  0.4590290000000  0.5531000000000 1.0
C      1  0.4934100000000  0.5414170000000  0.5531000000000 1.0
C      1  0.4934100000000  0.4590290000000  0.4468180000000 1.0
C      1  0.4589880000000  0.5533640000000  0.5067300000000 1.0
C      1  0.5413760000000  0.4470820000000  0.5067300000000 1.0
C      1  0.5413760000000  0.5533640000000  0.4931870000000 1.0
C      1  0.4705960000000  0.5137930000000  0.5759950000000 1.0
C      1  0.5137520000000  0.5762590000000  0.4703730000000 1.0
C      1  0.5762180000000  0.4706370000000  0.5135290000000 1.0
C      1  0.4705960000000  0.4866530000000  0.4239220000000 1.0
C      1  0.5297680000000  0.5137930000000  0.4239220000000 1.0
C      1  0.5297680000000  0.4866530000000  0.5759950000000 1.0
C      1  0.5137520000000  0.4241870000000  0.5295450000000 1.0
C      1  0.4866120000000  0.5762590000000  0.5295450000000 1.0
C      1  0.4866120000000  0.4241870000000  0.4703730000000 1.0
C      1  0.5762180000000  0.5298090000000  0.4863890000000 1.0
C      1  0.4241460000000  0.4706370000000  0.4863890000000 1.0
C      1  0.4241460000000  0.5298090000000  0.5135290000000 1.0
C      1  0.5297680000000  0.5137930000000  0.5759950000000 1.0
C      1  0.4866120000000  0.5762590000000  0.4703730000000 1.0
C      1  0.4241460000000  0.4706370000000  0.5135290000000 1.0
C      1  0.5297680000000  0.4866530000000  0.4239220000000 1.0
C      1  0.4705960000000  0.5137930000000  0.4239220000000 1.0
C      1  0.4705960000000  0.4866530000000  0.5759950000000 1.0
C      1  0.4866120000000  0.4241870000000  0.5295450000000 1.0
C      1  0.5137520000000  0.5762590000000  0.5295450000000 1.0
C      1  0.5137520000000  0.4241870000000  0.4703730000000 1.0
C      1  0.4241460000000  0.5298090000000  0.4863890000000 1.0
C      1  0.5762180000000  0.4706370000000  0.4863890000000 1.0
C      1  0.5762180000000  0.5298090000000  0.5135290000000 1.0
C      1  0.4531660000000  0.5310790000000  0.5646120000000 1.0
C      1  0.5310380000000  0.5648760000000  0.4529430000000 1.0
C      1  0.5648350000000  0.4532070000000  0.5308150000000 1.0
C      1  0.4531660000000  0.4693670000000  0.4353060000000 1.0
C      1  0.5471980000000  0.5310790000000  0.4353060000000 1.0
C      1  0.5471980000000  0.4693670000000  0.5646120000000 1.0
C      1  0.5310380000000  0.4355700000000  0.5469750000000 1.0
C      1  0.4693260000000  0.5648760000000  0.5469750000000 1.0
C      1  0.4693260000000  0.4355700000000  0.4529430000000 1.0
C      1  0.5648350000000  0.5472390000000  0.4691030000000 1.0
C      1  0.4355290000000  0.4532070000000  0.4691030000000 1.0
C      1  0.4355290000000  0.5472390000000  0.5308150000000 1.0
C      1  0.5471980000000  0.5310790000000  0.5646120000000 1.0
C      1  0.4693260000000  0.5648760000000  0.4529430000000 1.0
C      1  0.4355290000000  0.4532070000000  0.5308150000000 1.0
C      1  0.5471980000000  0.4693670000000  0.4353060000000 1.0
C      1  0.4531660000000  0.5310790000000  0.4353060000000 1.0
C      1  0.4531660000000  0.4693670000000  0.5646120000000 1.0
C      1  0.4693260000000  0.4355700000000  0.5469750000000 1.0
C      1  0.5310380000000  0.5648760000000  0.5469750000000 1.0
C      1  0.5310380000000  0.4355700000000  0.4529430000000 1.0
C      1  0.4355290000000  0.5472390000000  0.4691030000000 1.0
C      1  0.5648350000000  0.4532070000000  0.4691030000000 1.0
C      1  0.5648350000000  0.5472390000000  0.5308150000000 1.0
C      1  0.4828240000000  0.5071560000000  0.5798200000000 1.0
C      1  0.5071150000000  0.5800840000000  0.4826010000000 1.0
C      1  0.5800430000000  0.4828650000000  0.5068920000000 1.0
C      1  0.4828240000000  0.4932900000000  0.4200980000000 1.0
C      1  0.5175390000000  0.5071560000000  0.4200980000000 1.0
C      1  0.5175390000000  0.4932900000000  0.5798200000000 1.0
C      1  0.5071150000000  0.4203620000000  0.5173160000000 1.0
C      1  0.4932480000000  0.5800840000000  0.5173160000000 1.0
C      1  0.4932480000000  0.4203620000000  0.4826010000000 1.0
C      1  0.5800430000000  0.5175810000000  0.4930250000000 1.0
C      1  0.4203210000000  0.4828650000000  0.4930250000000 1.0
C      1  0.4203210000000  0.5175810000000  0.5068920000000 1.0
C      1  0.5175390000000  0.5071560000000  0.5798200000000 1.0
C      1  0.4932480000000  0.5800840000000  0.4826010000000 1.0
C      1  0.4203210000000  0.4828650000000  0.5068920000000 1.0
C      1  0.5175390000000  0.4932900000000  0.4200980000000 1.0
C      1  0.4828240000000  0.5071560000000  0.4200980000000 1.0
C      1  0.4828240000000  0.4932900000000  0.5798200000000 1.0
C      1  0.4932480000000  0.4203620000000  0.5173160000000 1.0
C      1  0.5071150000000  0.5800840000000  0.5173160000000 1.0
C      1  0.5071150000000  0.4203620000000  0.4826010000000 1.0
C      1  0.4203210000000  0.5175810000000  0.4930250000000 1.0
C      1  0.5800430000000  0.4828650000000  0.4930250000000 1.0
C      1  0.5800430000000  0.5175810000000  0.5068920000000 1.0
C      1  0.5696330000000  0.4653430000000  0.4632730000000 1.0
C      1  0.4653020000000  0.4635370000000  0.5694100000000 1.0
C      1  0.4634960000000  0.5696740000000  0.4650780000000 1.0
C      1  0.5696330000000  0.5351030000000  0.5366450000000 1.0
C      1  0.4307310000000  0.4653430000000  0.5366450000000 1.0
C      1  0.4307310000000  0.5351030000000  0.4632730000000 1.0
C      1  0.4653020000000  0.5369090000000  0.4305080000000 1.0
C      1  0.5350620000000  0.4635370000000  0.4305080000000 1.0
C      1  0.5350620000000  0.5369090000000  0.5694100000000 1.0
C      1  0.4634960000000  0.4307720000000  0.5348390000000 1.0
C      1  0.5368680000000  0.5696740000000  0.5348390000000 1.0
C      1  0.5368680000000  0.4307720000000  0.4650780000000 1.0
C      1  0.4307310000000  0.4653430000000  0.4632730000000 1.0
C      1  0.5350620000000  0.4635370000000  0.5694100000000 1.0
C      1  0.5368680000000  0.5696740000000  0.4650780000000 1.0
C      1  0.4307310000000  0.5351030000000  0.5366450000000 1.0
C      1  0.5696330000000  0.4653430000000  0.5366450000000 1.0
C      1  0.5696330000000  0.5351030000000  0.4632730000000 1.0
C      1  0.5350620000000  0.5369090000000  0.4305080000000 1.0
C      1  0.4653020000000  0.4635370000000  0.4305080000000 1.0
C      1  0.4653020000000  0.5369090000000  0.5694100000000 1.0
C      1  0.5368680000000  0.4307720000000  0.5348390000000 1.0
C      1  0.4634960000000  0.5696740000000  0.5348390000000 1.0
C      1  0.4634960000000  0.4307720000000  0.4650780000000 1.0
C      1  0.5526250000000  0.4398410000000  0.4848320000000 1.0
C      1  0.4398000000000  0.4850960000000  0.5524020000000 1.0
C      1  0.4850550000000  0.5526660000000  0.4395770000000 1.0
C      1  0.5526250000000  0.5606050000000  0.5150860000000 1.0
C      1  0.4477390000000  0.4398410000000  0.5150860000000 1.0
C      1  0.4477390000000  0.5606050000000  0.4848320000000 1.0
C      1  0.4398000000000  0.5153500000000  0.4475160000000 1.0
C      1  0.5605640000000  0.4850960000000  0.4475160000000 1.0
C      1  0.5605640000000  0.5153500000000  0.5524020000000 1.0
C      1  0.4850550000000  0.4477800000000  0.5603410000000 1.0
C      1  0.5153090000000  0.5526660000000  0.5603410000000 1.0
C      1  0.5153090000000  0.4477800000000  0.4395770000000 1.0
C      1  0.4477390000000  0.4398410000000  0.4848320000000 1.0
C      1  0.5605640000000  0.4850960000000  0.5524020000000 1.0
C      1  0.5153090000000  0.5526660000000  0.4395770000000 1.0
C      1  0.4477390000000  0.5606050000000  0.5150860000000 1.0
C      1  0.5526250000000  0.4398410000000  0.5150860000000 1.0
C      1  0.5526250000000  0.5606050000000  0.4848320000000 1.0
C      1  0.5605640000000  0.5153500000000  0.4475160000000 1.0
C      1  0.4398000000000  0.4850960000000  0.4475160000000 1.0
C      1  0.4398000000000  0.5153500000000  0.5524020000000 1.0
C      1  0.5153090000000  0.4477800000000  0.5603410000000 1.0
C      1  0.4850550000000  0.5526660000000  0.5603410000000 1.0
C      1  0.4850550000000  0.4477800000000  0.4395770000000 1.0
C      1  0.5412170000000  0.4683520000000  0.4840240000000 1.0
C      1  0.4683110000000  0.4842880000000  0.5409940000000 1.0
C      1  0.4842470000000  0.5412580000000  0.4680880000000 1.0
C      1  0.5412170000000  0.5320940000000  0.5158940000000 1.0
C      1  0.4591470000000  0.4683520000000  0.5158940000000 1.0
C      1  0.4591470000000  0.5320940000000  0.4840240000000 1.0
C      1  0.4683110000000  0.5161580000000  0.4589240000000 1.0
C      1  0.5320530000000  0.4842880000000  0.4589240000000 1.0
C      1  0.5320530000000  0.5161580000000  0.5409940000000 1.0
C      1  0.4842470000000  0.4591880000000  0.5318300000000 1.0
C      1  0.5161170000000  0.5412580000000  0.5318300000000 1.0
C      1  0.5161170000000  0.4591880000000  0.4680880000000 1.0
C      1  0.4591470000000  0.4683520000000  0.4840240000000 1.0
C      1  0.5320530000000  0.4842880000000  0.5409940000000 1.0
C      1  0.5161170000000  0.5412580000000  0.4680880000000 1.0
C      1  0.4591470000000  0.5320940000000  0.5158940000000 1.0
C      1  0.5412170000000  0.4683520000000  0.5158940000000 1.0
C      1  0.5412170000000  0.5320940000000  0.4840240000000 1.0
C      1  0.5320530000000  0.5161580000000  0.4589240000000 1.0
C      1  0.4683110000000  0.4842880000000  0.4589240000000 1.0
C      1  0.4683110000000  0.5161580000000  0.5409940000000 1.0
C      1  0.5161170000000  0.4591880000000  0.5318300000000 1.0
C      1  0.4842470000000  0.5412580000000  0.5318300000000 1.0
C      1  0.4842470000000  0.4591880000000  0.4680880000000 1.0
C      1  0.5703750000000  0.4587970000000  0.4925660000000 1.0
C      1  0.4587560000000  0.4928300000000  0.5701520000000 1.0
C      1  0.4927890000000  0.5704170000000  0.4585330000000 1.0
C      1  0.5703750000000  0.5416490000000  0.5073520000000 1.0
C      1  0.4299880000000  0.4587970000000  0.5073520000000 1.0
C      1  0.4299880000000  0.5416490000000  0.4925660000000 1.0
C      1  0.4587560000000  0.5076160000000  0.4297650000000 1.0
C      1  0.5416080000000  0.4928300000000  0.4297650000000 1.0
C      1  0.5416080000000  0.5076160000000  0.5701520000000 1.0
C      1  0.4927890000000  0.4300300000000  0.5413850000000 1.0
C      1  0.5075750000000  0.5704170000000  0.5413850000000 1.0
C      1  0.5075750000000  0.4300300000000  0.4585330000000 1.0
C      1  0.4299880000000  0.4587970000000  0.4925660000000 1.0
C      1  0.5416080000000  0.4928300000000  0.5701520000000 1.0
C      1  0.5075750000000  0.5704170000000  0.4585330000000 1.0
C      1  0.4299880000000  0.5416490000000  0.5073520000000 1.0
C      1  0.5703750000000  0.4587970000000  0.5073520000000 1.0
C      1  0.5703750000000  0.5416490000000  0.4925660000000 1.0
C      1  0.5416080000000  0.5076160000000  0.4297650000000 1.0
C      1  0.4587560000000  0.4928300000000  0.4297650000000 1.0
C      1  0.4587560000000  0.5076160000000  0.5701520000000 1.0
C      1  0.5075750000000  0.4300300000000  0.5413850000000 1.0
C      1  0.4927890000000  0.5704170000000  0.5413850000000 1.0
C      1  0.4927890000000  0.4300300000000  0.4585330000000 1.0
C      1  0.4861090000000  0.4664840000000  0.5433080000000 1.0
C      1  0.4664430000000  0.5435730000000  0.4858860000000 1.0
C      1  0.5435310000000  0.4861500000000  0.4662200000000 1.0
C      1  0.4861090000000  0.5339620000000  0.4566090000000 1.0
C      1  0.5142550000000  0.4664840000000  0.4566090000000 1.0
C      1  0.5142550000000  0.5339620000000  0.5433080000000 1.0
C      1  0.4664430000000  0.4568740000000  0.5140310000000 1.0
C      1  0.5339210000000  0.5435730000000  0.5140310000000 1.0
C      1  0.5339210000000  0.4568740000000  0.4858860000000 1.0
C      1  0.5435310000000  0.5142960000000  0.5336980000000 1.0
C      1  0.4568320000000  0.4861500000000  0.5336980000000 1.0
C      1  0.4568320000000  0.5142960000000  0.4662200000000 1.0
C      1  0.5142550000000  0.4664840000000  0.5433080000000 1.0
C      1  0.5339210000000  0.5435730000000  0.4858860000000 1.0
C      1  0.4568320000000  0.4861500000000  0.4662200000000 1.0
C      1  0.5142550000000  0.5339620000000  0.4566090000000 1.0
C      1  0.4861090000000  0.4664840000000  0.4566090000000 1.0
C      1  0.4861090000000  0.5339620000000  0.5433080000000 1.0
C      1  0.5339210000000  0.4568740000000  0.5140310000000 1.0
C      1  0.4664430000000  0.5435730000000  0.5140310000000 1.0
C      1  0.4664430000000  0.4568740000000  0.4858860000000 1.0
C      1  0.4568320000000  0.5142960000000  0.5336980000000 1.0
C      1  0.5435310000000  0.4861500000000  0.5336980000000 1.0
C      1  0.5435310000000  0.5142960000000  0.4662200000000 1.0
C      1  0.5552040000000  0.5385390000000  0.4443060000000 1.0
C      1  0.5384980000000  0.4445700000000  0.5549810000000 1.0
C      1  0.4445290000000  0.5552450000000  0.5382750000000 1.0
C      1  0.5552040000000  0.4619070000000  0.5556120000000 1.0
C      1  0.4451600000000  0.5385390000000  0.5556120000000 1.0
C      1  0.4451600000000  0.4619070000000  0.4443060000000 1.0
C      1  0.5384980000000  0.5558760000000  0.4449370000000 1.0
C      1  0.4618660000000  0.4445700000000  0.4449370000000 1.0
C      1  0.4618660000000  0.5558760000000  0.5549810000000 1.0
C      1  0.4445290000000  0.4452010000000  0.4616430000000 1.0
C      1  0.5558350000000  0.5552450000000  0.4616430000000 1.0
C      1  0.5558350000000  0.4452010000000  0.5382750000000 1.0
C      1  0.4451600000000  0.5385390000000  0.4443060000000 1.0
C      1  0.4618660000000  0.4445700000000  0.5549810000000 1.0
C      1  0.5558350000000  0.5552450000000  0.5382750000000 1.0
C      1  0.4451600000000  0.4619070000000  0.5556120000000 1.0
C      1  0.5552040000000  0.5385390000000  0.5556120000000 1.0
C      1  0.5552040000000  0.4619070000000  0.4443060000000 1.0
C      1  0.4618660000000  0.5558760000000  0.4449370000000 1.0
C      1  0.5384980000000  0.4445700000000  0.4449370000000 1.0
C      1  0.5384980000000  0.5558760000000  0.5549810000000 1.0
C      1  0.5558350000000  0.4452010000000  0.4616430000000 1.0
C      1  0.4445290000000  0.5552450000000  0.4616430000000 1.0
C      1  0.4445290000000  0.4452010000000  0.5382750000000 1.0
C      1  0.5225020000000  0.4555500000000  0.4781920000000 1.0
C      1  0.4555080000000  0.4784560000000  0.5222780000000 1.0
C      1  0.4784150000000  0.5225430000000  0.4552850000000 1.0
C      1  0.5225020000000  0.5448960000000  0.5217260000000 1.0
C      1  0.4778620000000  0.4555500000000  0.5217260000000 1.0
C      1  0.4778620000000  0.5448960000000  0.4781920000000 1.0
C      1  0.4555080000000  0.5219900000000  0.4776390000000 1.0
C      1  0.5448550000000  0.4784560000000  0.4776390000000 1.0
C      1  0.5448550000000  0.5219900000000  0.5222780000000 1.0
C      1  0.4784150000000  0.4779030000000  0.5446320000000 1.0
C      1  0.5219490000000  0.5225430000000  0.5446320000000 1.0
C      1  0.5219490000000  0.4779030000000  0.4552850000000 1.0
C      1  0.4778620000000  0.4555500000000  0.4781920000000 1.0
C      1  0.5448550000000  0.4784560000000  0.5222780000000 1.0
C      1  0.5219490000000  0.5225430000000  0.4552850000000 1.0
C      1  0.4778620000000  0.5448960000000  0.5217260000000 1.0
C      1  0.5225020000000  0.4555500000000  0.5217260000000 1.0
C      1  0.5225020000000  0.5448960000000  0.4781920000000 1.0
C      1  0.5448550000000  0.5219900000000  0.4776390000000 1.0
C      1  0.4555080000000  0.4784560000000  0.4776390000000 1.0
C      1  0.4555080000000  0.5219900000000  0.5222780000000 1.0
C      1  0.5219490000000  0.4779030000000  0.5446320000000 1.0
C      1  0.4784150000000  0.5225430000000  0.5446320000000 1.0
C      1  0.4784150000000  0.4779030000000  0.4552850000000 1.0
C      1  0.5074740000000  0.4579490000000  0.4178520000000 1.0
C      1  0.4579080000000  0.4181170000000  0.5072510000000 1.0
C      1  0.4180750000000  0.5075150000000  0.4576850000000 1.0
C      1  0.5074740000000  0.5424970000000  0.5820650000000 1.0
C      1  0.4928900000000  0.4579490000000  0.5820650000000 1.0
C      1  0.4928900000000  0.5424970000000  0.4178520000000 1.0
C      1  0.4579080000000  0.5823300000000  0.4926670000000 1.0
C      1  0.5424560000000  0.4181170000000  0.4926670000000 1.0
C      1  0.5424560000000  0.5823300000000  0.5072510000000 1.0
C      1  0.4180750000000  0.4929310000000  0.5422320000000 1.0
C      1  0.5822880000000  0.5075150000000  0.5422320000000 1.0
C      1  0.5822880000000  0.4929310000000  0.4576850000000 1.0
C      1  0.4928900000000  0.4579490000000  0.4178520000000 1.0
C      1  0.5424560000000  0.4181170000000  0.5072510000000 1.0
C      1  0.5822880000000  0.5075150000000  0.4576850000000 1.0
C      1  0.4928900000000  0.5424970000000  0.5820650000000 1.0
C      1  0.5074740000000  0.4579490000000  0.5820650000000 1.0
C      1  0.5074740000000  0.5424970000000  0.4178520000000 1.0
C      1  0.5424560000000  0.5823300000000  0.4926670000000 1.0
C      1  0.4579080000000  0.4181170000000  0.4926670000000 1.0
C      1  0.4579080000000  0.5823300000000  0.5072510000000 1.0
C      1  0.5822880000000  0.4929310000000  0.5422320000000 1.0
C      1  0.4180750000000  0.5075150000000  0.5422320000000 1.0
C      1  0.4180750000000  0.4929310000000  0.4576850000000 1.0
C      1  0.4515270000000  0.5638080000000  0.4700560000000 1.0
C      1  0.5637660000000  0.4703210000000  0.4513040000000 1.0
C      1  0.4702800000000  0.4515680000000  0.5635430000000 1.0
C      1  0.4515270000000  0.4366390000000  0.5298610000000 1.0
C      1  0.5488370000000  0.5638080000000  0.5298610000000 1.0
C      1  0.5488370000000  0.4366390000000  0.4700560000000 1.0
C      1  0.5637660000000  0.5301250000000  0.5486140000000 1.0
C      1  0.4365970000000  0.4703210000000  0.5486140000000 1.0
C      1  0.4365970000000  0.5301250000000  0.4513040000000 1.0
C      1  0.4702800000000  0.5488780000000  0.4363740000000 1.0
C      1  0.5300840000000  0.4515680000000  0.4363740000000 1.0
C      1  0.5300840000000  0.5488780000000  0.5635430000000 1.0
C      1  0.5488370000000  0.5638080000000  0.4700560000000 1.0
C      1  0.4365970000000  0.4703210000000  0.4513040000000 1.0
C      1  0.5300840000000  0.4515680000000  0.5635430000000 1.0
C      1  0.5488370000000  0.4366390000000  0.5298610000000 1.0
C      1  0.4515270000000  0.5638080000000  0.5298610000000 1.0
C      1  0.4515270000000  0.4366390000000  0.4700560000000 1.0
C      1  0.4365970000000  0.5301250000000  0.5486140000000 1.0
C      1  0.5637660000000  0.4703210000000  0.5486140000000 1.0
C      1  0.5637660000000  0.5301250000000  0.4513040000000 1.0
C      1  0.5300840000000  0.5488780000000  0.4363740000000 1.0
C      1  0.4702800000000  0.4515680000000  0.4363740000000 1.0
C      1  0.4702800000000  0.5488780000000  0.5635430000000 1.0
C      1  0.5827630000000  0.5072870000000  0.4828570000000 1.0
C      1  0.5072460000000  0.4831210000000  0.5825400000000 1.0
C      1  0.4830800000000  0.5828040000000  0.5070230000000 1.0
C      1  0.5827630000000  0.4931590000000  0.5170610000000 1.0
C      1  0.4176010000000  0.5072870000000  0.5170610000000 1.0
C      1  0.4176010000000  0.4931590000000  0.4828570000000 1.0
C      1  0.5072460000000  0.5173250000000  0.4173780000000 1.0
C      1  0.4931180000000  0.4831210000000  0.4173780000000 1.0
C      1  0.4931180000000  0.5173250000000  0.5825400000000 1.0
C      1  0.4830800000000  0.4176420000000  0.4928950000000 1.0
C      1  0.5172840000000  0.5828040000000  0.4928950000000 1.0
C      1  0.5172840000000  0.4176420000000  0.5070230000000 1.0
C      1  0.4176010000000  0.5072870000000  0.4828570000000 1.0
C      1  0.4931180000000  0.4831210000000  0.5825400000000 1.0
C      1  0.5172840000000  0.5828040000000  0.5070230000000 1.0
C      1  0.4176010000000  0.4931590000000  0.5170610000000 1.0
C      1  0.5827630000000  0.5072870000000  0.5170610000000 1.0
C      1  0.5827630000000  0.4931590000000  0.4828570000000 1.0
C      1  0.4931180000000  0.5173250000000  0.4173780000000 1.0
C      1  0.5072460000000  0.4831210000000  0.4173780000000 1.0
C      1  0.5072460000000  0.5173250000000  0.5825400000000 1.0
C      1  0.5172840000000  0.4176420000000  0.4928950000000 1.0
C      1  0.4830800000000  0.5828040000000  0.4928950000000 1.0
C      1  0.4830800000000  0.4176420000000  0.5070230000000 1.0
C      1  0.5073690000000  0.4466840000000  0.5726690000000 1.0
C      1  0.4466430000000  0.5729330000000  0.5071460000000 1.0
C      1  0.5728920000000  0.5074110000000  0.4464200000000 1.0
C      1  0.5073690000000  0.5537620000000  0.4272490000000 1.0
C      1  0.4929940000000  0.4466840000000  0.4272490000000 1.0
C      1  0.4929940000000  0.5537620000000  0.5726690000000 1.0
C      1  0.4466430000000  0.4275130000000  0.4927710000000 1.0
C      1  0.5537200000000  0.5729330000000  0.4927710000000 1.0
C      1  0.5537200000000  0.4275130000000  0.5071460000000 1.0
C      1  0.5728920000000  0.4930360000000  0.5534970000000 1.0
C      1  0.4274720000000  0.5074110000000  0.5534970000000 1.0
C      1  0.4274720000000  0.4930360000000  0.4464200000000 1.0
C      1  0.4929940000000  0.4466840000000  0.5726690000000 1.0
C      1  0.5537200000000  0.5729330000000  0.5071460000000 1.0
C      1  0.4274720000000  0.5074110000000  0.4464200000000 1.0
C      1  0.4929940000000  0.5537620000000  0.4272490000000 1.0
C      1  0.5073690000000  0.4466840000000  0.4272490000000 1.0
C      1  0.5073690000000  0.5537620000000  0.5726690000000 1.0
C      1  0.5537200000000  0.4275130000000  0.4927710000000 1.0
C      1  0.4466430000000  0.5729330000000  0.4927710000000 1.0
C      1  0.4466430000000  0.4275130000000  0.5071460000000 1.0
C      1  0.4274720000000  0.4930360000000  0.5534970000000 1.0
C      1  0.5728920000000  0.5074110000000  0.5534970000000 1.0
C      1  0.5728920000000  0.4930360000000  0.4464200000000 1.0
C      1  0.5512460000000  0.4491590000000  0.4488950000000 1.0
C      1  0.4491180000000  0.5512870000000  0.4488950000000 1.0
C      1  0.4491180000000  0.4491590000000  0.5510230000000 1.0
C      1  0.4491180000000  0.5512870000000  0.5510230000000 1.0
C      1  0.5512460000000  0.5512870000000  0.4488950000000 1.0
C      1  0.5512460000000  0.4491590000000  0.5510230000000 1.0
C      1  0.5512460000000  0.5512870000000  0.5510230000000 1.0
C      1  0.4491180000000  0.4491590000000  0.4488950000000 1.0
END
