TITL C-1379265-1223-143 3.31283869781266e-06 1000000 -4239.86757601519 0 0 600 (Th) n - 1
REM
REM in /nfs/bkarasulu/CARBON/AIRSS/Generating-Clusters/GAP-ML-2020/Higher-Symm/Selected-Sizes/TryA-Only_Ih-Symm/Larger-Clusters/Try2-MINAMP_6A
REM
REM
REM
REM
REM
REM ./C.cell (31579ac4e95a012ec27f3239692ae8a5)
REM
REM compiler GCC version 9.2.1 20190827 (Red Hat 9.2.1-1)
REM options -cpp -mtune=generic -march=x86-64 -g -O0 -fpre-include=/usr/include/finclude/math-vector-fortran.h
REM seed -2132154303 -1307290766 645244745 -972264504 1334008498 -1494055899 -303152360 323988722 -1651248094 667264864 -2128639340 -179163729 51744796 -1472905959 968429980 -1235330436 -1364556215 -1550262720 1201733563 1109588692 1030882611 1178671562 -790021926 -265296088 487700527 1103784160 1792255734 -493844637 -210140471 2138591857 -2034894817 -1434524397 1338902516
REM
CELL 1.54180  100.00000  100.00000  100.00000   90.00000   90.00000   90.00000
LATT -1
SFAC C  
C      1  0.4848710000000  0.5736780000000  0.4849650000000 1.0
C      1  0.5736780000000  0.4849650000000  0.4848710000000 1.0
C      1  0.4849650000000  0.4848710000000  0.5736780000000 1.0
C      1  0.5151290000000  0.5736780000000  0.5150350000000 1.0
C      1  0.5151290000000  0.4263220000000  0.4849650000000 1.0
C      1  0.4848710000000  0.4263220000000  0.5150350000000 1.0
C      1  0.4263220000000  0.4849650000000  0.5151290000000 1.0
C      1  0.4263220000000  0.5150350000000  0.4848710000000 1.0
C      1  0.5736780000000  0.5150350000000  0.5151290000000 1.0
C      1  0.5150350000000  0.4848710000000  0.4263220000000 1.0
C      1  0.5150350000000  0.5151290000000  0.5736780000000 1.0
C      1  0.4849650000000  0.5151290000000  0.4263220000000 1.0
C      1  0.4848710000000  0.4263220000000  0.4849650000000 1.0
C      1  0.5736780000000  0.5150350000000  0.4848710000000 1.0
C      1  0.4849650000000  0.5151290000000  0.5736780000000 1.0
C      1  0.5151290000000  0.4263220000000  0.5150350000000 1.0
C      1  0.5151290000000  0.5736780000000  0.4849650000000 1.0
C      1  0.4848710000000  0.5736780000000  0.5150350000000 1.0
C      1  0.4263220000000  0.5150350000000  0.5151290000000 1.0
C      1  0.4263220000000  0.4849650000000  0.4848710000000 1.0
C      1  0.5736780000000  0.4849650000000  0.5151290000000 1.0
C      1  0.5150350000000  0.5151290000000  0.4263220000000 1.0
C      1  0.5150350000000  0.4848710000000  0.5736780000000 1.0
C      1  0.4849650000000  0.4848710000000  0.4263220000000 1.0
C      1  0.4214560000000  0.4870170000000  0.5376520000000 1.0
C      1  0.4870170000000  0.5376520000000  0.4214560000000 1.0
C      1  0.5376520000000  0.4214560000000  0.4870170000000 1.0
C      1  0.5785440000000  0.4870170000000  0.4623480000000 1.0
C      1  0.5785440000000  0.5129830000000  0.5376520000000 1.0
C      1  0.4214560000000  0.5129830000000  0.4623480000000 1.0
C      1  0.5129830000000  0.5376520000000  0.5785440000000 1.0
C      1  0.5129830000000  0.4623480000000  0.4214560000000 1.0
C      1  0.4870170000000  0.4623480000000  0.5785440000000 1.0
C      1  0.4623480000000  0.4214560000000  0.5129830000000 1.0
C      1  0.4623480000000  0.5785440000000  0.4870170000000 1.0
C      1  0.5376520000000  0.5785440000000  0.5129830000000 1.0
C      1  0.4214560000000  0.5129830000000  0.5376520000000 1.0
C      1  0.4870170000000  0.4623480000000  0.4214560000000 1.0
C      1  0.5376520000000  0.5785440000000  0.4870170000000 1.0
C      1  0.5785440000000  0.5129830000000  0.4623480000000 1.0
C      1  0.5785440000000  0.4870170000000  0.5376520000000 1.0
C      1  0.4214560000000  0.4870170000000  0.4623480000000 1.0
C      1  0.5129830000000  0.4623480000000  0.5785440000000 1.0
C      1  0.5129830000000  0.5376520000000  0.4214560000000 1.0
C      1  0.4870170000000  0.5376520000000  0.5785440000000 1.0
C      1  0.4623480000000  0.5785440000000  0.5129830000000 1.0
C      1  0.4623480000000  0.4214560000000  0.4870170000000 1.0
C      1  0.5376520000000  0.4214560000000  0.5129830000000 1.0
C      1  0.4846070000000  0.5378560000000  0.5070590000000 1.0
C      1  0.5378560000000  0.5070590000000  0.4846070000000 1.0
C      1  0.5070590000000  0.4846070000000  0.5378560000000 1.0
C      1  0.5153930000000  0.5378560000000  0.4929410000000 1.0
C      1  0.5153930000000  0.4621440000000  0.5070590000000 1.0
C      1  0.4846070000000  0.4621440000000  0.4929410000000 1.0
C      1  0.4621440000000  0.5070590000000  0.5153930000000 1.0
C      1  0.4621440000000  0.4929410000000  0.4846070000000 1.0
C      1  0.5378560000000  0.4929410000000  0.5153930000000 1.0
C      1  0.4929410000000  0.4846070000000  0.4621440000000 1.0
C      1  0.4929410000000  0.5153930000000  0.5378560000000 1.0
C      1  0.5070590000000  0.5153930000000  0.4621440000000 1.0
C      1  0.4846070000000  0.4621440000000  0.5070590000000 1.0
C      1  0.5378560000000  0.4929410000000  0.4846070000000 1.0
C      1  0.5070590000000  0.5153930000000  0.5378560000000 1.0
C      1  0.5153930000000  0.4621440000000  0.4929410000000 1.0
C      1  0.5153930000000  0.5378560000000  0.5070590000000 1.0
C      1  0.4846070000000  0.5378560000000  0.4929410000000 1.0
C      1  0.4621440000000  0.4929410000000  0.5153930000000 1.0
C      1  0.4621440000000  0.5070590000000  0.4846070000000 1.0
C      1  0.5378560000000  0.5070590000000  0.5153930000000 1.0
C      1  0.4929410000000  0.5153930000000  0.4621440000000 1.0
C      1  0.4929410000000  0.4846070000000  0.5378560000000 1.0
C      1  0.5070590000000  0.4846070000000  0.4621440000000 1.0
C      1  0.4281180000000  0.4830870000000  0.4505070000000 1.0
C      1  0.4830870000000  0.4505070000000  0.4281180000000 1.0
C      1  0.4505070000000  0.4281180000000  0.4830870000000 1.0
C      1  0.5718820000000  0.4830870000000  0.5494930000000 1.0
C      1  0.5718820000000  0.5169130000000  0.4505070000000 1.0
C      1  0.4281180000000  0.5169130000000  0.5494930000000 1.0
C      1  0.5169130000000  0.4505070000000  0.5718820000000 1.0
C      1  0.5169130000000  0.5494930000000  0.4281180000000 1.0
C      1  0.4830870000000  0.5494930000000  0.5718820000000 1.0
C      1  0.5494930000000  0.4281180000000  0.5169130000000 1.0
C      1  0.5494930000000  0.5718820000000  0.4830870000000 1.0
C      1  0.4505070000000  0.5718820000000  0.5169130000000 1.0
C      1  0.4281180000000  0.5169130000000  0.4505070000000 1.0
C      1  0.4830870000000  0.5494930000000  0.4281180000000 1.0
C      1  0.4505070000000  0.5718820000000  0.4830870000000 1.0
C      1  0.5718820000000  0.5169130000000  0.5494930000000 1.0
C      1  0.5718820000000  0.4830870000000  0.4505070000000 1.0
C      1  0.4281180000000  0.4830870000000  0.5494930000000 1.0
C      1  0.5169130000000  0.5494930000000  0.5718820000000 1.0
C      1  0.5169130000000  0.4505070000000  0.4281180000000 1.0
C      1  0.4830870000000  0.4505070000000  0.5718820000000 1.0
C      1  0.5494930000000  0.5718820000000  0.5169130000000 1.0
C      1  0.5494930000000  0.4281180000000  0.4830870000000 1.0
C      1  0.4505070000000  0.4281180000000  0.5169130000000 1.0
C      1  0.5070340000000  0.4090010000000  0.4715920000000 1.0
C      1  0.4090010000000  0.4715920000000  0.5070340000000 1.0
C      1  0.4715920000000  0.5070340000000  0.4090010000000 1.0
C      1  0.4929660000000  0.4090010000000  0.5284080000000 1.0
C      1  0.4929660000000  0.5909990000000  0.4715920000000 1.0
C      1  0.5070340000000  0.5909990000000  0.5284080000000 1.0
C      1  0.5909990000000  0.4715920000000  0.4929660000000 1.0
C      1  0.5909990000000  0.5284080000000  0.5070340000000 1.0
C      1  0.4090010000000  0.5284080000000  0.4929660000000 1.0
C      1  0.5284080000000  0.5070340000000  0.5909990000000 1.0
C      1  0.5284080000000  0.4929660000000  0.4090010000000 1.0
C      1  0.4715920000000  0.4929660000000  0.5909990000000 1.0
C      1  0.5070340000000  0.5909990000000  0.4715920000000 1.0
C      1  0.4090010000000  0.5284080000000  0.5070340000000 1.0
C      1  0.4715920000000  0.4929660000000  0.4090010000000 1.0
C      1  0.4929660000000  0.5909990000000  0.5284080000000 1.0
C      1  0.4929660000000  0.4090010000000  0.4715920000000 1.0
C      1  0.5070340000000  0.4090010000000  0.5284080000000 1.0
C      1  0.5909990000000  0.5284080000000  0.4929660000000 1.0
C      1  0.5909990000000  0.4715920000000  0.5070340000000 1.0
C      1  0.4090010000000  0.4715920000000  0.4929660000000 1.0
C      1  0.5284080000000  0.4929660000000  0.5909990000000 1.0
C      1  0.5284080000000  0.5070340000000  0.4090010000000 1.0
C      1  0.4715920000000  0.5070340000000  0.5909990000000 1.0
C      1  0.5136150000000  0.4379250000000  0.5504840000000 1.0
C      1  0.4379250000000  0.5504840000000  0.5136150000000 1.0
C      1  0.5504840000000  0.5136150000000  0.4379250000000 1.0
C      1  0.4863850000000  0.4379250000000  0.4495160000000 1.0
C      1  0.4863850000000  0.5620750000000  0.5504840000000 1.0
C      1  0.5136150000000  0.5620750000000  0.4495160000000 1.0
C      1  0.5620750000000  0.5504840000000  0.4863850000000 1.0
C      1  0.5620750000000  0.4495160000000  0.5136150000000 1.0
C      1  0.4379250000000  0.4495160000000  0.4863850000000 1.0
C      1  0.4495160000000  0.5136150000000  0.5620750000000 1.0
C      1  0.4495160000000  0.4863850000000  0.4379250000000 1.0
C      1  0.5504840000000  0.4863850000000  0.5620750000000 1.0
C      1  0.5136150000000  0.5620750000000  0.5504840000000 1.0
C      1  0.4379250000000  0.4495160000000  0.5136150000000 1.0
C      1  0.5504840000000  0.4863850000000  0.4379250000000 1.0
C      1  0.4863850000000  0.5620750000000  0.4495160000000 1.0
C      1  0.4863850000000  0.4379250000000  0.5504840000000 1.0
C      1  0.5136150000000  0.4379250000000  0.4495160000000 1.0
C      1  0.5620750000000  0.4495160000000  0.4863850000000 1.0
C      1  0.5620750000000  0.5504840000000  0.5136150000000 1.0
C      1  0.4379250000000  0.5504840000000  0.4863850000000 1.0
C      1  0.4495160000000  0.4863850000000  0.5620750000000 1.0
C      1  0.4495160000000  0.5136150000000  0.4379250000000 1.0
C      1  0.5504840000000  0.5136150000000  0.5620750000000 1.0
C      1  0.5172310000000  0.5879670000000  0.4819940000000 1.0
C      1  0.5879670000000  0.4819940000000  0.5172310000000 1.0
C      1  0.4819940000000  0.5172310000000  0.5879670000000 1.0
C      1  0.4827690000000  0.5879670000000  0.5180060000000 1.0
C      1  0.4827690000000  0.4120330000000  0.4819940000000 1.0
C      1  0.5172310000000  0.4120330000000  0.5180060000000 1.0
C      1  0.4120330000000  0.4819940000000  0.4827690000000 1.0
C      1  0.4120330000000  0.5180060000000  0.5172310000000 1.0
C      1  0.5879670000000  0.5180060000000  0.4827690000000 1.0
C      1  0.5180060000000  0.5172310000000  0.4120330000000 1.0
C      1  0.5180060000000  0.4827690000000  0.5879670000000 1.0
C      1  0.4819940000000  0.4827690000000  0.4120330000000 1.0
C      1  0.5172310000000  0.4120330000000  0.4819940000000 1.0
C      1  0.5879670000000  0.5180060000000  0.5172310000000 1.0
C      1  0.4819940000000  0.4827690000000  0.5879670000000 1.0
C      1  0.4827690000000  0.4120330000000  0.5180060000000 1.0
C      1  0.4827690000000  0.5879670000000  0.4819940000000 1.0
C      1  0.5172310000000  0.5879670000000  0.5180060000000 1.0
C      1  0.4120330000000  0.5180060000000  0.4827690000000 1.0
C      1  0.4120330000000  0.4819940000000  0.5172310000000 1.0
C      1  0.5879670000000  0.4819940000000  0.4827690000000 1.0
C      1  0.5180060000000  0.4827690000000  0.4120330000000 1.0
C      1  0.5180060000000  0.5172310000000  0.5879670000000 1.0
C      1  0.4819940000000  0.5172310000000  0.4120330000000 1.0
C      1  0.5281110000000  0.5316280000000  0.4456820000000 1.0
C      1  0.5316280000000  0.4456820000000  0.5281110000000 1.0
C      1  0.4456820000000  0.5281110000000  0.5316280000000 1.0
C      1  0.4718890000000  0.5316280000000  0.5543180000000 1.0
C      1  0.4718890000000  0.4683720000000  0.4456820000000 1.0
C      1  0.5281110000000  0.4683720000000  0.5543180000000 1.0
C      1  0.4683720000000  0.4456820000000  0.4718890000000 1.0
C      1  0.4683720000000  0.5543180000000  0.5281110000000 1.0
C      1  0.5316280000000  0.5543180000000  0.4718890000000 1.0
C      1  0.5543180000000  0.5281110000000  0.4683720000000 1.0
C      1  0.5543180000000  0.4718890000000  0.5316280000000 1.0
C      1  0.4456820000000  0.4718890000000  0.4683720000000 1.0
C      1  0.5281110000000  0.4683720000000  0.4456820000000 1.0
C      1  0.5316280000000  0.5543180000000  0.5281110000000 1.0
C      1  0.4456820000000  0.4718890000000  0.5316280000000 1.0
C      1  0.4718890000000  0.4683720000000  0.5543180000000 1.0
C      1  0.4718890000000  0.5316280000000  0.4456820000000 1.0
C      1  0.5281110000000  0.5316280000000  0.5543180000000 1.0
C      1  0.4683720000000  0.5543180000000  0.4718890000000 1.0
C      1  0.4683720000000  0.4456820000000  0.5281110000000 1.0
C      1  0.5316280000000  0.4456820000000  0.4718890000000 1.0
C      1  0.5543180000000  0.4718890000000  0.4683720000000 1.0
C      1  0.5543180000000  0.5281110000000  0.5316280000000 1.0
C      1  0.4456820000000  0.5281110000000  0.4683720000000 1.0
C      1  0.4717560000000  0.5406990000000  0.4673190000000 1.0
C      1  0.5406990000000  0.4673190000000  0.4717560000000 1.0
C      1  0.4673190000000  0.4717560000000  0.5406990000000 1.0
C      1  0.5282440000000  0.5406990000000  0.5326810000000 1.0
C      1  0.5282440000000  0.4593010000000  0.4673190000000 1.0
C      1  0.4717560000000  0.4593010000000  0.5326810000000 1.0
C      1  0.4593010000000  0.4673190000000  0.5282440000000 1.0
C      1  0.4593010000000  0.5326810000000  0.4717560000000 1.0
C      1  0.5406990000000  0.5326810000000  0.5282440000000 1.0
C      1  0.5326810000000  0.4717560000000  0.4593010000000 1.0
C      1  0.5326810000000  0.5282440000000  0.5406990000000 1.0
C      1  0.4673190000000  0.5282440000000  0.4593010000000 1.0
C      1  0.4717560000000  0.4593010000000  0.4673190000000 1.0
C      1  0.5406990000000  0.5326810000000  0.4717560000000 1.0
C      1  0.4673190000000  0.5282440000000  0.5406990000000 1.0
C      1  0.5282440000000  0.4593010000000  0.5326810000000 1.0
C      1  0.5282440000000  0.5406990000000  0.4673190000000 1.0
C      1  0.4717560000000  0.5406990000000  0.5326810000000 1.0
C      1  0.4593010000000  0.5326810000000  0.5282440000000 1.0
C      1  0.4593010000000  0.4673190000000  0.4717560000000 1.0
C      1  0.5406990000000  0.4673190000000  0.5282440000000 1.0
C      1  0.5326810000000  0.5282440000000  0.4593010000000 1.0
C      1  0.5326810000000  0.4717560000000  0.5406990000000 1.0
C      1  0.4673190000000  0.4717560000000  0.4593010000000 1.0
C      1  0.4927240000000  0.5559100000000  0.5631800000000 1.0
C      1  0.5559100000000  0.5631800000000  0.4927240000000 1.0
C      1  0.5631800000000  0.4927240000000  0.5559100000000 1.0
C      1  0.5072760000000  0.5559100000000  0.4368200000000 1.0
C      1  0.5072760000000  0.4440900000000  0.5631800000000 1.0
C      1  0.4927240000000  0.4440900000000  0.4368200000000 1.0
C      1  0.4440900000000  0.5631800000000  0.5072760000000 1.0
C      1  0.4440900000000  0.4368200000000  0.4927240000000 1.0
C      1  0.5559100000000  0.4368200000000  0.5072760000000 1.0
C      1  0.4368200000000  0.4927240000000  0.4440900000000 1.0
C      1  0.4368200000000  0.5072760000000  0.5559100000000 1.0
C      1  0.5631800000000  0.5072760000000  0.4440900000000 1.0
C      1  0.4927240000000  0.4440900000000  0.5631800000000 1.0
C      1  0.5559100000000  0.4368200000000  0.4927240000000 1.0
C      1  0.5631800000000  0.5072760000000  0.5559100000000 1.0
C      1  0.5072760000000  0.4440900000000  0.4368200000000 1.0
C      1  0.5072760000000  0.5559100000000  0.5631800000000 1.0
C      1  0.4927240000000  0.5559100000000  0.4368200000000 1.0
C      1  0.4440900000000  0.4368200000000  0.5072760000000 1.0
C      1  0.4440900000000  0.5631800000000  0.4927240000000 1.0
C      1  0.5559100000000  0.5631800000000  0.5072760000000 1.0
C      1  0.4368200000000  0.5072760000000  0.4440900000000 1.0
C      1  0.4368200000000  0.4927240000000  0.5559100000000 1.0
C      1  0.5631800000000  0.4927240000000  0.4440900000000 1.0
C      1  0.4445260000000  0.4634600000000  0.4921790000000 1.0
C      1  0.4634600000000  0.4921790000000  0.4445260000000 1.0
C      1  0.4921790000000  0.4445260000000  0.4634600000000 1.0
C      1  0.5554740000000  0.4634600000000  0.5078210000000 1.0
C      1  0.5554740000000  0.5365400000000  0.4921790000000 1.0
C      1  0.4445260000000  0.5365400000000  0.5078210000000 1.0
C      1  0.5365400000000  0.4921790000000  0.5554740000000 1.0
C      1  0.5365400000000  0.5078210000000  0.4445260000000 1.0
C      1  0.4634600000000  0.5078210000000  0.5554740000000 1.0
C      1  0.5078210000000  0.4445260000000  0.5365400000000 1.0
C      1  0.5078210000000  0.5554740000000  0.4634600000000 1.0
C      1  0.4921790000000  0.5554740000000  0.5365400000000 1.0
C      1  0.4445260000000  0.5365400000000  0.4921790000000 1.0
C      1  0.4634600000000  0.5078210000000  0.4445260000000 1.0
C      1  0.4921790000000  0.5554740000000  0.4634600000000 1.0
C      1  0.5554740000000  0.5365400000000  0.5078210000000 1.0
C      1  0.5554740000000  0.4634600000000  0.4921790000000 1.0
C      1  0.4445260000000  0.4634600000000  0.5078210000000 1.0
C      1  0.5365400000000  0.5078210000000  0.5554740000000 1.0
C      1  0.5365400000000  0.4921790000000  0.4445260000000 1.0
C      1  0.4634600000000  0.4921790000000  0.5554740000000 1.0
C      1  0.5078210000000  0.5554740000000  0.5365400000000 1.0
C      1  0.5078210000000  0.4445260000000  0.4634600000000 1.0
C      1  0.4921790000000  0.4445260000000  0.5365400000000 1.0
C      1  0.4930680000000  0.5754150000000  0.4509140000000 1.0
C      1  0.5754150000000  0.4509140000000  0.4930680000000 1.0
C      1  0.4509140000000  0.4930680000000  0.5754150000000 1.0
C      1  0.5069320000000  0.5754150000000  0.5490860000000 1.0
C      1  0.5069320000000  0.4245850000000  0.4509140000000 1.0
C      1  0.4930680000000  0.4245850000000  0.5490860000000 1.0
C      1  0.4245850000000  0.4509140000000  0.5069320000000 1.0
C      1  0.4245850000000  0.5490860000000  0.4930680000000 1.0
C      1  0.5754150000000  0.5490860000000  0.5069320000000 1.0
C      1  0.5490860000000  0.4930680000000  0.4245850000000 1.0
C      1  0.5490860000000  0.5069320000000  0.5754150000000 1.0
C      1  0.4509140000000  0.5069320000000  0.4245850000000 1.0
C      1  0.4930680000000  0.4245850000000  0.4509140000000 1.0
C      1  0.5754150000000  0.5490860000000  0.4930680000000 1.0
C      1  0.4509140000000  0.5069320000000  0.5754150000000 1.0
C      1  0.5069320000000  0.4245850000000  0.5490860000000 1.0
C      1  0.5069320000000  0.5754150000000  0.4509140000000 1.0
C      1  0.4930680000000  0.5754150000000  0.5490860000000 1.0
C      1  0.4245850000000  0.5490860000000  0.5069320000000 1.0
C      1  0.4245850000000  0.4509140000000  0.4930680000000 1.0
C      1  0.5754150000000  0.4509140000000  0.5069320000000 1.0
C      1  0.5490860000000  0.5069320000000  0.4245850000000 1.0
C      1  0.5490860000000  0.4930680000000  0.5754150000000 1.0
C      1  0.4509140000000  0.4930680000000  0.4245850000000 1.0
C      1  0.5607980000000  0.4491170000000  0.5607200000000 1.0
C      1  0.4491170000000  0.5607200000000  0.5607980000000 1.0
C      1  0.5607200000000  0.5607980000000  0.4491170000000 1.0
C      1  0.4392020000000  0.4491170000000  0.4392800000000 1.0
C      1  0.4392020000000  0.5508830000000  0.5607200000000 1.0
C      1  0.5607980000000  0.5508830000000  0.4392800000000 1.0
C      1  0.5508830000000  0.5607200000000  0.4392020000000 1.0
C      1  0.5508830000000  0.4392800000000  0.5607980000000 1.0
C      1  0.4491170000000  0.4392800000000  0.4392020000000 1.0
C      1  0.4392800000000  0.5607980000000  0.5508830000000 1.0
C      1  0.4392800000000  0.4392020000000  0.4491170000000 1.0
C      1  0.5607200000000  0.4392020000000  0.5508830000000 1.0
C      1  0.5607980000000  0.5508830000000  0.5607200000000 1.0
C      1  0.4491170000000  0.4392800000000  0.5607980000000 1.0
C      1  0.5607200000000  0.4392020000000  0.4491170000000 1.0
C      1  0.4392020000000  0.5508830000000  0.4392800000000 1.0
C      1  0.4392020000000  0.4491170000000  0.5607200000000 1.0
C      1  0.5607980000000  0.4491170000000  0.4392800000000 1.0
C      1  0.5508830000000  0.4392800000000  0.4392020000000 1.0
C      1  0.5508830000000  0.5607200000000  0.5607980000000 1.0
C      1  0.4491170000000  0.5607200000000  0.4392020000000 1.0
C      1  0.4392800000000  0.4392020000000  0.5508830000000 1.0
C      1  0.4392800000000  0.5607980000000  0.4491170000000 1.0
C      1  0.5607200000000  0.5607980000000  0.5508830000000 1.0
C      1  0.4323770000000  0.4922000000000  0.5269220000000 1.0
C      1  0.4922000000000  0.5269220000000  0.4323770000000 1.0
C      1  0.5269220000000  0.4323770000000  0.4922000000000 1.0
C      1  0.5676230000000  0.4922000000000  0.4730780000000 1.0
C      1  0.5676230000000  0.5078000000000  0.5269220000000 1.0
C      1  0.4323770000000  0.5078000000000  0.4730780000000 1.0
C      1  0.5078000000000  0.5269220000000  0.5676230000000 1.0
C      1  0.5078000000000  0.4730780000000  0.4323770000000 1.0
C      1  0.4922000000000  0.4730780000000  0.5676230000000 1.0
C      1  0.4730780000000  0.4323770000000  0.5078000000000 1.0
C      1  0.4730780000000  0.5676230000000  0.4922000000000 1.0
C      1  0.5269220000000  0.5676230000000  0.5078000000000 1.0
C      1  0.4323770000000  0.5078000000000  0.5269220000000 1.0
C      1  0.4922000000000  0.4730780000000  0.4323770000000 1.0
C      1  0.5269220000000  0.5676230000000  0.4922000000000 1.0
C      1  0.5676230000000  0.5078000000000  0.4730780000000 1.0
C      1  0.5676230000000  0.4922000000000  0.5269220000000 1.0
C      1  0.4323770000000  0.4922000000000  0.4730780000000 1.0
C      1  0.5078000000000  0.4730780000000  0.5676230000000 1.0
C      1  0.5078000000000  0.5269220000000  0.4323770000000 1.0
C      1  0.4922000000000  0.5269220000000  0.5676230000000 1.0
C      1  0.4730780000000  0.5676230000000  0.5078000000000 1.0
C      1  0.4730780000000  0.4323770000000  0.4922000000000 1.0
C      1  0.5269220000000  0.4323770000000  0.5078000000000 1.0
C      1  0.5266280000000  0.5078370000000  0.4319210000000 1.0
C      1  0.5078370000000  0.4319210000000  0.5266280000000 1.0
C      1  0.4319210000000  0.5266280000000  0.5078370000000 1.0
C      1  0.4733720000000  0.5078370000000  0.5680790000000 1.0
C      1  0.4733720000000  0.4921630000000  0.4319210000000 1.0
C      1  0.5266280000000  0.4921630000000  0.5680790000000 1.0
C      1  0.4921630000000  0.4319210000000  0.4733720000000 1.0
C      1  0.4921630000000  0.5680790000000  0.5266280000000 1.0
C      1  0.5078370000000  0.5680790000000  0.4733720000000 1.0
C      1  0.5680790000000  0.5266280000000  0.4921630000000 1.0
C      1  0.5680790000000  0.4733720000000  0.5078370000000 1.0
C      1  0.4319210000000  0.4733720000000  0.4921630000000 1.0
C      1  0.5266280000000  0.4921630000000  0.4319210000000 1.0
C      1  0.5078370000000  0.5680790000000  0.5266280000000 1.0
C      1  0.4319210000000  0.4733720000000  0.5078370000000 1.0
C      1  0.4733720000000  0.4921630000000  0.5680790000000 1.0
C      1  0.4733720000000  0.5078370000000  0.4319210000000 1.0
C      1  0.5266280000000  0.5078370000000  0.5680790000000 1.0
C      1  0.4921630000000  0.5680790000000  0.4733720000000 1.0
C      1  0.4921630000000  0.4319210000000  0.5266280000000 1.0
C      1  0.5078370000000  0.4319210000000  0.4733720000000 1.0
C      1  0.5680790000000  0.4733720000000  0.4921630000000 1.0
C      1  0.5680790000000  0.5266280000000  0.5078370000000 1.0
C      1  0.4319210000000  0.5266280000000  0.4921630000000 1.0
C      1  0.4632790000000  0.5597600000000  0.5609200000000 1.0
C      1  0.5597600000000  0.5609200000000  0.4632790000000 1.0
C      1  0.5609200000000  0.4632790000000  0.5597600000000 1.0
C      1  0.5367210000000  0.5597600000000  0.4390800000000 1.0
C      1  0.5367210000000  0.4402400000000  0.5609200000000 1.0
C      1  0.4632790000000  0.4402400000000  0.4390800000000 1.0
C      1  0.4402400000000  0.5609200000000  0.5367210000000 1.0
C      1  0.4402400000000  0.4390800000000  0.4632790000000 1.0
C      1  0.5597600000000  0.4390800000000  0.5367210000000 1.0
C      1  0.4390800000000  0.4632790000000  0.4402400000000 1.0
C      1  0.4390800000000  0.5367210000000  0.5597600000000 1.0
C      1  0.5609200000000  0.5367210000000  0.4402400000000 1.0
C      1  0.4632790000000  0.4402400000000  0.5609200000000 1.0
C      1  0.5597600000000  0.4390800000000  0.4632790000000 1.0
C      1  0.5609200000000  0.5367210000000  0.5597600000000 1.0
C      1  0.5367210000000  0.4402400000000  0.4390800000000 1.0
C      1  0.5367210000000  0.5597600000000  0.5609200000000 1.0
C      1  0.4632790000000  0.5597600000000  0.4390800000000 1.0
C      1  0.4402400000000  0.4390800000000  0.5367210000000 1.0
C      1  0.4402400000000  0.5609200000000  0.4632790000000 1.0
C      1  0.5597600000000  0.5609200000000  0.5367210000000 1.0
C      1  0.4390800000000  0.5367210000000  0.4402400000000 1.0
C      1  0.4390800000000  0.4632790000000  0.5597600000000 1.0
C      1  0.5609200000000  0.4632790000000  0.4402400000000 1.0
C      1  0.4589900000000  0.5320580000000  0.4871300000000 1.0
C      1  0.5320580000000  0.4871300000000  0.4589900000000 1.0
C      1  0.4871300000000  0.4589900000000  0.5320580000000 1.0
C      1  0.5410100000000  0.5320580000000  0.5128700000000 1.0
C      1  0.5410100000000  0.4679420000000  0.4871300000000 1.0
C      1  0.4589900000000  0.4679420000000  0.5128700000000 1.0
C      1  0.4679420000000  0.4871300000000  0.5410100000000 1.0
C      1  0.4679420000000  0.5128700000000  0.4589900000000 1.0
C      1  0.5320580000000  0.5128700000000  0.5410100000000 1.0
C      1  0.5128700000000  0.4589900000000  0.4679420000000 1.0
C      1  0.5128700000000  0.5410100000000  0.5320580000000 1.0
C      1  0.4871300000000  0.5410100000000  0.4679420000000 1.0
C      1  0.4589900000000  0.4679420000000  0.4871300000000 1.0
C      1  0.5320580000000  0.5128700000000  0.4589900000000 1.0
C      1  0.4871300000000  0.5410100000000  0.5320580000000 1.0
C      1  0.5410100000000  0.4679420000000  0.5128700000000 1.0
C      1  0.5410100000000  0.5320580000000  0.4871300000000 1.0
C      1  0.4589900000000  0.5320580000000  0.5128700000000 1.0
C      1  0.4679420000000  0.5128700000000  0.5410100000000 1.0
C      1  0.4679420000000  0.4871300000000  0.4589900000000 1.0
C      1  0.5320580000000  0.4871300000000  0.5410100000000 1.0
C      1  0.5128700000000  0.5410100000000  0.4679420000000 1.0
C      1  0.5128700000000  0.4589900000000  0.5320580000000 1.0
C      1  0.4871300000000  0.4589900000000  0.4679420000000 1.0
C      1  0.4510150000000  0.4314930000000  0.5309890000000 1.0
C      1  0.4314930000000  0.5309890000000  0.4510150000000 1.0
C      1  0.5309890000000  0.4510150000000  0.4314930000000 1.0
C      1  0.5489850000000  0.4314930000000  0.4690110000000 1.0
C      1  0.5489850000000  0.5685070000000  0.5309890000000 1.0
C      1  0.4510150000000  0.5685070000000  0.4690110000000 1.0
C      1  0.5685070000000  0.5309890000000  0.5489850000000 1.0
C      1  0.5685070000000  0.4690110000000  0.4510150000000 1.0
C      1  0.4314930000000  0.4690110000000  0.5489850000000 1.0
C      1  0.4690110000000  0.4510150000000  0.5685070000000 1.0
C      1  0.4690110000000  0.5489850000000  0.4314930000000 1.0
C      1  0.5309890000000  0.5489850000000  0.5685070000000 1.0
C      1  0.4510150000000  0.5685070000000  0.5309890000000 1.0
C      1  0.4314930000000  0.4690110000000  0.4510150000000 1.0
C      1  0.5309890000000  0.5489850000000  0.4314930000000 1.0
C      1  0.5489850000000  0.5685070000000  0.4690110000000 1.0
C      1  0.5489850000000  0.4314930000000  0.5309890000000 1.0
C      1  0.4510150000000  0.4314930000000  0.4690110000000 1.0
C      1  0.5685070000000  0.4690110000000  0.5489850000000 1.0
C      1  0.5685070000000  0.5309890000000  0.4510150000000 1.0
C      1  0.4314930000000  0.5309890000000  0.5489850000000 1.0
C      1  0.4690110000000  0.5489850000000  0.5685070000000 1.0
C      1  0.4690110000000  0.4510150000000  0.4314930000000 1.0
C      1  0.5309890000000  0.4510150000000  0.5685070000000 1.0
C      1  0.4707620000000  0.5643160000000  0.5498100000000 1.0
C      1  0.5643160000000  0.5498100000000  0.4707620000000 1.0
C      1  0.5498100000000  0.4707620000000  0.5643160000000 1.0
C      1  0.5292380000000  0.5643160000000  0.4501900000000 1.0
C      1  0.5292380000000  0.4356840000000  0.5498100000000 1.0
C      1  0.4707620000000  0.4356840000000  0.4501900000000 1.0
C      1  0.4356840000000  0.5498100000000  0.5292380000000 1.0
C      1  0.4356840000000  0.4501900000000  0.4707620000000 1.0
C      1  0.5643160000000  0.4501900000000  0.5292380000000 1.0
C      1  0.4501900000000  0.4707620000000  0.4356840000000 1.0
C      1  0.4501900000000  0.5292380000000  0.5643160000000 1.0
C      1  0.5498100000000  0.5292380000000  0.4356840000000 1.0
C      1  0.4707620000000  0.4356840000000  0.5498100000000 1.0
C      1  0.5643160000000  0.4501900000000  0.4707620000000 1.0
C      1  0.5498100000000  0.5292380000000  0.5643160000000 1.0
C      1  0.5292380000000  0.4356840000000  0.4501900000000 1.0
C      1  0.5292380000000  0.5643160000000  0.5498100000000 1.0
C      1  0.4707620000000  0.5643160000000  0.4501900000000 1.0
C      1  0.4356840000000  0.4501900000000  0.5292380000000 1.0
C      1  0.4356840000000  0.5498100000000  0.4707620000000 1.0
C      1  0.5643160000000  0.5498100000000  0.5292380000000 1.0
C      1  0.4501900000000  0.5292380000000  0.4356840000000 1.0
C      1  0.4501900000000  0.4707620000000  0.5643160000000 1.0
C      1  0.5498100000000  0.4707620000000  0.4356840000000 1.0
C      1  0.5384180000000  0.5180740000000  0.5069670000000 1.0
C      1  0.5180740000000  0.5069670000000  0.5384180000000 1.0
C      1  0.5069670000000  0.5384180000000  0.5180740000000 1.0
C      1  0.4615820000000  0.5180740000000  0.4930330000000 1.0
C      1  0.4615820000000  0.4819260000000  0.5069670000000 1.0
C      1  0.5384180000000  0.4819260000000  0.4930330000000 1.0
C      1  0.4819260000000  0.5069670000000  0.4615820000000 1.0
C      1  0.4819260000000  0.4930330000000  0.5384180000000 1.0
C      1  0.5180740000000  0.4930330000000  0.4615820000000 1.0
C      1  0.4930330000000  0.5384180000000  0.4819260000000 1.0
C      1  0.4930330000000  0.4615820000000  0.5180740000000 1.0
C      1  0.5069670000000  0.4615820000000  0.4819260000000 1.0
C      1  0.5384180000000  0.4819260000000  0.5069670000000 1.0
C      1  0.5180740000000  0.4930330000000  0.5384180000000 1.0
C      1  0.5069670000000  0.4615820000000  0.5180740000000 1.0
C      1  0.4615820000000  0.4819260000000  0.4930330000000 1.0
C      1  0.4615820000000  0.5180740000000  0.5069670000000 1.0
C      1  0.5384180000000  0.5180740000000  0.4930330000000 1.0
C      1  0.4819260000000  0.4930330000000  0.4615820000000 1.0
C      1  0.4819260000000  0.5069670000000  0.5384180000000 1.0
C      1  0.5180740000000  0.5069670000000  0.4615820000000 1.0
C      1  0.4930330000000  0.4615820000000  0.4819260000000 1.0
C      1  0.4930330000000  0.5384180000000  0.5180740000000 1.0
C      1  0.5069670000000  0.5384180000000  0.4819260000000 1.0
C      1  0.4923870000000  0.4696300000000  0.5418940000000 1.0
C      1  0.4696300000000  0.5418940000000  0.4923870000000 1.0
C      1  0.5418940000000  0.4923870000000  0.4696300000000 1.0
C      1  0.5076130000000  0.4696300000000  0.4581060000000 1.0
C      1  0.5076130000000  0.5303700000000  0.5418940000000 1.0
C      1  0.4923870000000  0.5303700000000  0.4581060000000 1.0
C      1  0.5303700000000  0.5418940000000  0.5076130000000 1.0
C      1  0.5303700000000  0.4581060000000  0.4923870000000 1.0
C      1  0.4696300000000  0.4581060000000  0.5076130000000 1.0
C      1  0.4581060000000  0.4923870000000  0.5303700000000 1.0
C      1  0.4581060000000  0.5076130000000  0.4696300000000 1.0
C      1  0.5418940000000  0.5076130000000  0.5303700000000 1.0
C      1  0.4923870000000  0.5303700000000  0.5418940000000 1.0
C      1  0.4696300000000  0.4581060000000  0.4923870000000 1.0
C      1  0.5418940000000  0.5076130000000  0.4696300000000 1.0
C      1  0.5076130000000  0.5303700000000  0.4581060000000 1.0
C      1  0.5076130000000  0.4696300000000  0.5418940000000 1.0
C      1  0.4923870000000  0.4696300000000  0.4581060000000 1.0
C      1  0.5303700000000  0.4581060000000  0.5076130000000 1.0
C      1  0.5303700000000  0.5418940000000  0.4923870000000 1.0
C      1  0.4696300000000  0.5418940000000  0.5076130000000 1.0
C      1  0.4581060000000  0.5076130000000  0.5303700000000 1.0
C      1  0.4581060000000  0.4923870000000  0.4696300000000 1.0
C      1  0.5418940000000  0.4923870000000  0.5303700000000 1.0
C      1  0.4450910000000  0.4858260000000  0.5308090000000 1.0
C      1  0.4858260000000  0.5308090000000  0.4450910000000 1.0
C      1  0.5308090000000  0.4450910000000  0.4858260000000 1.0
C      1  0.5549090000000  0.4858260000000  0.4691910000000 1.0
C      1  0.5549090000000  0.5141740000000  0.5308090000000 1.0
C      1  0.4450910000000  0.5141740000000  0.4691910000000 1.0
C      1  0.5141740000000  0.5308090000000  0.5549090000000 1.0
C      1  0.5141740000000  0.4691910000000  0.4450910000000 1.0
C      1  0.4858260000000  0.4691910000000  0.5549090000000 1.0
C      1  0.4691910000000  0.4450910000000  0.5141740000000 1.0
C      1  0.4691910000000  0.5549090000000  0.4858260000000 1.0
C      1  0.5308090000000  0.5549090000000  0.5141740000000 1.0
C      1  0.4450910000000  0.5141740000000  0.5308090000000 1.0
C      1  0.4858260000000  0.4691910000000  0.4450910000000 1.0
C      1  0.5308090000000  0.5549090000000  0.4858260000000 1.0
C      1  0.5549090000000  0.5141740000000  0.4691910000000 1.0
C      1  0.5549090000000  0.4858260000000  0.5308090000000 1.0
C      1  0.4450910000000  0.4858260000000  0.4691910000000 1.0
C      1  0.5141740000000  0.4691910000000  0.5549090000000 1.0
C      1  0.5141740000000  0.5308090000000  0.4450910000000 1.0
C      1  0.4858260000000  0.5308090000000  0.5549090000000 1.0
C      1  0.4691910000000  0.5549090000000  0.5141740000000 1.0
C      1  0.4691910000000  0.4450910000000  0.4858260000000 1.0
C      1  0.5308090000000  0.4450910000000  0.5141740000000 1.0
C      1  0.4692220000000  0.4101970000000  0.5161860000000 1.0
C      1  0.4101970000000  0.5161860000000  0.4692220000000 1.0
C      1  0.5161860000000  0.4692220000000  0.4101970000000 1.0
C      1  0.5307780000000  0.4101970000000  0.4838140000000 1.0
C      1  0.5307780000000  0.5898030000000  0.5161860000000 1.0
C      1  0.4692220000000  0.5898030000000  0.4838140000000 1.0
C      1  0.5898030000000  0.5161860000000  0.5307780000000 1.0
C      1  0.5898030000000  0.4838140000000  0.4692220000000 1.0
C      1  0.4101970000000  0.4838140000000  0.5307780000000 1.0
C      1  0.4838140000000  0.4692220000000  0.5898030000000 1.0
C      1  0.4838140000000  0.5307780000000  0.4101970000000 1.0
C      1  0.5161860000000  0.5307780000000  0.5898030000000 1.0
C      1  0.4692220000000  0.5898030000000  0.5161860000000 1.0
C      1  0.4101970000000  0.4838140000000  0.4692220000000 1.0
C      1  0.5161860000000  0.5307780000000  0.4101970000000 1.0
C      1  0.5307780000000  0.5898030000000  0.4838140000000 1.0
C      1  0.5307780000000  0.4101970000000  0.5161860000000 1.0
C      1  0.4692220000000  0.4101970000000  0.4838140000000 1.0
C      1  0.5898030000000  0.4838140000000  0.5307780000000 1.0
C      1  0.5898030000000  0.5161860000000  0.4692220000000 1.0
C      1  0.4101970000000  0.5161860000000  0.5307780000000 1.0
C      1  0.4838140000000  0.5307780000000  0.5898030000000 1.0
C      1  0.4838140000000  0.4692220000000  0.4101970000000 1.0
C      1  0.5161860000000  0.4692220000000  0.5898030000000 1.0
C      1  0.5651110000000  0.4633960000000  0.5356230000000 1.0
C      1  0.4633960000000  0.5356230000000  0.5651110000000 1.0
C      1  0.5356230000000  0.5651110000000  0.4633960000000 1.0
C      1  0.4348890000000  0.4633960000000  0.4643770000000 1.0
C      1  0.4348890000000  0.5366040000000  0.5356230000000 1.0
C      1  0.5651110000000  0.5366040000000  0.4643770000000 1.0
C      1  0.5366040000000  0.5356230000000  0.4348890000000 1.0
C      1  0.5366040000000  0.4643770000000  0.5651110000000 1.0
C      1  0.4633960000000  0.4643770000000  0.4348890000000 1.0
C      1  0.4643770000000  0.5651110000000  0.5366040000000 1.0
C      1  0.4643770000000  0.4348890000000  0.4633960000000 1.0
C      1  0.5356230000000  0.4348890000000  0.5366040000000 1.0
C      1  0.5651110000000  0.5366040000000  0.5356230000000 1.0
C      1  0.4633960000000  0.4643770000000  0.5651110000000 1.0
C      1  0.5356230000000  0.4348890000000  0.4633960000000 1.0
C      1  0.4348890000000  0.5366040000000  0.4643770000000 1.0
C      1  0.4348890000000  0.4633960000000  0.5356230000000 1.0
C      1  0.5651110000000  0.4633960000000  0.4643770000000 1.0
C      1  0.5366040000000  0.4643770000000  0.4348890000000 1.0
C      1  0.5366040000000  0.5356230000000  0.5651110000000 1.0
C      1  0.4633960000000  0.5356230000000  0.4348890000000 1.0
C      1  0.4643770000000  0.4348890000000  0.5366040000000 1.0
C      1  0.4643770000000  0.5651110000000  0.4633960000000 1.0
C      1  0.5356230000000  0.5651110000000  0.5366040000000 1.0
C      1  0.4203930000000  0.4635730000000  0.5115240000000 1.0
C      1  0.4635730000000  0.5115240000000  0.4203930000000 1.0
C      1  0.5115240000000  0.4203930000000  0.4635730000000 1.0
C      1  0.5796070000000  0.4635730000000  0.4884760000000 1.0
C      1  0.5796070000000  0.5364270000000  0.5115240000000 1.0
C      1  0.4203930000000  0.5364270000000  0.4884760000000 1.0
C      1  0.5364270000000  0.5115240000000  0.5796070000000 1.0
C      1  0.5364270000000  0.4884760000000  0.4203930000000 1.0
C      1  0.4635730000000  0.4884760000000  0.5796070000000 1.0
C      1  0.4884760000000  0.4203930000000  0.5364270000000 1.0
C      1  0.4884760000000  0.5796070000000  0.4635730000000 1.0
C      1  0.5115240000000  0.5796070000000  0.5364270000000 1.0
C      1  0.4203930000000  0.5364270000000  0.5115240000000 1.0
C      1  0.4635730000000  0.4884760000000  0.4203930000000 1.0
C      1  0.5115240000000  0.5796070000000  0.4635730000000 1.0
C      1  0.5796070000000  0.5364270000000  0.4884760000000 1.0
C      1  0.5796070000000  0.4635730000000  0.5115240000000 1.0
C      1  0.4203930000000  0.4635730000000  0.4884760000000 1.0
C      1  0.5364270000000  0.4884760000000  0.5796070000000 1.0
C      1  0.5364270000000  0.5115240000000  0.4203930000000 1.0
C      1  0.4635730000000  0.5115240000000  0.5796070000000 1.0
C      1  0.4884760000000  0.5796070000000  0.5364270000000 1.0
C      1  0.4884760000000  0.4203930000000  0.4635730000000 1.0
C      1  0.5115240000000  0.4203930000000  0.5364270000000 1.0
END
