TITL C-1379267-1329-349 -2.78166848284647e-06 1000000 -3665.30975795477 0 0 540 (Th) n - 1
REM
REM in /nfs/bkarasulu/CARBON/AIRSS/Generating-Clusters/GAP-ML-2020/Higher-Symm/Selected-Sizes/TryA-Only_Ih-Symm/Larger-Clusters/Try2-MINAMP_6A
REM
REM
REM
REM
REM
REM ./C.cell (31579ac4e95a012ec27f3239692ae8a5)
REM
REM compiler GCC version 9.2.1 20190827 (Red Hat 9.2.1-1)
REM options -cpp -mtune=generic -march=x86-64 -g -O0 -fpre-include=/usr/include/finclude/math-vector-fortran.h
REM seed 1302954949 -620769797 -484493902 -557122452 2005188457 1858076585 -484290936 1657299440 -694920758 -1806516903 -108731794 714553981 447215775 -592484011 -937119003 562829054 -916287887 465167812 2102543565 1208973610 1592856886 -340789565 -1504338758 1521373783 -854514186 532610624 2042657984 -2026791954 -884715209 -1068319717 -938489438 198030343 707595522
REM
CELL 1.54180  100.00000  100.00000  100.00000   90.00000   90.00000   90.00000
LATT -1
SFAC C  
C      1  0.4330300000000  0.5147970000000  0.4852380000000 1.0
C      1  0.4852380000000  0.4330300000000  0.5147970000000 1.0
C      1  0.5147970000000  0.4852380000000  0.4330300000000 1.0
C      1  0.5669700000000  0.5147970000000  0.5147620000000 1.0
C      1  0.4330300000000  0.4852030000000  0.5147620000000 1.0
C      1  0.5669700000000  0.4852030000000  0.4852380000000 1.0
C      1  0.5147620000000  0.4330300000000  0.4852030000000 1.0
C      1  0.4852380000000  0.5669700000000  0.4852030000000 1.0
C      1  0.5147620000000  0.5669700000000  0.5147970000000 1.0
C      1  0.4852030000000  0.4852380000000  0.5669700000000 1.0
C      1  0.5147970000000  0.5147620000000  0.5669700000000 1.0
C      1  0.4852030000000  0.5147620000000  0.4330300000000 1.0
C      1  0.4330300000000  0.4852030000000  0.4852380000000 1.0
C      1  0.4852380000000  0.5669700000000  0.5147970000000 1.0
C      1  0.5147970000000  0.5147620000000  0.4330300000000 1.0
C      1  0.5669700000000  0.4852030000000  0.5147620000000 1.0
C      1  0.4330300000000  0.5147970000000  0.5147620000000 1.0
C      1  0.5669700000000  0.5147970000000  0.4852380000000 1.0
C      1  0.5147620000000  0.5669700000000  0.4852030000000 1.0
C      1  0.4852380000000  0.4330300000000  0.4852030000000 1.0
C      1  0.5147620000000  0.4330300000000  0.5147970000000 1.0
C      1  0.4852030000000  0.5147620000000  0.5669700000000 1.0
C      1  0.5147970000000  0.4852380000000  0.5669700000000 1.0
C      1  0.4852030000000  0.4852380000000  0.4330300000000 1.0
C      1  0.4929090000000  0.4827000000000  0.4203470000000 1.0
C      1  0.4203470000000  0.4929090000000  0.4827000000000 1.0
C      1  0.4827000000000  0.4203470000000  0.4929090000000 1.0
C      1  0.5070910000000  0.4827000000000  0.5796530000000 1.0
C      1  0.4929090000000  0.5173000000000  0.5796530000000 1.0
C      1  0.5070910000000  0.5173000000000  0.4203470000000 1.0
C      1  0.5796530000000  0.4929090000000  0.5173000000000 1.0
C      1  0.4203470000000  0.5070910000000  0.5173000000000 1.0
C      1  0.5796530000000  0.5070910000000  0.4827000000000 1.0
C      1  0.5173000000000  0.4203470000000  0.5070910000000 1.0
C      1  0.4827000000000  0.5796530000000  0.5070910000000 1.0
C      1  0.5173000000000  0.5796530000000  0.4929090000000 1.0
C      1  0.4929090000000  0.5173000000000  0.4203470000000 1.0
C      1  0.4203470000000  0.5070910000000  0.4827000000000 1.0
C      1  0.4827000000000  0.5796530000000  0.4929090000000 1.0
C      1  0.5070910000000  0.5173000000000  0.5796530000000 1.0
C      1  0.4929090000000  0.4827000000000  0.5796530000000 1.0
C      1  0.5070910000000  0.4827000000000  0.4203470000000 1.0
C      1  0.5796530000000  0.5070910000000  0.5173000000000 1.0
C      1  0.4203470000000  0.4929090000000  0.5173000000000 1.0
C      1  0.5796530000000  0.4929090000000  0.4827000000000 1.0
C      1  0.5173000000000  0.5796530000000  0.5070910000000 1.0
C      1  0.4827000000000  0.4203470000000  0.5070910000000 1.0
C      1  0.5173000000000  0.4203470000000  0.4929090000000 1.0
C      1  0.5581490000000  0.4929990000000  0.4266760000000 1.0
C      1  0.4266760000000  0.5581490000000  0.4929990000000 1.0
C      1  0.4929990000000  0.4266760000000  0.5581490000000 1.0
C      1  0.4418510000000  0.4929990000000  0.5733240000000 1.0
C      1  0.5581490000000  0.5070010000000  0.5733240000000 1.0
C      1  0.4418510000000  0.5070010000000  0.4266760000000 1.0
C      1  0.5733240000000  0.5581490000000  0.5070010000000 1.0
C      1  0.4266760000000  0.4418510000000  0.5070010000000 1.0
C      1  0.5733240000000  0.4418510000000  0.4929990000000 1.0
C      1  0.5070010000000  0.4266760000000  0.4418510000000 1.0
C      1  0.4929990000000  0.5733240000000  0.4418510000000 1.0
C      1  0.5070010000000  0.5733240000000  0.5581490000000 1.0
C      1  0.5581490000000  0.5070010000000  0.4266760000000 1.0
C      1  0.4266760000000  0.4418510000000  0.4929990000000 1.0
C      1  0.4929990000000  0.5733240000000  0.5581490000000 1.0
C      1  0.4418510000000  0.5070010000000  0.5733240000000 1.0
C      1  0.5581490000000  0.4929990000000  0.5733240000000 1.0
C      1  0.4418510000000  0.4929990000000  0.4266760000000 1.0
C      1  0.5733240000000  0.4418510000000  0.5070010000000 1.0
C      1  0.4266760000000  0.5581490000000  0.5070010000000 1.0
C      1  0.5733240000000  0.5581490000000  0.4929990000000 1.0
C      1  0.5070010000000  0.5733240000000  0.4418510000000 1.0
C      1  0.4929990000000  0.4266760000000  0.4418510000000 1.0
C      1  0.5070010000000  0.4266760000000  0.5581490000000 1.0
C      1  0.5568540000000  0.5073160000000  0.4928850000000 1.0
C      1  0.4928850000000  0.5568540000000  0.5073160000000 1.0
C      1  0.5073160000000  0.4928850000000  0.5568540000000 1.0
C      1  0.4431460000000  0.5073160000000  0.5071150000000 1.0
C      1  0.5568540000000  0.4926840000000  0.5071150000000 1.0
C      1  0.4431460000000  0.4926840000000  0.4928850000000 1.0
C      1  0.5071150000000  0.5568540000000  0.4926840000000 1.0
C      1  0.4928850000000  0.4431460000000  0.4926840000000 1.0
C      1  0.5071150000000  0.4431460000000  0.5073160000000 1.0
C      1  0.4926840000000  0.4928850000000  0.4431460000000 1.0
C      1  0.5073160000000  0.5071150000000  0.4431460000000 1.0
C      1  0.4926840000000  0.5071150000000  0.5568540000000 1.0
C      1  0.5568540000000  0.4926840000000  0.4928850000000 1.0
C      1  0.4928850000000  0.4431460000000  0.5073160000000 1.0
C      1  0.5073160000000  0.5071150000000  0.5568540000000 1.0
C      1  0.4431460000000  0.4926840000000  0.5071150000000 1.0
C      1  0.5568540000000  0.5073160000000  0.5071150000000 1.0
C      1  0.4431460000000  0.5073160000000  0.4928850000000 1.0
C      1  0.5071150000000  0.4431460000000  0.4926840000000 1.0
C      1  0.4928850000000  0.5568540000000  0.4926840000000 1.0
C      1  0.5071150000000  0.5568540000000  0.5073160000000 1.0
C      1  0.4926840000000  0.5071150000000  0.4431460000000 1.0
C      1  0.5073160000000  0.4928850000000  0.4431460000000 1.0
C      1  0.4926840000000  0.4928850000000  0.5568540000000 1.0
C      1  0.4485080000000  0.5080390000000  0.5505200000000 1.0
C      1  0.5505200000000  0.4485080000000  0.5080390000000 1.0
C      1  0.5080390000000  0.5505200000000  0.4485080000000 1.0
C      1  0.5514920000000  0.5080390000000  0.4494800000000 1.0
C      1  0.4485080000000  0.4919610000000  0.4494800000000 1.0
C      1  0.5514920000000  0.4919610000000  0.5505200000000 1.0
C      1  0.4494800000000  0.4485080000000  0.4919610000000 1.0
C      1  0.5505200000000  0.5514920000000  0.4919610000000 1.0
C      1  0.4494800000000  0.5514920000000  0.5080390000000 1.0
C      1  0.4919610000000  0.5505200000000  0.5514920000000 1.0
C      1  0.5080390000000  0.4494800000000  0.5514920000000 1.0
C      1  0.4919610000000  0.4494800000000  0.4485080000000 1.0
C      1  0.4485080000000  0.4919610000000  0.5505200000000 1.0
C      1  0.5505200000000  0.5514920000000  0.5080390000000 1.0
C      1  0.5080390000000  0.4494800000000  0.4485080000000 1.0
C      1  0.5514920000000  0.4919610000000  0.4494800000000 1.0
C      1  0.4485080000000  0.5080390000000  0.4494800000000 1.0
C      1  0.5514920000000  0.5080390000000  0.5505200000000 1.0
C      1  0.4494800000000  0.5514920000000  0.4919610000000 1.0
C      1  0.5505200000000  0.4485080000000  0.4919610000000 1.0
C      1  0.4494800000000  0.4485080000000  0.5080390000000 1.0
C      1  0.4919610000000  0.4494800000000  0.5514920000000 1.0
C      1  0.5080390000000  0.5505200000000  0.5514920000000 1.0
C      1  0.4919610000000  0.5505200000000  0.4485080000000 1.0
C      1  0.4607060000000  0.5427120000000  0.4698110000000 1.0
C      1  0.4698110000000  0.4607060000000  0.5427120000000 1.0
C      1  0.5427120000000  0.4698110000000  0.4607060000000 1.0
C      1  0.5392940000000  0.5427120000000  0.5301890000000 1.0
C      1  0.4607060000000  0.4572880000000  0.5301890000000 1.0
C      1  0.5392940000000  0.4572880000000  0.4698110000000 1.0
C      1  0.5301890000000  0.4607060000000  0.4572880000000 1.0
C      1  0.4698110000000  0.5392940000000  0.4572880000000 1.0
C      1  0.5301890000000  0.5392940000000  0.5427120000000 1.0
C      1  0.4572880000000  0.4698110000000  0.5392940000000 1.0
C      1  0.5427120000000  0.5301890000000  0.5392940000000 1.0
C      1  0.4572880000000  0.5301890000000  0.4607060000000 1.0
C      1  0.4607060000000  0.4572880000000  0.4698110000000 1.0
C      1  0.4698110000000  0.5392940000000  0.5427120000000 1.0
C      1  0.5427120000000  0.5301890000000  0.4607060000000 1.0
C      1  0.5392940000000  0.4572880000000  0.5301890000000 1.0
C      1  0.4607060000000  0.5427120000000  0.5301890000000 1.0
C      1  0.5392940000000  0.5427120000000  0.4698110000000 1.0
C      1  0.5301890000000  0.5392940000000  0.4572880000000 1.0
C      1  0.4698110000000  0.4607060000000  0.4572880000000 1.0
C      1  0.5301890000000  0.4607060000000  0.5427120000000 1.0
C      1  0.4572880000000  0.5301890000000  0.5392940000000 1.0
C      1  0.5427120000000  0.4698110000000  0.5392940000000 1.0
C      1  0.4572880000000  0.4698110000000  0.4607060000000 1.0
C      1  0.4313420000000  0.5455910000000  0.5392870000000 1.0
C      1  0.5392870000000  0.4313420000000  0.5455910000000 1.0
C      1  0.5455910000000  0.5392870000000  0.4313420000000 1.0
C      1  0.5686580000000  0.5455910000000  0.4607130000000 1.0
C      1  0.4313420000000  0.4544090000000  0.4607130000000 1.0
C      1  0.5686580000000  0.4544090000000  0.5392870000000 1.0
C      1  0.4607130000000  0.4313420000000  0.4544090000000 1.0
C      1  0.5392870000000  0.5686580000000  0.4544090000000 1.0
C      1  0.4607130000000  0.5686580000000  0.5455910000000 1.0
C      1  0.4544090000000  0.5392870000000  0.5686580000000 1.0
C      1  0.5455910000000  0.4607130000000  0.5686580000000 1.0
C      1  0.4544090000000  0.4607130000000  0.4313420000000 1.0
C      1  0.4313420000000  0.4544090000000  0.5392870000000 1.0
C      1  0.5392870000000  0.5686580000000  0.5455910000000 1.0
C      1  0.5455910000000  0.4607130000000  0.4313420000000 1.0
C      1  0.5686580000000  0.4544090000000  0.4607130000000 1.0
C      1  0.4313420000000  0.5455910000000  0.4607130000000 1.0
C      1  0.5686580000000  0.5455910000000  0.5392870000000 1.0
C      1  0.4607130000000  0.5686580000000  0.4544090000000 1.0
C      1  0.5392870000000  0.4313420000000  0.4544090000000 1.0
C      1  0.4607130000000  0.4313420000000  0.5455910000000 1.0
C      1  0.4544090000000  0.4607130000000  0.5686580000000 1.0
C      1  0.5455910000000  0.5392870000000  0.5686580000000 1.0
C      1  0.4544090000000  0.5392870000000  0.4313420000000 1.0
C      1  0.5601980000000  0.4496380000000  0.4504320000000 1.0
C      1  0.4504320000000  0.5601980000000  0.4496380000000 1.0
C      1  0.4496380000000  0.4504320000000  0.5601980000000 1.0
C      1  0.4398020000000  0.4496380000000  0.5495680000000 1.0
C      1  0.5601980000000  0.5503620000000  0.5495680000000 1.0
C      1  0.4398020000000  0.5503620000000  0.4504320000000 1.0
C      1  0.5495680000000  0.5601980000000  0.5503620000000 1.0
C      1  0.4504320000000  0.4398020000000  0.5503620000000 1.0
C      1  0.5495680000000  0.4398020000000  0.4496380000000 1.0
C      1  0.5503620000000  0.4504320000000  0.4398020000000 1.0
C      1  0.4496380000000  0.5495680000000  0.4398020000000 1.0
C      1  0.5503620000000  0.5495680000000  0.5601980000000 1.0
C      1  0.5601980000000  0.5503620000000  0.4504320000000 1.0
C      1  0.4504320000000  0.4398020000000  0.4496380000000 1.0
C      1  0.4496380000000  0.5495680000000  0.5601980000000 1.0
C      1  0.4398020000000  0.5503620000000  0.5495680000000 1.0
C      1  0.5601980000000  0.4496380000000  0.5495680000000 1.0
C      1  0.4398020000000  0.4496380000000  0.4504320000000 1.0
C      1  0.5495680000000  0.4398020000000  0.5503620000000 1.0
C      1  0.4504320000000  0.5601980000000  0.5503620000000 1.0
C      1  0.5495680000000  0.5601980000000  0.4496380000000 1.0
C      1  0.5503620000000  0.5495680000000  0.4398020000000 1.0
C      1  0.4496380000000  0.4504320000000  0.4398020000000 1.0
C      1  0.5503620000000  0.4504320000000  0.5601980000000 1.0
C      1  0.5343740000000  0.5764800000000  0.4668180000000 1.0
C      1  0.4668180000000  0.5343740000000  0.5764800000000 1.0
C      1  0.5764800000000  0.4668180000000  0.5343740000000 1.0
C      1  0.4656260000000  0.5764800000000  0.5331820000000 1.0
C      1  0.5343740000000  0.4235200000000  0.5331820000000 1.0
C      1  0.4656260000000  0.4235200000000  0.4668180000000 1.0
C      1  0.5331820000000  0.5343740000000  0.4235200000000 1.0
C      1  0.4668180000000  0.4656260000000  0.4235200000000 1.0
C      1  0.5331820000000  0.4656260000000  0.5764800000000 1.0
C      1  0.4235200000000  0.4668180000000  0.4656260000000 1.0
C      1  0.5764800000000  0.5331820000000  0.4656260000000 1.0
C      1  0.4235200000000  0.5331820000000  0.5343740000000 1.0
C      1  0.5343740000000  0.4235200000000  0.4668180000000 1.0
C      1  0.4668180000000  0.4656260000000  0.5764800000000 1.0
C      1  0.5764800000000  0.5331820000000  0.5343740000000 1.0
C      1  0.4656260000000  0.4235200000000  0.5331820000000 1.0
C      1  0.5343740000000  0.5764800000000  0.5331820000000 1.0
C      1  0.4656260000000  0.5764800000000  0.4668180000000 1.0
C      1  0.5331820000000  0.4656260000000  0.4235200000000 1.0
C      1  0.4668180000000  0.5343740000000  0.4235200000000 1.0
C      1  0.5331820000000  0.5343740000000  0.5764800000000 1.0
C      1  0.4235200000000  0.5331820000000  0.4656260000000 1.0
C      1  0.5764800000000  0.4668180000000  0.4656260000000 1.0
C      1  0.4235200000000  0.4668180000000  0.5343740000000 1.0
C      1  0.5067190000000  0.5357510000000  0.4457620000000 1.0
C      1  0.4457620000000  0.5067190000000  0.5357510000000 1.0
C      1  0.5357510000000  0.4457620000000  0.5067190000000 1.0
C      1  0.4932810000000  0.5357510000000  0.5542380000000 1.0
C      1  0.5067190000000  0.4642490000000  0.5542380000000 1.0
C      1  0.4932810000000  0.4642490000000  0.4457620000000 1.0
C      1  0.5542380000000  0.5067190000000  0.4642490000000 1.0
C      1  0.4457620000000  0.4932810000000  0.4642490000000 1.0
C      1  0.5542380000000  0.4932810000000  0.5357510000000 1.0
C      1  0.4642490000000  0.4457620000000  0.4932810000000 1.0
C      1  0.5357510000000  0.5542380000000  0.4932810000000 1.0
C      1  0.4642490000000  0.5542380000000  0.5067190000000 1.0
C      1  0.5067190000000  0.4642490000000  0.4457620000000 1.0
C      1  0.4457620000000  0.4932810000000  0.5357510000000 1.0
C      1  0.5357510000000  0.5542380000000  0.5067190000000 1.0
C      1  0.4932810000000  0.4642490000000  0.5542380000000 1.0
C      1  0.5067190000000  0.5357510000000  0.5542380000000 1.0
C      1  0.4932810000000  0.5357510000000  0.4457620000000 1.0
C      1  0.5542380000000  0.4932810000000  0.4642490000000 1.0
C      1  0.4457620000000  0.5067190000000  0.4642490000000 1.0
C      1  0.5542380000000  0.5067190000000  0.5357510000000 1.0
C      1  0.4642490000000  0.5542380000000  0.4932810000000 1.0
C      1  0.5357510000000  0.4457620000000  0.4932810000000 1.0
C      1  0.4642490000000  0.4457620000000  0.5067190000000 1.0
C      1  0.4399320000000  0.5612910000000  0.4854480000000 1.0
C      1  0.4854480000000  0.4399320000000  0.5612910000000 1.0
C      1  0.5612910000000  0.4854480000000  0.4399320000000 1.0
C      1  0.5600680000000  0.5612910000000  0.5145520000000 1.0
C      1  0.4399320000000  0.4387090000000  0.5145520000000 1.0
C      1  0.5600680000000  0.4387090000000  0.4854480000000 1.0
C      1  0.5145520000000  0.4399320000000  0.4387090000000 1.0
C      1  0.4854480000000  0.5600680000000  0.4387090000000 1.0
C      1  0.5145520000000  0.5600680000000  0.5612910000000 1.0
C      1  0.4387090000000  0.4854480000000  0.5600680000000 1.0
C      1  0.5612910000000  0.5145520000000  0.5600680000000 1.0
C      1  0.4387090000000  0.5145520000000  0.4399320000000 1.0
C      1  0.4399320000000  0.4387090000000  0.4854480000000 1.0
C      1  0.4854480000000  0.5600680000000  0.5612910000000 1.0
C      1  0.5612910000000  0.5145520000000  0.4399320000000 1.0
C      1  0.5600680000000  0.4387090000000  0.5145520000000 1.0
C      1  0.4399320000000  0.5612910000000  0.5145520000000 1.0
C      1  0.5600680000000  0.5612910000000  0.4854480000000 1.0
C      1  0.5145520000000  0.5600680000000  0.4387090000000 1.0
C      1  0.4854480000000  0.4399320000000  0.4387090000000 1.0
C      1  0.5145520000000  0.4399320000000  0.5612910000000 1.0
C      1  0.4387090000000  0.5145520000000  0.5600680000000 1.0
C      1  0.5612910000000  0.4854480000000  0.5600680000000 1.0
C      1  0.4387090000000  0.4854480000000  0.4399320000000 1.0
C      1  0.5289110000000  0.4383290000000  0.4833830000000 1.0
C      1  0.4833830000000  0.5289110000000  0.4383290000000 1.0
C      1  0.4383290000000  0.4833830000000  0.5289110000000 1.0
C      1  0.4710890000000  0.4383290000000  0.5166170000000 1.0
C      1  0.5289110000000  0.5616710000000  0.5166170000000 1.0
C      1  0.4710890000000  0.5616710000000  0.4833830000000 1.0
C      1  0.5166170000000  0.5289110000000  0.5616710000000 1.0
C      1  0.4833830000000  0.4710890000000  0.5616710000000 1.0
C      1  0.5166170000000  0.4710890000000  0.4383290000000 1.0
C      1  0.5616710000000  0.4833830000000  0.4710890000000 1.0
C      1  0.4383290000000  0.5166170000000  0.4710890000000 1.0
C      1  0.5616710000000  0.5166170000000  0.5289110000000 1.0
C      1  0.5289110000000  0.5616710000000  0.4833830000000 1.0
C      1  0.4833830000000  0.4710890000000  0.4383290000000 1.0
C      1  0.4383290000000  0.5166170000000  0.5289110000000 1.0
C      1  0.4710890000000  0.5616710000000  0.5166170000000 1.0
C      1  0.5289110000000  0.4383290000000  0.5166170000000 1.0
C      1  0.4710890000000  0.4383290000000  0.4833830000000 1.0
C      1  0.5166170000000  0.4710890000000  0.5616710000000 1.0
C      1  0.4833830000000  0.5289110000000  0.5616710000000 1.0
C      1  0.5166170000000  0.5289110000000  0.4383290000000 1.0
C      1  0.5616710000000  0.5166170000000  0.4710890000000 1.0
C      1  0.4383290000000  0.4833830000000  0.4710890000000 1.0
C      1  0.5616710000000  0.4833830000000  0.5289110000000 1.0
C      1  0.4706200000000  0.5519190000000  0.4733360000000 1.0
C      1  0.4733360000000  0.4706200000000  0.5519190000000 1.0
C      1  0.5519190000000  0.4733360000000  0.4706200000000 1.0
C      1  0.5293800000000  0.5519190000000  0.5266640000000 1.0
C      1  0.4706200000000  0.4480810000000  0.5266640000000 1.0
C      1  0.5293800000000  0.4480810000000  0.4733360000000 1.0
C      1  0.5266640000000  0.4706200000000  0.4480810000000 1.0
C      1  0.4733360000000  0.5293800000000  0.4480810000000 1.0
C      1  0.5266640000000  0.5293800000000  0.5519190000000 1.0
C      1  0.4480810000000  0.4733360000000  0.5293800000000 1.0
C      1  0.5519190000000  0.5266640000000  0.5293800000000 1.0
C      1  0.4480810000000  0.5266640000000  0.4706200000000 1.0
C      1  0.4706200000000  0.4480810000000  0.4733360000000 1.0
C      1  0.4733360000000  0.5293800000000  0.5519190000000 1.0
C      1  0.5519190000000  0.5266640000000  0.4706200000000 1.0
C      1  0.5293800000000  0.4480810000000  0.5266640000000 1.0
C      1  0.4706200000000  0.5519190000000  0.5266640000000 1.0
C      1  0.5293800000000  0.5519190000000  0.4733360000000 1.0
C      1  0.5266640000000  0.5293800000000  0.4480810000000 1.0
C      1  0.4733360000000  0.4706200000000  0.4480810000000 1.0
C      1  0.5266640000000  0.4706200000000  0.5519190000000 1.0
C      1  0.4480810000000  0.5266640000000  0.5293800000000 1.0
C      1  0.5519190000000  0.4733360000000  0.5293800000000 1.0
C      1  0.4480810000000  0.4733360000000  0.4706200000000 1.0
C      1  0.4683950000000  0.4165880000000  0.5072100000000 1.0
C      1  0.5072100000000  0.4683950000000  0.4165880000000 1.0
C      1  0.4165880000000  0.5072100000000  0.4683950000000 1.0
C      1  0.5316050000000  0.4165880000000  0.4927900000000 1.0
C      1  0.4683950000000  0.5834120000000  0.4927900000000 1.0
C      1  0.5316050000000  0.5834120000000  0.5072100000000 1.0
C      1  0.4927900000000  0.4683950000000  0.5834120000000 1.0
C      1  0.5072100000000  0.5316050000000  0.5834120000000 1.0
C      1  0.4927900000000  0.5316050000000  0.4165880000000 1.0
C      1  0.5834120000000  0.5072100000000  0.5316050000000 1.0
C      1  0.4165880000000  0.4927900000000  0.5316050000000 1.0
C      1  0.5834120000000  0.4927900000000  0.4683950000000 1.0
C      1  0.4683950000000  0.5834120000000  0.5072100000000 1.0
C      1  0.5072100000000  0.5316050000000  0.4165880000000 1.0
C      1  0.4165880000000  0.4927900000000  0.4683950000000 1.0
C      1  0.5316050000000  0.5834120000000  0.4927900000000 1.0
C      1  0.4683950000000  0.4165880000000  0.4927900000000 1.0
C      1  0.5316050000000  0.4165880000000  0.5072100000000 1.0
C      1  0.4927900000000  0.5316050000000  0.5834120000000 1.0
C      1  0.5072100000000  0.4683950000000  0.5834120000000 1.0
C      1  0.4927900000000  0.4683950000000  0.4165880000000 1.0
C      1  0.5834120000000  0.4927900000000  0.5316050000000 1.0
C      1  0.4165880000000  0.5072100000000  0.5316050000000 1.0
C      1  0.5834120000000  0.5072100000000  0.4683950000000 1.0
C      1  0.5185890000000  0.5389180000000  0.4238950000000 1.0
C      1  0.4238950000000  0.5185890000000  0.5389180000000 1.0
C      1  0.5389180000000  0.4238950000000  0.5185890000000 1.0
C      1  0.4814110000000  0.5389180000000  0.5761050000000 1.0
C      1  0.5185890000000  0.4610820000000  0.5761050000000 1.0
C      1  0.4814110000000  0.4610820000000  0.4238950000000 1.0
C      1  0.5761050000000  0.5185890000000  0.4610820000000 1.0
C      1  0.4238950000000  0.4814110000000  0.4610820000000 1.0
C      1  0.5761050000000  0.4814110000000  0.5389180000000 1.0
C      1  0.4610820000000  0.4238950000000  0.4814110000000 1.0
C      1  0.5389180000000  0.5761050000000  0.4814110000000 1.0
C      1  0.4610820000000  0.5761050000000  0.5185890000000 1.0
C      1  0.5185890000000  0.4610820000000  0.4238950000000 1.0
C      1  0.4238950000000  0.4814110000000  0.5389180000000 1.0
C      1  0.5389180000000  0.5761050000000  0.5185890000000 1.0
C      1  0.4814110000000  0.4610820000000  0.5761050000000 1.0
C      1  0.5185890000000  0.5389180000000  0.5761050000000 1.0
C      1  0.4814110000000  0.5389180000000  0.4238950000000 1.0
C      1  0.5761050000000  0.4814110000000  0.4610820000000 1.0
C      1  0.4238950000000  0.5185890000000  0.4610820000000 1.0
C      1  0.5761050000000  0.5185890000000  0.5389180000000 1.0
C      1  0.4610820000000  0.5761050000000  0.4814110000000 1.0
C      1  0.5389180000000  0.4238950000000  0.4814110000000 1.0
C      1  0.4610820000000  0.4238950000000  0.5185890000000 1.0
C      1  0.4233300000000  0.4512100000000  0.4828070000000 1.0
C      1  0.4828070000000  0.4233300000000  0.4512100000000 1.0
C      1  0.4512100000000  0.4828070000000  0.4233300000000 1.0
C      1  0.5766700000000  0.4512100000000  0.5171930000000 1.0
C      1  0.4233300000000  0.5487900000000  0.5171930000000 1.0
C      1  0.5766700000000  0.5487900000000  0.4828070000000 1.0
C      1  0.5171930000000  0.4233300000000  0.5487900000000 1.0
C      1  0.4828070000000  0.5766700000000  0.5487900000000 1.0
C      1  0.5171930000000  0.5766700000000  0.4512100000000 1.0
C      1  0.5487900000000  0.4828070000000  0.5766700000000 1.0
C      1  0.4512100000000  0.5171930000000  0.5766700000000 1.0
C      1  0.5487900000000  0.5171930000000  0.4233300000000 1.0
C      1  0.4233300000000  0.5487900000000  0.4828070000000 1.0
C      1  0.4828070000000  0.5766700000000  0.4512100000000 1.0
C      1  0.4512100000000  0.5171930000000  0.4233300000000 1.0
C      1  0.5766700000000  0.5487900000000  0.5171930000000 1.0
C      1  0.4233300000000  0.4512100000000  0.5171930000000 1.0
C      1  0.5766700000000  0.4512100000000  0.4828070000000 1.0
C      1  0.5171930000000  0.5766700000000  0.5487900000000 1.0
C      1  0.4828070000000  0.4233300000000  0.5487900000000 1.0
C      1  0.5171930000000  0.4233300000000  0.4512100000000 1.0
C      1  0.5487900000000  0.5171930000000  0.5766700000000 1.0
C      1  0.4512100000000  0.4828070000000  0.5766700000000 1.0
C      1  0.5487900000000  0.4828070000000  0.4233300000000 1.0
C      1  0.4649500000000  0.4803860000000  0.5783590000000 1.0
C      1  0.5783590000000  0.4649500000000  0.4803860000000 1.0
C      1  0.4803860000000  0.5783590000000  0.4649500000000 1.0
C      1  0.5350500000000  0.4803860000000  0.4216410000000 1.0
C      1  0.4649500000000  0.5196140000000  0.4216410000000 1.0
C      1  0.5350500000000  0.5196140000000  0.5783590000000 1.0
C      1  0.4216410000000  0.4649500000000  0.5196140000000 1.0
C      1  0.5783590000000  0.5350500000000  0.5196140000000 1.0
C      1  0.4216410000000  0.5350500000000  0.4803860000000 1.0
C      1  0.5196140000000  0.5783590000000  0.5350500000000 1.0
C      1  0.4803860000000  0.4216410000000  0.5350500000000 1.0
C      1  0.5196140000000  0.4216410000000  0.4649500000000 1.0
C      1  0.4649500000000  0.5196140000000  0.5783590000000 1.0
C      1  0.5783590000000  0.5350500000000  0.4803860000000 1.0
C      1  0.4803860000000  0.4216410000000  0.4649500000000 1.0
C      1  0.5350500000000  0.5196140000000  0.4216410000000 1.0
C      1  0.4649500000000  0.4803860000000  0.4216410000000 1.0
C      1  0.5350500000000  0.4803860000000  0.5783590000000 1.0
C      1  0.4216410000000  0.5350500000000  0.5196140000000 1.0
C      1  0.5783590000000  0.4649500000000  0.5196140000000 1.0
C      1  0.4216410000000  0.4649500000000  0.4803860000000 1.0
C      1  0.5196140000000  0.4216410000000  0.5350500000000 1.0
C      1  0.4803860000000  0.5783590000000  0.5350500000000 1.0
C      1  0.5196140000000  0.5783590000000  0.4649500000000 1.0
C      1  0.4605530000000  0.5225340000000  0.4476220000000 1.0
C      1  0.4476220000000  0.4605530000000  0.5225340000000 1.0
C      1  0.5225340000000  0.4476220000000  0.4605530000000 1.0
C      1  0.5394470000000  0.5225340000000  0.5523780000000 1.0
C      1  0.4605530000000  0.4774660000000  0.5523780000000 1.0
C      1  0.5394470000000  0.4774660000000  0.4476220000000 1.0
C      1  0.5523780000000  0.4605530000000  0.4774660000000 1.0
C      1  0.4476220000000  0.5394470000000  0.4774660000000 1.0
C      1  0.5523780000000  0.5394470000000  0.5225340000000 1.0
C      1  0.4774660000000  0.4476220000000  0.5394470000000 1.0
C      1  0.5225340000000  0.5523780000000  0.5394470000000 1.0
C      1  0.4774660000000  0.5523780000000  0.4605530000000 1.0
C      1  0.4605530000000  0.4774660000000  0.4476220000000 1.0
C      1  0.4476220000000  0.5394470000000  0.5225340000000 1.0
C      1  0.5225340000000  0.5523780000000  0.4605530000000 1.0
C      1  0.5394470000000  0.4774660000000  0.5523780000000 1.0
C      1  0.4605530000000  0.5225340000000  0.5523780000000 1.0
C      1  0.5394470000000  0.5225340000000  0.4476220000000 1.0
C      1  0.5523780000000  0.5394470000000  0.4774660000000 1.0
C      1  0.4476220000000  0.4605530000000  0.4774660000000 1.0
C      1  0.5523780000000  0.4605530000000  0.5225340000000 1.0
C      1  0.4774660000000  0.5523780000000  0.5394470000000 1.0
C      1  0.5225340000000  0.4476220000000  0.5394470000000 1.0
C      1  0.4774660000000  0.4476220000000  0.4605530000000 1.0
C      1  0.5082550000000  0.4308360000000  0.5282520000000 1.0
C      1  0.5282520000000  0.5082550000000  0.4308360000000 1.0
C      1  0.4308360000000  0.5282520000000  0.5082550000000 1.0
C      1  0.4917450000000  0.4308360000000  0.4717480000000 1.0
C      1  0.5082550000000  0.5691640000000  0.4717480000000 1.0
C      1  0.4917450000000  0.5691640000000  0.5282520000000 1.0
C      1  0.4717480000000  0.5082550000000  0.5691640000000 1.0
C      1  0.5282520000000  0.4917450000000  0.5691640000000 1.0
C      1  0.4717480000000  0.4917450000000  0.4308360000000 1.0
C      1  0.5691640000000  0.5282520000000  0.4917450000000 1.0
C      1  0.4308360000000  0.4717480000000  0.4917450000000 1.0
C      1  0.5691640000000  0.4717480000000  0.5082550000000 1.0
C      1  0.5082550000000  0.5691640000000  0.5282520000000 1.0
C      1  0.5282520000000  0.4917450000000  0.4308360000000 1.0
C      1  0.4308360000000  0.4717480000000  0.5082550000000 1.0
C      1  0.4917450000000  0.5691640000000  0.4717480000000 1.0
C      1  0.5082550000000  0.4308360000000  0.4717480000000 1.0
C      1  0.4917450000000  0.4308360000000  0.5282520000000 1.0
C      1  0.4717480000000  0.4917450000000  0.5691640000000 1.0
C      1  0.5282520000000  0.5082550000000  0.5691640000000 1.0
C      1  0.4717480000000  0.5082550000000  0.4308360000000 1.0
C      1  0.5691640000000  0.4717480000000  0.4917450000000 1.0
C      1  0.4308360000000  0.5282520000000  0.4917450000000 1.0
C      1  0.5691640000000  0.5282520000000  0.5082550000000 1.0
C      1  0.5744170000000  0.4868680000000  0.5528820000000 1.0
C      1  0.5528820000000  0.5744170000000  0.4868680000000 1.0
C      1  0.4868680000000  0.5528820000000  0.5744170000000 1.0
C      1  0.4255830000000  0.4868680000000  0.4471180000000 1.0
C      1  0.5744170000000  0.5131320000000  0.4471180000000 1.0
C      1  0.4255830000000  0.5131320000000  0.5528820000000 1.0
C      1  0.4471180000000  0.5744170000000  0.5131320000000 1.0
C      1  0.5528820000000  0.4255830000000  0.5131320000000 1.0
C      1  0.4471180000000  0.4255830000000  0.4868680000000 1.0
C      1  0.5131320000000  0.5528820000000  0.4255830000000 1.0
C      1  0.4868680000000  0.4471180000000  0.4255830000000 1.0
C      1  0.5131320000000  0.4471180000000  0.5744170000000 1.0
C      1  0.5744170000000  0.5131320000000  0.5528820000000 1.0
C      1  0.5528820000000  0.4255830000000  0.4868680000000 1.0
C      1  0.4868680000000  0.4471180000000  0.5744170000000 1.0
C      1  0.4255830000000  0.5131320000000  0.4471180000000 1.0
C      1  0.5744170000000  0.4868680000000  0.4471180000000 1.0
C      1  0.4255830000000  0.4868680000000  0.5528820000000 1.0
C      1  0.4471180000000  0.4255830000000  0.5131320000000 1.0
C      1  0.5528820000000  0.5744170000000  0.5131320000000 1.0
C      1  0.4471180000000  0.5744170000000  0.4868680000000 1.0
C      1  0.5131320000000  0.4471180000000  0.4255830000000 1.0
C      1  0.4868680000000  0.5528820000000  0.4255830000000 1.0
C      1  0.5131320000000  0.5528820000000  0.5744170000000 1.0
C      1  0.5510640000000  0.4741140000000  0.5644530000000 1.0
C      1  0.5644530000000  0.5510640000000  0.4741140000000 1.0
C      1  0.4741140000000  0.5644530000000  0.5510640000000 1.0
C      1  0.4489360000000  0.4741140000000  0.4355470000000 1.0
C      1  0.5510640000000  0.5258860000000  0.4355470000000 1.0
C      1  0.4489360000000  0.5258860000000  0.5644530000000 1.0
C      1  0.4355470000000  0.5510640000000  0.5258860000000 1.0
C      1  0.5644530000000  0.4489360000000  0.5258860000000 1.0
C      1  0.4355470000000  0.4489360000000  0.4741140000000 1.0
C      1  0.5258860000000  0.5644530000000  0.4489360000000 1.0
C      1  0.4741140000000  0.4355470000000  0.4489360000000 1.0
C      1  0.5258860000000  0.4355470000000  0.5510640000000 1.0
C      1  0.5510640000000  0.5258860000000  0.5644530000000 1.0
C      1  0.5644530000000  0.4489360000000  0.4741140000000 1.0
C      1  0.4741140000000  0.4355470000000  0.5510640000000 1.0
C      1  0.4489360000000  0.5258860000000  0.4355470000000 1.0
C      1  0.5510640000000  0.4741140000000  0.4355470000000 1.0
C      1  0.4489360000000  0.4741140000000  0.5644530000000 1.0
C      1  0.4355470000000  0.4489360000000  0.5258860000000 1.0
C      1  0.5644530000000  0.5510640000000  0.5258860000000 1.0
C      1  0.4355470000000  0.5510640000000  0.4741140000000 1.0
C      1  0.5258860000000  0.4355470000000  0.4489360000000 1.0
C      1  0.4741140000000  0.5644530000000  0.4489360000000 1.0
C      1  0.5258860000000  0.5644530000000  0.5510640000000 1.0
C      1  0.5551850000000  0.5368210000000  0.4922040000000 1.0
C      1  0.4922040000000  0.5551850000000  0.5368210000000 1.0
C      1  0.5368210000000  0.4922040000000  0.5551850000000 1.0
C      1  0.4448150000000  0.5368210000000  0.5077960000000 1.0
C      1  0.5551850000000  0.4631790000000  0.5077960000000 1.0
C      1  0.4448150000000  0.4631790000000  0.4922040000000 1.0
C      1  0.5077960000000  0.5551850000000  0.4631790000000 1.0
C      1  0.4922040000000  0.4448150000000  0.4631790000000 1.0
C      1  0.5077960000000  0.4448150000000  0.5368210000000 1.0
C      1  0.4631790000000  0.4922040000000  0.4448150000000 1.0
C      1  0.5368210000000  0.5077960000000  0.4448150000000 1.0
C      1  0.4631790000000  0.5077960000000  0.5551850000000 1.0
C      1  0.5551850000000  0.4631790000000  0.4922040000000 1.0
C      1  0.4922040000000  0.4448150000000  0.5368210000000 1.0
C      1  0.5368210000000  0.5077960000000  0.5551850000000 1.0
C      1  0.4448150000000  0.4631790000000  0.5077960000000 1.0
C      1  0.5551850000000  0.5368210000000  0.5077960000000 1.0
C      1  0.4448150000000  0.5368210000000  0.4922040000000 1.0
C      1  0.5077960000000  0.4448150000000  0.4631790000000 1.0
C      1  0.4922040000000  0.5551850000000  0.4631790000000 1.0
C      1  0.5077960000000  0.5551850000000  0.5368210000000 1.0
C      1  0.4631790000000  0.5077960000000  0.4448150000000 1.0
C      1  0.5368210000000  0.4922040000000  0.4448150000000 1.0
C      1  0.4631790000000  0.4922040000000  0.5551850000000 1.0
C      1  0.5000000000000  0.4458580000000  0.4222750000000 1.0
C      1  0.4222750000000  0.5000000000000  0.4458580000000 1.0
C      1  0.4458580000000  0.4222750000000  0.5000000000000 1.0
C      1  0.5000000000000  0.4458580000000  0.5777250000000 1.0
C      1  0.5000000000000  0.5541420000000  0.5777250000000 1.0
C      1  0.5000000000000  0.5541420000000  0.4222750000000 1.0
C      1  0.5777250000000  0.5000000000000  0.5541420000000 1.0
C      1  0.4222750000000  0.5000000000000  0.5541420000000 1.0
C      1  0.5777250000000  0.5000000000000  0.4458580000000 1.0
C      1  0.5541420000000  0.4222750000000  0.5000000000000 1.0
C      1  0.4458580000000  0.5777250000000  0.5000000000000 1.0
C      1  0.5541420000000  0.5777250000000  0.5000000000000 1.0
END
