TITL C-142419-463-5 -35.8231780328577 1000000 -1637.61006968665 0 0 240 (C1) n - 1
REM
REM in /rds/project/t2_vol4/rds-t2-cs072/BORA/CARBON/from-Arr/AIRSS/Generating-Clusters/GAP-ML-2020/Higher-Symm/Selected-Sizes/Larger-Clusters/Only-C240
REM
REM
REM
REM
REM
REM ./C.cell (db1db5b03a21c153a00b653f6831bbfd)
REM AIRSS Version 0.9.1 bugfix July 2018 build 013d7b7c2542+ Fri, 06 Jul 2018 19:26:36 +0100
REM compiler GCC version 9.3.0
REM options -cpp -mtune=generic -march=x86-64 -g -O0
REM seed -612901279 -1819127664 -1163359625 -1920808877 -298216469 -1327929485 -1200948444 1925161045 1004755388 -1922104986 1017662893 -2036241082 1193717092 -249665055 -329927529 -19152843 -408673679 -1257773523 933885843 1758181540 -1887012698 -653405304 -928863092 1479272813 -114824610 -1479075149 280194381 1685009453 -23202121 1098048822 -1293447262 996158627 -1698429043
REM
CELL 1.54180  100.00000  100.00000  100.00000   90.00000   90.00000   90.00000
LATT -1
SFAC C  
C      1  0.4370310000000  0.5230670000000  0.5158480000000 1.0
C      1  0.5193040000000  0.5241060000000  0.5642730000000 1.0
C      1  0.5610730000000  0.5198360000000  0.4827510000000 1.0
C      1  0.4843470000000  0.5155880000000  0.4467050000000 1.0
C      1  0.4365470000000  0.4766320000000  0.4840070000000 1.0
C      1  0.5196630000000  0.4758470000000  0.4352860000000 1.0
C      1  0.5591440000000  0.4823620000000  0.5155500000000 1.0
C      1  0.4833480000000  0.4831200000000  0.5551820000000 1.0
C      1  0.4324910000000  0.5209250000000  0.4624190000000 1.0
C      1  0.4629710000000  0.5273330000000  0.5670500000000 1.0
C      1  0.5685300000000  0.5254820000000  0.5371940000000 1.0
C      1  0.5351700000000  0.5237410000000  0.4356700000000 1.0
C      1  0.4318620000000  0.4790380000000  0.5379880000000 1.0
C      1  0.4627670000000  0.4727300000000  0.4324640000000 1.0
C      1  0.5684570000000  0.4751510000000  0.4626810000000 1.0
C      1  0.5349990000000  0.4763460000000  0.5638340000000 1.0
C      1  0.4195310000000  0.4701710000000  0.5094400000000 1.0
C      1  0.5100150000000  0.4711720000000  0.5802890000000 1.0
C      1  0.5839820000000  0.4720300000000  0.4877910000000 1.0
C      1  0.4924240000000  0.4690110000000  0.4198270000000 1.0
C      1  0.4198190000000  0.5297130000000  0.4907500000000 1.0
C      1  0.5095910000000  0.5289140000000  0.4206730000000 1.0
C      1  0.5845030000000  0.5283470000000  0.5122750000000 1.0
C      1  0.4923640000000  0.5309290000000  0.5798050000000 1.0
C      1  0.4861100000000  0.4233420000000  0.4889660000000 1.0
C      1  0.4991700000000  0.4145370000000  0.5083180000000 1.0
C      1  0.5213560000000  0.4207280000000  0.5035470000000 1.0
C      1  0.5109680000000  0.4227660000000  0.4803930000000 1.0
C      1  0.4864510000000  0.5767030000000  0.5107340000000 1.0
C      1  0.4996860000000  0.5855230000000  0.4914910000000 1.0
C      1  0.5220150000000  0.5796340000000  0.4962140000000 1.0
C      1  0.5113620000000  0.5773590000000  0.5193460000000 1.0
C      1  0.4876420000000  0.5065100000000  0.5127930000000 1.0
C      1  0.4954430000000  0.5064630000000  0.5004940000000 1.0
C      1  0.4920100000000  0.5067350000000  0.4864980000000 1.0
C      1  0.4767370000000  0.5145790000000  0.5142070000000 1.0
C      1  0.4878170000000  0.4924840000000  0.4888630000000 1.0
C      1  0.4947830000000  0.4919570000000  0.5016190000000 1.0
C      1  0.4909250000000  0.4921230000000  0.5155460000000 1.0
C      1  0.4765230000000  0.4851370000000  0.4869240000000 1.0
C      1  0.4281350000000  0.4909400000000  0.5312280000000 1.0
C      1  0.5300100000000  0.4890110000000  0.5685940000000 1.0
C      1  0.5715050000000  0.4881450000000  0.4679130000000 1.0
C      1  0.4699850000000  0.4850070000000  0.4324030000000 1.0
C      1  0.4282110000000  0.5090530000000  0.4688720000000 1.0
C      1  0.5302460000000  0.5110240000000  0.4309290000000 1.0
C      1  0.5712220000000  0.5125770000000  0.5317220000000 1.0
C      1  0.4698250000000  0.5148170000000  0.5678180000000 1.0
C      1  0.5792020000000  0.5178180000000  0.5055160000000 1.0
C      1  0.5043470000000  0.5172330000000  0.4258800000000 1.0
C      1  0.4188460000000  0.5170860000000  0.4924090000000 1.0
C      1  0.4935780000000  0.5181950000000  0.5794730000000 1.0
C      1  0.5787310000000  0.4828900000000  0.4941200000000 1.0
C      1  0.5043870000000  0.4825470000000  0.5748050000000 1.0
C      1  0.4187220000000  0.4828030000000  0.5076990000000 1.0
C      1  0.4937290000000  0.4817300000000  0.4204720000000 1.0
C      1  0.4377750000000  0.5110670000000  0.5355580000000 1.0
C      1  0.5375230000000  0.5095880000000  0.5624390000000 1.0
C      1  0.5605780000000  0.5074230000000  0.4632880000000 1.0
C      1  0.4646790000000  0.5031440000000  0.4447520000000 1.0
C      1  0.4374360000000  0.4887990000000  0.4644270000000 1.0
C      1  0.5378810000000  0.4905120000000  0.4371420000000 1.0
C      1  0.5594940000000  0.4936880000000  0.5355470000000 1.0
C      1  0.4640200000000  0.4961180000000  0.5565690000000 1.0
C      1  0.5581030000000  0.4671880000000  0.4957270000000 1.0
C      1  0.5014390000000  0.4574810000000  0.4386860000000 1.0
C      1  0.4385950000000  0.4578930000000  0.5019990000000 1.0
C      1  0.5016650000000  0.4656230000000  0.5548320000000 1.0
C      1  0.5590170000000  0.5339110000000  0.5034990000000 1.0
C      1  0.5011080000000  0.5423730000000  0.5607700000000 1.0
C      1  0.4391790000000  0.5416920000000  0.4977610000000 1.0
C      1  0.5025030000000  0.5330840000000  0.4467520000000 1.0
C      1  0.4926060000000  0.4745200000000  0.5483630000000 1.0
C      1  0.5520110000000  0.4757860000000  0.5052810000000 1.0
C      1  0.5108760000000  0.4677400000000  0.4432010000000 1.0
C      1  0.4435650000000  0.4682060000000  0.4930560000000 1.0
C      1  0.4937960000000  0.5240320000000  0.4534830000000 1.0
C      1  0.5534760000000  0.5262270000000  0.4928810000000 1.0
C      1  0.5106120000000  0.5321850000000  0.5562860000000 1.0
C      1  0.4440880000000  0.5313940000000  0.5067300000000 1.0
C      1  0.4950890000000  0.5637490000000  0.5457500000000 1.0
C      1  0.5478550000000  0.5570560000000  0.5089260000000 1.0
C      1  0.5071420000000  0.5575150000000  0.4553060000000 1.0
C      1  0.4537190000000  0.5640260000000  0.4957210000000 1.0
C      1  0.4951250000000  0.4363100000000  0.4539500000000 1.0
C      1  0.5477350000000  0.4433900000000  0.4915380000000 1.0
C      1  0.5061260000000  0.4412750000000  0.5455630000000 1.0
C      1  0.4531930000000  0.4355200000000  0.5040060000000 1.0
C      1  0.4671300000000  0.5218960000000  0.5116010000000 1.0
C      1  0.5148220000000  0.5220220000000  0.5328930000000 1.0
C      1  0.5300500000000  0.5174000000000  0.4886690000000 1.0
C      1  0.4919380000000  0.5169110000000  0.4777260000000 1.0
C      1  0.4666280000000  0.4779760000000  0.4887690000000 1.0
C      1  0.5144620000000  0.4786650000000  0.4660960000000 1.0
C      1  0.5274040000000  0.4823880000000  0.5091760000000 1.0
C      1  0.4905260000000  0.4821790000000  0.5244490000000 1.0
C      1  0.4568650000000  0.4831790000000  0.4389090000000 1.0
C      1  0.4354820000000  0.4906410000000  0.5439510000000 1.0
C      1  0.5418830000000  0.4878840000000  0.5608210000000 1.0
C      1  0.5629690000000  0.4862980000000  0.4565540000000 1.0
C      1  0.4569020000000  0.5166870000000  0.5610690000000 1.0
C      1  0.4358190000000  0.5093570000000  0.4562510000000 1.0
C      1  0.5421800000000  0.5122630000000  0.4385550000000 1.0
C      1  0.5626990000000  0.5143650000000  0.5431190000000 1.0
C      1  0.5268330000000  0.5026930000000  0.5689630000000 1.0
C      1  0.5693050000000  0.5010300000000  0.4727890000000 1.0
C      1  0.4746770000000  0.4973800000000  0.4364150000000 1.0
C      1  0.4299120000000  0.5037050000000  0.5260850000000 1.0
C      1  0.5271180000000  0.4973270000000  0.4306490000000 1.0
C      1  0.5685100000000  0.5000140000000  0.5263140000000 1.0
C      1  0.4741840000000  0.5020600000000  0.5646120000000 1.0
C      1  0.4296660000000  0.4962030000000  0.4739280000000 1.0
C      1  0.4862400000000  0.5061180000000  0.4358720000000 1.0
C      1  0.4284250000000  0.5114310000000  0.5139410000000 1.0
C      1  0.5157170000000  0.5118760000000  0.5712260000000 1.0
C      1  0.5709160000000  0.5095660000000  0.4844450000000 1.0
C      1  0.4856610000000  0.4931700000000  0.5653640000000 1.0
C      1  0.4281120000000  0.4883850000000  0.4860310000000 1.0
C      1  0.5160200000000  0.4880560000000  0.4284060000000 1.0
C      1  0.5698040000000  0.4918470000000  0.5144030000000 1.0
C      1  0.5337510000000  0.5235270000000  0.5604800000000 1.0
C      1  0.5561220000000  0.5201720000000  0.4689290000000 1.0
C      1  0.4701780000000  0.5151140000000  0.4507980000000 1.0
C      1  0.4420580000000  0.5235890000000  0.5296770000000 1.0
C      1  0.5340970000000  0.4765580000000  0.4391750000000 1.0
C      1  0.5543110000000  0.4814810000000  0.5293290000000 1.0
C      1  0.4692070000000  0.4837610000000  0.5510680000000 1.0
C      1  0.4415660000000  0.4762040000000  0.4701950000000 1.0
C      1  0.4977380000000  0.5051130000000  0.4274690000000 1.0
C      1  0.4222390000000  0.5072570000000  0.5015480000000 1.0
C      1  0.5024670000000  0.5082430000000  0.5759370000000 1.0
C      1  0.5778020000000  0.5069540000000  0.4966920000000 1.0
C      1  0.4975850000000  0.4945720000000  0.5730860000000 1.0
C      1  0.4221170000000  0.4925870000000  0.4985120000000 1.0
C      1  0.5026520000000  0.4916510000000  0.4239870000000 1.0
C      1  0.5773380000000  0.4940740000000  0.5024470000000 1.0
C      1  0.4969850000000  0.5748140000000  0.5201060000000 1.0
C      1  0.5195490000000  0.5823180000000  0.5098480000000 1.0
C      1  0.5118490000000  0.5838220000000  0.4875490000000 1.0
C      1  0.4898300000000  0.5830400000000  0.4988340000000 1.0
C      1  0.4966480000000  0.4253960000000  0.4796140000000 1.0
C      1  0.5190290000000  0.4176290000000  0.4899610000000 1.0
C      1  0.5113150000000  0.4164040000000  0.5122650000000 1.0
C      1  0.4893740000000  0.4168560000000  0.5008370000000 1.0
C      1  0.5386210000000  0.5262230000000  0.4940930000000 1.0
C      1  0.4950500000000  0.5258000000000  0.4680320000000 1.0
C      1  0.4584360000000  0.5311120000000  0.5061370000000 1.0
C      1  0.5101580000000  0.5313970000000  0.5413540000000 1.0
C      1  0.5371710000000  0.4747200000000  0.5039410000000 1.0
C      1  0.4937220000000  0.4730770000000  0.5338800000000 1.0
C      1  0.4578790000000  0.4685460000000  0.4938470000000 1.0
C      1  0.5099620000000  0.4688730000000  0.4580510000000 1.0
C      1  0.4985660000000  0.4356320000000  0.4686540000000 1.0
C      1  0.4673730000000  0.4351450000000  0.4999890000000 1.0
C      1  0.4980780000000  0.4381130000000  0.5336310000000 1.0
C      1  0.5340290000000  0.4400600000000  0.4953530000000 1.0
C      1  0.4988970000000  0.5646650000000  0.5311290000000 1.0
C      1  0.4678430000000  0.5645390000000  0.4998190000000 1.0
C      1  0.4991190000000  0.5610510000000  0.4670900000000 1.0
C      1  0.5343250000000  0.5603550000000  0.5045060000000 1.0
C      1  0.5050470000000  0.5438510000000  0.4557510000000 1.0
C      1  0.4502770000000  0.5508340000000  0.4966030000000 1.0
C      1  0.4990130000000  0.5511020000000  0.5493350000000 1.0
C      1  0.5490320000000  0.5437450000000  0.5063380000000 1.0
C      1  0.5040350000000  0.4549300000000  0.5456280000000 1.0
C      1  0.4496820000000  0.4486880000000  0.5030640000000 1.0
C      1  0.4991430000000  0.4489140000000  0.4502420000000 1.0
C      1  0.5485470000000  0.4568900000000  0.4932820000000 1.0
C      1  0.5707420000000  0.4707900000000  0.4915340000000 1.0
C      1  0.4950310000000  0.4581840000000  0.4264740000000 1.0
C      1  0.4264580000000  0.4592700000000  0.5082320000000 1.0
C      1  0.5058290000000  0.4695730000000  0.5673660000000 1.0
C      1  0.5712650000000  0.5298740000000  0.5083610000000 1.0
C      1  0.4947340000000  0.5416990000000  0.5730150000000 1.0
C      1  0.4268850000000  0.5405370000000  0.4917610000000 1.0
C      1  0.5060020000000  0.5297390000000  0.4338410000000 1.0
C      1  0.4546570000000  0.4543500000000  0.4654400000000 1.0
C      1  0.4636780000000  0.4612780000000  0.5403520000000 1.0
C      1  0.5429420000000  0.4584480000000  0.5309970000000 1.0
C      1  0.5379380000000  0.4541910000000  0.4503980000000 1.0
C      1  0.4549740000000  0.5456170000000  0.5342780000000 1.0
C      1  0.4648130000000  0.5378290000000  0.4610540000000 1.0
C      1  0.5446150000000  0.5430570000000  0.4678870000000 1.0
C      1  0.5379830000000  0.5460270000000  0.5495750000000 1.0
C      1  0.5000930000000  0.4498250000000  0.4734420000000 1.0
C      1  0.4729270000000  0.4486660000000  0.5011740000000 1.0
C      1  0.4990400000000  0.4491390000000  0.5232640000000 1.0
C      1  0.5258600000000  0.4528030000000  0.4954390000000 1.0
C      1  0.5004400000000  0.5504900000000  0.5261570000000 1.0
C      1  0.4734060000000  0.5509640000000  0.4988690000000 1.0
C      1  0.4999270000000  0.5503090000000  0.4778770000000 1.0
C      1  0.5263130000000  0.5476190000000  0.5036550000000 1.0
C      1  0.5467690000000  0.5003300000000  0.5566490000000 1.0
C      1  0.5568450000000  0.4983620000000  0.4528040000000 1.0
C      1  0.4531580000000  0.4948510000000  0.4456270000000 1.0
C      1  0.4418500000000  0.5028460000000  0.5463420000000 1.0
C      1  0.5471740000000  0.4999050000000  0.4427680000000 1.0
C      1  0.5562730000000  0.5023010000000  0.5464900000000 1.0
C      1  0.4528880000000  0.5048250000000  0.5548730000000 1.0
C      1  0.4419040000000  0.4970200000000  0.4538380000000 1.0
C      1  0.4619010000000  0.4567930000000  0.5004480000000 1.0
C      1  0.4992670000000  0.4598620000000  0.5320710000000 1.0
C      1  0.5352130000000  0.4625140000000  0.4963390000000 1.0
C      1  0.5024650000000  0.4569610000000  0.4622890000000 1.0
C      1  0.4624500000000  0.5427760000000  0.4994390000000 1.0
C      1  0.5003600000000  0.5392300000000  0.4694280000000 1.0
C      1  0.5358870000000  0.5380340000000  0.5022950000000 1.0
C      1  0.5026660000000  0.5432780000000  0.5372430000000 1.0
C      1  0.5147940000000  0.5693700000000  0.5308700000000 1.0
C      1  0.5319420000000  0.5693270000000  0.4932140000000 1.0
C      1  0.4867780000000  0.5674730000000  0.4651120000000 1.0
C      1  0.4731910000000  0.5706830000000  0.5120360000000 1.0
C      1  0.5146660000000  0.4308300000000  0.4690650000000 1.0
C      1  0.5310090000000  0.4312390000000  0.5065650000000 1.0
C      1  0.4856690000000  0.4317060000000  0.5351000000000 1.0
C      1  0.4728450000000  0.4292610000000  0.4876690000000 1.0
C      1  0.4755010000000  0.4392700000000  0.5369760000000 1.0
C      1  0.5346490000000  0.4378050000000  0.5180750000000 1.0
C      1  0.5251670000000  0.4353590000000  0.4625520000000 1.0
C      1  0.4665580000000  0.4347460000000  0.4767390000000 1.0
C      1  0.4765770000000  0.5599930000000  0.4632120000000 1.0
C      1  0.5360520000000  0.5629800000000  0.4817730000000 1.0
C      1  0.5252120000000  0.5650240000000  0.5376880000000 1.0
C      1  0.4667770000000  0.5652980000000  0.5229700000000 1.0
C      1  0.4608630000000  0.5567820000000  0.5300250000000 1.0
C      1  0.5323360000000  0.5562770000000  0.5437020000000 1.0
C      1  0.5401300000000  0.5539080000000  0.4740330000000 1.0
C      1  0.4683110000000  0.5502040000000  0.4628080000000 1.0
C      1  0.4606410000000  0.4432330000000  0.4696740000000 1.0
C      1  0.5323050000000  0.4441040000000  0.4565540000000 1.0
C      1  0.5385200000000  0.4472030000000  0.5255050000000 1.0
C      1  0.4673710000000  0.4491740000000  0.5375020000000 1.0
C      1  0.5394320000000  0.5347490000000  0.5551320000000 1.0
C      1  0.5491700000000  0.5316070000000  0.4655060000000 1.0
C      1  0.4648600000000  0.5258030000000  0.4574890000000 1.0
C      1  0.4492460000000  0.5345130000000  0.5340460000000 1.0
C      1  0.5396400000000  0.4653950000000  0.4447610000000 1.0
C      1  0.5473360000000  0.4700750000000  0.5326890000000 1.0
C      1  0.4637530000000  0.4731470000000  0.5443870000000 1.0
C      1  0.4487860000000  0.4653640000000  0.4656880000000 1.0
END
