TITL C-142419-463-6 1.37310449503541 1000000 -1693.05331071228 0 0 240 (C1) n - 1
REM
REM in /rds/project/t2_vol4/rds-t2-cs072/BORA/CARBON/from-Arr/AIRSS/Generating-Clusters/GAP-ML-2020/Higher-Symm/Selected-Sizes/Larger-Clusters/Only-C240
REM
REM
REM
REM
REM
REM ./C.cell (db1db5b03a21c153a00b653f6831bbfd)
REM AIRSS Version 0.9.1 bugfix July 2018 build 013d7b7c2542+ Fri, 06 Jul 2018 19:26:36 +0100
REM compiler GCC version 9.3.0
REM options -cpp -mtune=generic -march=x86-64 -g -O0
REM seed 1560148996 1236552798 -1465398416 -1325357837 1564662193 1499499226 -892063980 -1064920916 -1256867002 -391176823 1461696890 -1757909661 -58168843 1627710750 1242335832 -374396014 -1468546514 -1915101746 -278222974 -760847352 -1931692158 1581196783 787267412 -1117057511 -1682907307 -1945757445 -1061366395 -613556502 1680486665 2084730458 -1062597558 -543089088 -1864374355
REM
CELL 1.54180  100.00000  100.00000  100.00000   90.00000   90.00000   90.00000
LATT -1
SFAC C  
C      1  0.4491320000000  0.4942020000000  0.4445850000000 1.0
C      1  0.4441690000000  0.4485640000000  0.4944360000000 1.0
C      1  0.4919100000000  0.4368770000000  0.4479280000000 1.0
C      1  0.5511260000000  0.4928900000000  0.5620600000000 1.0
C      1  0.4485830000000  0.5071320000000  0.5622950000000 1.0
C      1  0.5520860000000  0.5066430000000  0.4374620000000 1.0
C      1  0.5632220000000  0.4476940000000  0.5071590000000 1.0
C      1  0.4368950000000  0.5517700000000  0.5073460000000 1.0
C      1  0.5630650000000  0.5523290000000  0.4935540000000 1.0
C      1  0.5055840000000  0.4448230000000  0.5507380000000 1.0
C      1  0.4942030000000  0.5553210000000  0.5510070000000 1.0
C      1  0.5068710000000  0.5629150000000  0.4476990000000 1.0
C      1  0.4368850000000  0.4920970000000  0.4481790000000 1.0
C      1  0.4942610000000  0.4490970000000  0.4443880000000 1.0
C      1  0.4474790000000  0.4361750000000  0.4925520000000 1.0
C      1  0.5559050000000  0.4936430000000  0.5503360000000 1.0
C      1  0.5562700000000  0.5064830000000  0.4494440000000 1.0
C      1  0.4437760000000  0.5062630000000  0.5505770000000 1.0
C      1  0.5079490000000  0.4483860000000  0.5629570000000 1.0
C      1  0.5064610000000  0.5509280000000  0.4434760000000 1.0
C      1  0.4918490000000  0.5516960000000  0.5632160000000 1.0
C      1  0.5507780000000  0.4445740000000  0.5055270000000 1.0
C      1  0.5510470000000  0.5564810000000  0.4938340000000 1.0
C      1  0.4492190000000  0.5552160000000  0.5054700000000 1.0
C      1  0.4845430000000  0.4352270000000  0.5416660000000 1.0
C      1  0.5419100000000  0.4846620000000  0.4326980000000 1.0
C      1  0.4338670000000  0.5418980000000  0.4843590000000 1.0
C      1  0.5150570000000  0.4341210000000  0.4578810000000 1.0
C      1  0.4846750000000  0.5671410000000  0.4578210000000 1.0
C      1  0.5152120000000  0.5648600000000  0.5416660000000 1.0
C      1  0.4583530000000  0.4848260000000  0.5666740000000 1.0
C      1  0.5414320000000  0.5151480000000  0.5666230000000 1.0
C      1  0.4586640000000  0.5151070000000  0.4350670000000 1.0
C      1  0.5673200000000  0.5419480000000  0.5156090000000 1.0
C      1  0.4348920000000  0.4582620000000  0.5153360000000 1.0
C      1  0.5663480000000  0.4581180000000  0.4845120000000 1.0
C      1  0.5414690000000  0.4353830000000  0.4844980000000 1.0
C      1  0.4349830000000  0.4849940000000  0.5415450000000 1.0
C      1  0.4852310000000  0.5414810000000  0.4351210000000 1.0
C      1  0.4577180000000  0.4336460000000  0.5155120000000 1.0
C      1  0.4584580000000  0.5648100000000  0.4845600000000 1.0
C      1  0.5416490000000  0.5646770000000  0.5151280000000 1.0
C      1  0.5644430000000  0.4851470000000  0.4585310000000 1.0
C      1  0.5648030000000  0.5148570000000  0.5414940000000 1.0
C      1  0.4340150000000  0.5152690000000  0.4578860000000 1.0
C      1  0.5149650000000  0.5417810000000  0.5660430000000 1.0
C      1  0.5151840000000  0.4584300000000  0.4347440000000 1.0
C      1  0.4848910000000  0.4582590000000  0.5660750000000 1.0
C      1  0.4385490000000  0.4489250000000  0.5250360000000 1.0
C      1  0.5246130000000  0.4385610000000  0.4486500000000 1.0
C      1  0.4491760000000  0.5247220000000  0.4385700000000 1.0
C      1  0.5616710000000  0.4489920000000  0.4750220000000 1.0
C      1  0.4383380000000  0.5512180000000  0.4749420000000 1.0
C      1  0.5619970000000  0.5509760000000  0.5249090000000 1.0
C      1  0.4751190000000  0.4387520000000  0.5513410000000 1.0
C      1  0.5247500000000  0.5611290000000  0.5511360000000 1.0
C      1  0.4754480000000  0.5619270000000  0.4486370000000 1.0
C      1  0.5508840000000  0.5243290000000  0.5618050000000 1.0
C      1  0.4489540000000  0.4755930000000  0.5618660000000 1.0
C      1  0.5511060000000  0.4754360000000  0.4378920000000 1.0
C      1  0.5247630000000  0.4489100000000  0.4382930000000 1.0
C      1  0.4486170000000  0.4383060000000  0.5250630000000 1.0
C      1  0.4385110000000  0.5247200000000  0.4486000000000 1.0
C      1  0.4753270000000  0.4489950000000  0.5617950000000 1.0
C      1  0.4757240000000  0.5511030000000  0.4387480000000 1.0
C      1  0.5245590000000  0.5509780000000  0.5616760000000 1.0
C      1  0.5511090000000  0.4388620000000  0.4750130000000 1.0
C      1  0.5512080000000  0.5608970000000  0.5246490000000 1.0
C      1  0.4488890000000  0.5613620000000  0.4749830000000 1.0
C      1  0.5610310000000  0.5242010000000  0.5512230000000 1.0
C      1  0.5609710000000  0.4757510000000  0.4487300000000 1.0
C      1  0.4388720000000  0.4756460000000  0.5512100000000 1.0
C      1  0.5082620000000  0.4357160000000  0.4806320000000 1.0
C      1  0.4815980000000  0.5083570000000  0.4358530000000 1.0
C      1  0.4353660000000  0.4810870000000  0.5084050000000 1.0
C      1  0.4907250000000  0.4361960000000  0.5185430000000 1.0
C      1  0.5085480000000  0.5642820000000  0.5187100000000 1.0
C      1  0.4916020000000  0.5645880000000  0.4805350000000 1.0
C      1  0.5184840000000  0.5086660000000  0.5640080000000 1.0
C      1  0.4812630000000  0.4913830000000  0.5640600000000 1.0
C      1  0.5192230000000  0.4915640000000  0.4355860000000 1.0
C      1  0.5643720000000  0.4808220000000  0.4916320000000 1.0
C      1  0.4360630000000  0.5190270000000  0.4909550000000 1.0
C      1  0.5647950000000  0.5193120000000  0.5083830000000 1.0
C      1  0.4803680000000  0.4356140000000  0.5085170000000 1.0
C      1  0.4360660000000  0.5087590000000  0.4807720000000 1.0
C      1  0.5088650000000  0.4815110000000  0.4361660000000 1.0
C      1  0.5183760000000  0.4361730000000  0.4909000000000 1.0
C      1  0.5186590000000  0.5643450000000  0.5084380000000 1.0
C      1  0.4815600000000  0.5638810000000  0.4908890000000 1.0
C      1  0.5641170000000  0.5087760000000  0.5182280000000 1.0
C      1  0.5638570000000  0.4913710000000  0.4817580000000 1.0
C      1  0.4354210000000  0.4913880000000  0.5184610000000 1.0
C      1  0.4914750000000  0.4811260000000  0.5639350000000 1.0
C      1  0.4918860000000  0.5184680000000  0.4357630000000 1.0
C      1  0.5082890000000  0.5189440000000  0.5639360000000 1.0
C      1  0.5014910000000  0.4416180000000  0.5261370000000 1.0
C      1  0.5275560000000  0.5024040000000  0.4397400000000 1.0
C      1  0.4404200000000  0.5270650000000  0.5018480000000 1.0
C      1  0.4972120000000  0.4399440000000  0.4727730000000 1.0
C      1  0.5025400000000  0.5605830000000  0.4722750000000 1.0
C      1  0.4979190000000  0.5587770000000  0.5264540000000 1.0
C      1  0.4731390000000  0.5023870000000  0.5599860000000 1.0
C      1  0.5265760000000  0.4976600000000  0.5598760000000 1.0
C      1  0.4737880000000  0.4977740000000  0.4413690000000 1.0
C      1  0.5606440000000  0.5277510000000  0.4976250000000 1.0
C      1  0.4406790000000  0.4733130000000  0.4976980000000 1.0
C      1  0.5599140000000  0.4725390000000  0.5023130000000 1.0
C      1  0.5260220000000  0.4414890000000  0.5016750000000 1.0
C      1  0.4407170000000  0.5022660000000  0.5259990000000 1.0
C      1  0.5028170000000  0.5261620000000  0.4407810000000 1.0
C      1  0.4722950000000  0.4398030000000  0.4976000000000 1.0
C      1  0.4739360000000  0.5584350000000  0.5016300000000 1.0
C      1  0.5262700000000  0.5593870000000  0.4974270000000 1.0
C      1  0.5589350000000  0.5024940000000  0.4742590000000 1.0
C      1  0.5588610000000  0.4978250000000  0.5257070000000 1.0
C      1  0.4403440000000  0.4977470000000  0.4728450000000 1.0
C      1  0.4973960000000  0.5269620000000  0.5595540000000 1.0
C      1  0.4982070000000  0.4737290000000  0.4415830000000 1.0
C      1  0.5023520000000  0.4731340000000  0.5594710000000 1.0
C      1  0.4511430000000  0.4611270000000  0.5595890000000 1.0
C      1  0.5592850000000  0.4513730000000  0.4606040000000 1.0
C      1  0.4610310000000  0.5593840000000  0.4509030000000 1.0
C      1  0.5488830000000  0.4610140000000  0.4404000000000 1.0
C      1  0.4513890000000  0.5391220000000  0.4406730000000 1.0
C      1  0.5487540000000  0.5387860000000  0.5594480000000 1.0
C      1  0.4407790000000  0.4513030000000  0.5394100000000 1.0
C      1  0.5592990000000  0.5484980000000  0.5392700000000 1.0
C      1  0.4406580000000  0.5490230000000  0.4604930000000 1.0
C      1  0.5391180000000  0.5588250000000  0.5489340000000 1.0
C      1  0.4607020000000  0.4408780000000  0.5493120000000 1.0
C      1  0.5390830000000  0.4408320000000  0.4509020000000 1.0
C      1  0.5590790000000  0.4612280000000  0.4509160000000 1.0
C      1  0.4608390000000  0.4512700000000  0.5596790000000 1.0
C      1  0.4511030000000  0.5593320000000  0.4605520000000 1.0
C      1  0.4409190000000  0.4611850000000  0.5490850000000 1.0
C      1  0.4407470000000  0.5391940000000  0.4507930000000 1.0
C      1  0.5590710000000  0.5386950000000  0.5490500000000 1.0
C      1  0.5391810000000  0.4511220000000  0.4404430000000 1.0
C      1  0.5390270000000  0.5486020000000  0.5594610000000 1.0
C      1  0.4612480000000  0.5488170000000  0.4407610000000 1.0
C      1  0.5488220000000  0.5587280000000  0.5390950000000 1.0
C      1  0.5489160000000  0.4409700000000  0.4605940000000 1.0
C      1  0.4509870000000  0.4407610000000  0.5394860000000 1.0
C      1  0.5237750000000  0.4865690000000  0.5517540000000 1.0
C      1  0.5524140000000  0.5250680000000  0.4866030000000 1.0
C      1  0.4869690000000  0.5510060000000  0.5231800000000 1.0
C      1  0.4769280000000  0.4867880000000  0.4491720000000 1.0
C      1  0.5249110000000  0.5135060000000  0.4479130000000 1.0
C      1  0.4758950000000  0.5135470000000  0.5519410000000 1.0
C      1  0.4482810000000  0.5239150000000  0.5129740000000 1.0
C      1  0.5517860000000  0.4756680000000  0.5132300000000 1.0
C      1  0.4481050000000  0.4764220000000  0.4864060000000 1.0
C      1  0.5137190000000  0.5525720000000  0.4750540000000 1.0
C      1  0.4858200000000  0.4474740000000  0.4760470000000 1.0
C      1  0.5125670000000  0.4492110000000  0.5228680000000 1.0
C      1  0.5514020000000  0.4864890000000  0.5227870000000 1.0
C      1  0.4861170000000  0.5238280000000  0.5518410000000 1.0
C      1  0.5234380000000  0.5523090000000  0.4857580000000 1.0
C      1  0.4480200000000  0.4864830000000  0.4760140000000 1.0
C      1  0.4483220000000  0.5134690000000  0.5229450000000 1.0
C      1  0.5519230000000  0.5141990000000  0.4770800000000 1.0
C      1  0.5143440000000  0.5233450000000  0.4480670000000 1.0
C      1  0.5135390000000  0.4763090000000  0.5516520000000 1.0
C      1  0.4871440000000  0.4767350000000  0.4493250000000 1.0
C      1  0.4770720000000  0.5508800000000  0.5127930000000 1.0
C      1  0.4753850000000  0.4474400000000  0.4862500000000 1.0
C      1  0.5227830000000  0.4490510000000  0.5127880000000 1.0
C      1  0.5208610000000  0.5306340000000  0.4592430000000 1.0
C      1  0.4597690000000  0.5198950000000  0.5300170000000 1.0
C      1  0.5298500000000  0.4601930000000  0.5195640000000 1.0
C      1  0.4797500000000  0.5303420000000  0.5401560000000 1.0
C      1  0.5198560000000  0.4698130000000  0.5399290000000 1.0
C      1  0.4802290000000  0.4696210000000  0.4604450000000 1.0
C      1  0.5408150000000  0.5207880000000  0.4697510000000 1.0
C      1  0.4596570000000  0.4798750000000  0.4695090000000 1.0
C      1  0.5399490000000  0.4801170000000  0.5298860000000 1.0
C      1  0.4689630000000  0.4593070000000  0.4798940000000 1.0
C      1  0.5306790000000  0.5410840000000  0.4792610000000 1.0
C      1  0.4700230000000  0.5396480000000  0.5194820000000 1.0
C      1  0.4599320000000  0.5303480000000  0.5195750000000 1.0
C      1  0.5315460000000  0.5203570000000  0.4595050000000 1.0
C      1  0.5194320000000  0.4604420000000  0.5298620000000 1.0
C      1  0.5408320000000  0.5317150000000  0.4797560000000 1.0
C      1  0.5400190000000  0.4693950000000  0.5197310000000 1.0
C      1  0.4595350000000  0.4694310000000  0.4799270000000 1.0
C      1  0.4691500000000  0.5198970000000  0.5402030000000 1.0
C      1  0.4698580000000  0.4800170000000  0.4603200000000 1.0
C      1  0.5304890000000  0.4802250000000  0.5399970000000 1.0
C      1  0.4796380000000  0.4593470000000  0.4696160000000 1.0
C      1  0.4801800000000  0.5396780000000  0.5300610000000 1.0
C      1  0.5205220000000  0.5409240000000  0.4684710000000 1.0
C      1  0.4813870000000  0.4714190000000  0.5690580000000 1.0
C      1  0.5683530000000  0.4813530000000  0.4715020000000 1.0
C      1  0.4714640000000  0.5688770000000  0.4810190000000 1.0
C      1  0.5186870000000  0.4715100000000  0.4308560000000 1.0
C      1  0.4816350000000  0.5284240000000  0.4312100000000 1.0
C      1  0.5184270000000  0.5286150000000  0.5690280000000 1.0
C      1  0.4309160000000  0.4812730000000  0.5285480000000 1.0
C      1  0.5689040000000  0.5186000000000  0.5285480000000 1.0
C      1  0.4310740000000  0.5188950000000  0.4710370000000 1.0
C      1  0.5286340000000  0.5687120000000  0.5187340000000 1.0
C      1  0.4709300000000  0.4307170000000  0.5189310000000 1.0
C      1  0.5284230000000  0.4314880000000  0.4808460000000 1.0
C      1  0.5691130000000  0.4713970000000  0.4811320000000 1.0
C      1  0.4716060000000  0.4811630000000  0.5692350000000 1.0
C      1  0.4811670000000  0.5696750000000  0.4711380000000 1.0
C      1  0.4308240000000  0.4713160000000  0.5187540000000 1.0
C      1  0.4310360000000  0.5287030000000  0.4807810000000 1.0
C      1  0.5698040000000  0.5285800000000  0.5189620000000 1.0
C      1  0.5285700000000  0.4812130000000  0.4302000000000 1.0
C      1  0.5281870000000  0.5188490000000  0.5691780000000 1.0
C      1  0.4717510000000  0.5185790000000  0.4311430000000 1.0
C      1  0.5187670000000  0.5688440000000  0.5286080000000 1.0
C      1  0.5186200000000  0.4310530000000  0.4710140000000 1.0
C      1  0.4808440000000  0.4312840000000  0.5286470000000 1.0
C      1  0.5633720000000  0.4588210000000  0.4985850000000 1.0
C      1  0.4987610000000  0.5644440000000  0.4587440000000 1.0
C      1  0.4595300000000  0.4988620000000  0.5638290000000 1.0
C      1  0.4394890000000  0.4592070000000  0.5015550000000 1.0
C      1  0.5645980000000  0.5412050000000  0.5015210000000 1.0
C      1  0.4369080000000  0.5408850000000  0.4984160000000 1.0
C      1  0.5015020000000  0.5601360000000  0.5405640000000 1.0
C      1  0.4981650000000  0.4401060000000  0.5403320000000 1.0
C      1  0.5008720000000  0.4369100000000  0.4588560000000 1.0
C      1  0.5410240000000  0.4986840000000  0.4356470000000 1.0
C      1  0.4596810000000  0.5014190000000  0.4398810000000 1.0
C      1  0.5401970000000  0.5011260000000  0.5637410000000 1.0
C      1  0.4989370000000  0.4592680000000  0.5628870000000 1.0
C      1  0.4597340000000  0.5598870000000  0.4981710000000 1.0
C      1  0.5602870000000  0.4989500000000  0.4600460000000 1.0
C      1  0.5015970000000  0.4595950000000  0.4397750000000 1.0
C      1  0.5008830000000  0.5408150000000  0.5629590000000 1.0
C      1  0.4990730000000  0.5402790000000  0.4393490000000 1.0
C      1  0.5404080000000  0.5606060000000  0.5012340000000 1.0
C      1  0.5402170000000  0.4400730000000  0.4981890000000 1.0
C      1  0.4584980000000  0.4364670000000  0.5013520000000 1.0
C      1  0.4393310000000  0.4987700000000  0.5401560000000 1.0
C      1  0.4369780000000  0.5011770000000  0.4589750000000 1.0
C      1  0.5603080000000  0.5011790000000  0.5399200000000 1.0
END
