TITL C-150116-6276-6 -18.4737225813112 1000000 -1670.0271844092 0 0 240 (C1) n - 1
REM
REM in /rds/project/t2_vol4/rds-t2-cs072/BORA/CARBON/from-Arr/AIRSS/Generating-Clusters/GAP-ML-2020/Higher-Symm/Selected-Sizes/Larger-Clusters/Only-C240
REM
REM
REM
REM
REM
REM ./C.cell (db1db5b03a21c153a00b653f6831bbfd)
REM AIRSS Version 0.9.1 bugfix July 2018 build 013d7b7c2542+ Fri, 06 Jul 2018 19:26:36 +0100
REM compiler GCC version 9.3.0
REM options -cpp -mtune=generic -march=x86-64 -g -O0
REM seed -2008373586 563060685 -1963723617 895567545 -124631856 1096657176 234471902 348071153 437935817 -1337218044 958524003 172248725 390450584 157206078 -743854139 -1124844698 1004652897 1576013394 -1093377587 -344383211 -1218177982 -1680179651 1470018091 1877599135 -100051340 -489206073 814198504 1734661544 -397841361 -56687118 1395350340 1697559929 -2026359564
REM
CELL 1.54180  100.00000  100.00000  100.00000   90.00000   90.00000   90.00000
LATT -1
SFAC C  
C      1  0.5334170000000  0.4786570000000  0.4876570000000 1.0
C      1  0.4903420000000  0.5450670000000  0.4862480000000 1.0
C      1  0.4945680000000  0.5081700000000  0.5438220000000 1.0
C      1  0.4499600000000  0.5063470000000  0.5004850000000 1.0
C      1  0.4619170000000  0.4823150000000  0.5153380000000 1.0
C      1  0.5463190000000  0.5039500000000  0.4994490000000 1.0
C      1  0.4967510000000  0.4562840000000  0.4895720000000 1.0
C      1  0.5088360000000  0.5472760000000  0.5090530000000 1.0
C      1  0.4968880000000  0.4585550000000  0.5179780000000 1.0
C      1  0.5211640000000  0.5141280000000  0.5381810000000 1.0
C      1  0.5016750000000  0.5022120000000  0.4565720000000 1.0
C      1  0.4754130000000  0.5096630000000  0.4602430000000 1.0
C      1  0.5440500000000  0.4962300000000  0.5678540000000 1.0
C      1  0.5640180000000  0.5408870000000  0.4933670000000 1.0
C      1  0.4895060000000  0.5662170000000  0.5484030000000 1.0
C      1  0.4557340000000  0.5009180000000  0.5585170000000 1.0
C      1  0.4592180000000  0.4907470000000  0.4432790000000 1.0
C      1  0.5461070000000  0.5036280000000  0.4375740000000 1.0
C      1  0.4374690000000  0.4508100000000  0.4905060000000 1.0
C      1  0.4359470000000  0.5478410000000  0.5064800000000 1.0
C      1  0.5699990000000  0.4543790000000  0.5070030000000 1.0
C      1  0.5020770000000  0.4361320000000  0.5407830000000 1.0
C      1  0.5135260000000  0.5673040000000  0.4550700000000 1.0
C      1  0.4977550000000  0.4314880000000  0.4480460000000 1.0
C      1  0.4449430000000  0.4912470000000  0.5571410000000 1.0
C      1  0.5693140000000  0.4427800000000  0.4982430000000 1.0
C      1  0.5020000000000  0.5645610000000  0.4465600000000 1.0
C      1  0.5549990000000  0.5057150000000  0.5660380000000 1.0
C      1  0.5546890000000  0.4945060000000  0.4436130000000 1.0
C      1  0.4492860000000  0.4990020000000  0.4479460000000 1.0
C      1  0.4425880000000  0.5578650000000  0.4995470000000 1.0
C      1  0.4420690000000  0.4420860000000  0.5010570000000 1.0
C      1  0.5584620000000  0.5501990000000  0.5018920000000 1.0
C      1  0.5091190000000  0.4351800000000  0.4398440000000 1.0
C      1  0.5002350000000  0.5625960000000  0.5574720000000 1.0
C      1  0.4925450000000  0.4369490000000  0.5518350000000 1.0
C      1  0.5338680000000  0.5089860000000  0.5181840000000 1.0
C      1  0.5306410000000  0.5187700000000  0.5082630000000 1.0
C      1  0.5205750000000  0.5280740000000  0.5069980000000 1.0
C      1  0.4791840000000  0.4995780000000  0.5279990000000 1.0
C      1  0.4627160000000  0.5083420000000  0.4811550000000 1.0
C      1  0.5165010000000  0.4951750000000  0.4737740000000 1.0
C      1  0.4839280000000  0.4859810000000  0.5251000000000 1.0
C      1  0.4662500000000  0.5189500000000  0.4900430000000 1.0
C      1  0.5114860000000  0.4820020000000  0.4782090000000 1.0
C      1  0.4977010000000  0.4815990000000  0.5272210000000 1.0
C      1  0.4766490000000  0.5278750000000  0.4901590000000 1.0
C      1  0.4976430000000  0.4779660000000  0.4765600000000 1.0
C      1  0.4732350000000  0.4936330000000  0.4402550000000 1.0
C      1  0.4309450000000  0.4623550000000  0.4899890000000 1.0
C      1  0.4963920000000  0.4278900000000  0.4606920000000 1.0
C      1  0.5336150000000  0.5023230000000  0.4310010000000 1.0
C      1  0.5315310000000  0.4933030000000  0.5710260000000 1.0
C      1  0.4678470000000  0.5022350000000  0.5641030000000 1.0
C      1  0.5696890000000  0.5284030000000  0.4962160000000 1.0
C      1  0.5713620000000  0.4674920000000  0.5084320000000 1.0
C      1  0.4273190000000  0.5372840000000  0.5025320000000 1.0
C      1  0.5157920000000  0.5738750000000  0.4663510000000 1.0
C      1  0.5057210000000  0.4331670000000  0.5284140000000 1.0
C      1  0.4880860000000  0.5726650000000  0.5369660000000 1.0
C      1  0.5005570000000  0.4570450000000  0.5671120000000 1.0
C      1  0.5708350000000  0.4942000000000  0.4628850000000 1.0
C      1  0.4618220000000  0.5747220000000  0.4985250000000 1.0
C      1  0.4948470000000  0.5399700000000  0.5707370000000 1.0
C      1  0.5026800000000  0.4573850000000  0.4276710000000 1.0
C      1  0.5056970000000  0.5417030000000  0.4333020000000 1.0
C      1  0.4300690000000  0.5013360000000  0.4641230000000 1.0
C      1  0.4303700000000  0.4987870000000  0.5357400000000 1.0
C      1  0.5676000000000  0.4987780000000  0.5438630000000 1.0
C      1  0.5473590000000  0.4296330000000  0.5044800000000 1.0
C      1  0.5405280000000  0.5677070000000  0.5058500000000 1.0
C      1  0.4650340000000  0.4301790000000  0.4954200000000 1.0
C      1  0.4527530000000  0.4423720000000  0.4696460000000 1.0
C      1  0.4781050000000  0.4460420000000  0.4379910000000 1.0
C      1  0.4471630000000  0.4701540000000  0.4493620000000 1.0
C      1  0.5532050000000  0.5510440000000  0.4728340000000 1.0
C      1  0.5518440000000  0.4543620000000  0.5245740000000 1.0
C      1  0.4486950000000  0.5536380000000  0.5278410000000 1.0
C      1  0.5309610000000  0.5487650000000  0.4458840000000 1.0
C      1  0.5224730000000  0.4505880000000  0.5441540000000 1.0
C      1  0.4697340000000  0.5497190000000  0.5561480000000 1.0
C      1  0.5572940000000  0.5229540000000  0.4495090000000 1.0
C      1  0.5446860000000  0.4776190000000  0.5505510000000 1.0
C      1  0.4464170000000  0.5213000000000  0.5430780000000 1.0
C      1  0.5586010000000  0.4371190000000  0.5060540000000 1.0
C      1  0.5078820000000  0.5534550000000  0.4402360000000 1.0
C      1  0.4392210000000  0.4982550000000  0.5459380000000 1.0
C      1  0.4512450000000  0.5665300000000  0.4974330000000 1.0
C      1  0.4528020000000  0.4365000000000  0.4937970000000 1.0
C      1  0.5507080000000  0.5590450000000  0.5057280000000 1.0
C      1  0.5016220000000  0.4444250000000  0.4322530000000 1.0
C      1  0.4933310000000  0.5517370000000  0.5634440000000 1.0
C      1  0.5010990000000  0.4462880000000  0.5587860000000 1.0
C      1  0.5605550000000  0.4977500000000  0.5553840000000 1.0
C      1  0.5632790000000  0.4916570000000  0.4521260000000 1.0
C      1  0.4391050000000  0.5022330000000  0.4543870000000 1.0
C      1  0.5143210000000  0.5078920000000  0.5490950000000 1.0
C      1  0.5482240000000  0.4921680000000  0.4914800000000 1.0
C      1  0.4968730000000  0.5534110000000  0.5048610000000 1.0
C      1  0.5043540000000  0.5183600000000  0.5479360000000 1.0
C      1  0.4814940000000  0.5010520000000  0.4493910000000 1.0
C      1  0.4923520000000  0.5115350000000  0.4503070000000 1.0
C      1  0.4531760000000  0.4831840000000  0.5039810000000 1.0
C      1  0.4472990000000  0.4957200000000  0.5098820000000 1.0
C      1  0.5423100000000  0.4805350000000  0.4989160000000 1.0
C      1  0.5029150000000  0.4493780000000  0.5083110000000 1.0
C      1  0.5017220000000  0.5525290000000  0.4893520000000 1.0
C      1  0.4902290000000  0.4493860000000  0.5007070000000 1.0
C      1  0.5045690000000  0.5050070000000  0.4270790000000 1.0
C      1  0.4193950000000  0.5035670000000  0.5067520000000 1.0
C      1  0.5112940000000  0.4255610000000  0.5018450000000 1.0
C      1  0.4988120000000  0.4941410000000  0.4270130000000 1.0
C      1  0.4968800000000  0.5028510000000  0.5753930000000 1.0
C      1  0.5036240000000  0.4925410000000  0.5745490000000 1.0
C      1  0.5750880000000  0.4949760000000  0.5081600000000 1.0
C      1  0.5772760000000  0.5011170000000  0.4977380000000 1.0
C      1  0.4204740000000  0.4945380000000  0.4981580000000 1.0
C      1  0.4965820000000  0.5821220000000  0.5050860000000 1.0
C      1  0.5015310000000  0.4247720000000  0.4942860000000 1.0
C      1  0.5073530000000  0.5807290000000  0.4991310000000 1.0
C      1  0.4388760000000  0.4698970000000  0.4591730000000 1.0
C      1  0.4645230000000  0.4377320000000  0.4664880000000 1.0
C      1  0.4722720000000  0.4569640000000  0.4367420000000 1.0
C      1  0.5633850000000  0.5251810000000  0.4599860000000 1.0
C      1  0.5522000000000  0.4733050000000  0.5400510000000 1.0
C      1  0.4367810000000  0.5225540000000  0.5330990000000 1.0
C      1  0.5443030000000  0.5602990000000  0.4729940000000 1.0
C      1  0.5401720000000  0.4480610000000  0.5273660000000 1.0
C      1  0.4585800000000  0.5617400000000  0.5286700000000 1.0
C      1  0.5342710000000  0.5379160000000  0.4406570000000 1.0
C      1  0.5259970000000  0.4617280000000  0.5512910000000 1.0
C      1  0.4678950000000  0.5375780000000  0.5605960000000 1.0
C      1  0.4345010000000  0.5326920000000  0.5238740000000 1.0
C      1  0.5280940000000  0.4443540000000  0.5316270000000 1.0
C      1  0.5363610000000  0.5250560000000  0.4364930000000 1.0
C      1  0.5568920000000  0.4678590000000  0.5288260000000 1.0
C      1  0.5665760000000  0.5291480000000  0.4728170000000 1.0
C      1  0.4326190000000  0.4720220000000  0.4700670000000 1.0
C      1  0.4690440000000  0.5687600000000  0.5268680000000 1.0
C      1  0.4763620000000  0.4335310000000  0.4671330000000 1.0
C      1  0.5344310000000  0.5678370000000  0.4757440000000 1.0
C      1  0.4694450000000  0.4704970000000  0.4365760000000 1.0
C      1  0.4690790000000  0.5254750000000  0.5633300000000 1.0
C      1  0.5313260000000  0.4731700000000  0.5557490000000 1.0
C      1  0.4569040000000  0.4946770000000  0.5207580000000 1.0
C      1  0.5091900000000  0.4558710000000  0.4969470000000 1.0
C      1  0.4863290000000  0.5189470000000  0.4608820000000 1.0
C      1  0.5417570000000  0.4991460000000  0.5121470000000 1.0
C      1  0.5384430000000  0.4905260000000  0.4810350000000 1.0
C      1  0.4542660000000  0.4997850000000  0.4884400000000 1.0
C      1  0.4860300000000  0.5452420000000  0.5005620000000 1.0
C      1  0.4844960000000  0.4577890000000  0.5106750000000 1.0
C      1  0.5126860000000  0.5449920000000  0.4946550000000 1.0
C      1  0.4918000000000  0.4922510000000  0.4571330000000 1.0
C      1  0.5109220000000  0.5242110000000  0.5365970000000 1.0
C      1  0.5042620000000  0.4977640000000  0.5446970000000 1.0
C      1  0.4474160000000  0.4434240000000  0.4821020000000 1.0
C      1  0.4896830000000  0.4391230000000  0.4386570000000 1.0
C      1  0.4573020000000  0.4761530000000  0.4424690000000 1.0
C      1  0.5612640000000  0.5414990000000  0.4783620000000 1.0
C      1  0.5599450000000  0.4482260000000  0.5149840000000 1.0
C      1  0.4399710000000  0.5455700000000  0.5212690000000 1.0
C      1  0.5199600000000  0.5566400000000  0.4476010000000 1.0
C      1  0.5108310000000  0.4443320000000  0.5484890000000 1.0
C      1  0.4817440000000  0.5559600000000  0.5556950000000 1.0
C      1  0.5479070000000  0.5181230000000  0.4406700000000 1.0
C      1  0.5502250000000  0.4881490000000  0.5578560000000 1.0
C      1  0.4489740000000  0.5091390000000  0.5484990000000 1.0
C      1  0.4588560000000  0.4867940000000  0.4913370000000 1.0
C      1  0.4776590000000  0.4688220000000  0.5061280000000 1.0
C      1  0.4882970000000  0.4853650000000  0.4688460000000 1.0
C      1  0.5288240000000  0.5002670000000  0.4780430000000 1.0
C      1  0.5369660000000  0.4858240000000  0.5112350000000 1.0
C      1  0.4671660000000  0.5044040000000  0.5226070000000 1.0
C      1  0.5177110000000  0.5320620000000  0.4933190000000 1.0
C      1  0.5170120000000  0.4670980000000  0.4993730000000 1.0
C      1  0.4796670000000  0.5332400000000  0.5033370000000 1.0
C      1  0.4939030000000  0.5252730000000  0.4709290000000 1.0
C      1  0.5075510000000  0.4892500000000  0.5340270000000 1.0
C      1  0.5029960000000  0.5289130000000  0.5259300000000 1.0
C      1  0.4232890000000  0.5138290000000  0.5155370000000 1.0
C      1  0.5220120000000  0.4287950000000  0.5107470000000 1.0
C      1  0.5128750000000  0.5168000000000  0.4281830000000 1.0
C      1  0.5703870000000  0.4885860000000  0.5199650000000 1.0
C      1  0.5759060000000  0.5071540000000  0.4848700000000 1.0
C      1  0.4246710000000  0.4879670000000  0.4860720000000 1.0
C      1  0.4839060000000  0.5797870000000  0.5112640000000 1.0
C      1  0.4893790000000  0.4256090000000  0.4865140000000 1.0
C      1  0.5195700000000  0.5763260000000  0.4929400000000 1.0
C      1  0.4920060000000  0.4814390000000  0.4283560000000 1.0
C      1  0.4887570000000  0.5145980000000  0.5729940000000 1.0
C      1  0.5107650000000  0.4808590000000  0.5706280000000 1.0
C      1  0.5662130000000  0.4746880000000  0.5192630000000 1.0
C      1  0.5223770000000  0.5736560000000  0.4786450000000 1.0
C      1  0.4751740000000  0.5136030000000  0.5672890000000 1.0
C      1  0.4268510000000  0.5276570000000  0.5126530000000 1.0
C      1  0.4284170000000  0.4740370000000  0.4830390000000 1.0
C      1  0.5719920000000  0.5210070000000  0.4843020000000 1.0
C      1  0.4884720000000  0.4285050000000  0.4720060000000 1.0
C      1  0.4813330000000  0.5746620000000  0.5249470000000 1.0
C      1  0.5189140000000  0.4350790000000  0.5237580000000 1.0
C      1  0.5245230000000  0.4823280000000  0.5657720000000 1.0
C      1  0.5269500000000  0.5148560000000  0.4304590000000 1.0
C      1  0.4787960000000  0.4816440000000  0.4339170000000 1.0
C      1  0.5301380000000  0.5727120000000  0.5012080000000 1.0
C      1  0.4934110000000  0.5278080000000  0.5737000000000 1.0
C      1  0.5698930000000  0.4953230000000  0.5321010000000 1.0
C      1  0.4768700000000  0.4270330000000  0.4927060000000 1.0
C      1  0.4724870000000  0.5787510000000  0.5034230000000 1.0
C      1  0.5351270000000  0.4280800000000  0.5063900000000 1.0
C      1  0.5042990000000  0.4686730000000  0.5698100000000 1.0
C      1  0.5074110000000  0.5296970000000  0.4301210000000 1.0
C      1  0.4991060000000  0.4692860000000  0.4268600000000 1.0
C      1  0.4289700000000  0.5107300000000  0.5286750000000 1.0
C      1  0.4264720000000  0.4958580000000  0.4747140000000 1.0
C      1  0.5750330000000  0.4991110000000  0.4735220000000 1.0
C      1  0.4864760000000  0.5330900000000  0.4804790000000 1.0
C      1  0.4867050000000  0.5107210000000  0.5327840000000 1.0
C      1  0.5201880000000  0.4752420000000  0.4878050000000 1.0
C      1  0.4910030000000  0.4682110000000  0.4848090000000 1.0
C      1  0.5111950000000  0.5352020000000  0.5159440000000 1.0
C      1  0.5038680000000  0.4704750000000  0.5206540000000 1.0
C      1  0.5264710000000  0.5047420000000  0.5290910000000 1.0
C      1  0.5092220000000  0.5057060000000  0.4676840000000 1.0
C      1  0.4703060000000  0.5022040000000  0.4711850000000 1.0
C      1  0.4597370000000  0.5164680000000  0.5029860000000 1.0
C      1  0.4749660000000  0.4787000000000  0.5162720000000 1.0
C      1  0.5369850000000  0.5144100000000  0.4958690000000 1.0
C      1  0.5074470000000  0.5188440000000  0.4734440000000 1.0
C      1  0.4678240000000  0.5161940000000  0.5148010000000 1.0
C      1  0.5162340000000  0.4725100000000  0.5132340000000 1.0
C      1  0.4756970000000  0.4892520000000  0.4744500000000 1.0
C      1  0.4892920000000  0.5225230000000  0.5246980000000 1.0
C      1  0.5203890000000  0.4915020000000  0.5279360000000 1.0
C      1  0.5249420000000  0.4827110000000  0.5177680000000 1.0
C      1  0.5288150000000  0.5131920000000  0.4842310000000 1.0
C      1  0.4709260000000  0.4824100000000  0.4859390000000 1.0
C      1  0.4792060000000  0.5247420000000  0.5147810000000 1.0
C      1  0.4788090000000  0.4722460000000  0.4917100000000 1.0
C      1  0.5177350000000  0.5220820000000  0.4830160000000 1.0
END
