TITL C-1887011-2105-28 6.44180740265772e-07 1000000 -2462.02694885563 0 0 360 (Td) n - 1
REM
REM in /nfs/bkarasulu/CARBON/AIRSS/Generating-Clusters/GAP-ML-2020/Higher-Symm/Selected-Sizes/TryA-Only_Ih-Symm/Larger-Clusters
REM
REM
REM
REM
REM
REM ./C.cell (2cf5181f0f1d4d5b12b972d32ad12063)
REM
REM compiler GCC version 9.2.1 20190827 (Red Hat 9.2.1-1)
REM options -cpp -mtune=generic -march=x86-64 -g -O0 -fpre-include=/usr/include/finclude/math-vector-fortran.h
REM seed 1997728556 -1884393861 -1558880856 248107298 -928901128 1015156053 -1999754676 -1136604910 -1457574764 1008427277 -741662318 -1264975923 -1897146164 1341800484 1464173002 1421768268 151189870 -1480490446 -1705489319 1306482013 422995271 -1453440589 880217665 426954779 -921216039 368782428 610720219 -330330785 2100943877 -1443929605 1818225623 1964074441 -2077688625
REM
CELL 1.54180  100.00000  100.00000  100.00000   90.00000   90.00000   90.00000
LATT -1
SFAC C  
C      1  0.4940360000000  0.4842480000000  0.5255890000000 1.0
C      1  0.5255890000000  0.4940360000000  0.4842480000000 1.0
C      1  0.4842480000000  0.5255890000000  0.4940360000000 1.0
C      1  0.4940360000000  0.5157520000000  0.4744110000000 1.0
C      1  0.5059640000000  0.5157520000000  0.5255890000000 1.0
C      1  0.5059640000000  0.4842480000000  0.4744110000000 1.0
C      1  0.5255890000000  0.5059640000000  0.5157520000000 1.0
C      1  0.4744110000000  0.5059640000000  0.4842480000000 1.0
C      1  0.4744110000000  0.4940360000000  0.5157520000000 1.0
C      1  0.4842480000000  0.4744110000000  0.5059640000000 1.0
C      1  0.5157520000000  0.4744110000000  0.4940360000000 1.0
C      1  0.5157520000000  0.5255890000000  0.5059640000000 1.0
C      1  0.4940360000000  0.5255890000000  0.4842480000000 1.0
C      1  0.5255890000000  0.4842480000000  0.4940360000000 1.0
C      1  0.4842480000000  0.4940360000000  0.5255890000000 1.0
C      1  0.4940360000000  0.4744110000000  0.5157520000000 1.0
C      1  0.5059640000000  0.5255890000000  0.5157520000000 1.0
C      1  0.5059640000000  0.4744110000000  0.4842480000000 1.0
C      1  0.5255890000000  0.5157520000000  0.5059640000000 1.0
C      1  0.4744110000000  0.4842480000000  0.5059640000000 1.0
C      1  0.4744110000000  0.5157520000000  0.4940360000000 1.0
C      1  0.4842480000000  0.5059640000000  0.4744110000000 1.0
C      1  0.5157520000000  0.4940360000000  0.4744110000000 1.0
C      1  0.5157520000000  0.5059640000000  0.5255890000000 1.0
C      1  0.5159650000000  0.5046840000000  0.5495610000000 1.0
C      1  0.5495610000000  0.5159650000000  0.5046840000000 1.0
C      1  0.5046840000000  0.5495610000000  0.5159650000000 1.0
C      1  0.5159650000000  0.4953160000000  0.4504390000000 1.0
C      1  0.4840350000000  0.4953160000000  0.5495610000000 1.0
C      1  0.4840350000000  0.5046840000000  0.4504390000000 1.0
C      1  0.5495610000000  0.4840350000000  0.4953160000000 1.0
C      1  0.4504390000000  0.4840350000000  0.5046840000000 1.0
C      1  0.4504390000000  0.5159650000000  0.4953160000000 1.0
C      1  0.5046840000000  0.4504390000000  0.4840350000000 1.0
C      1  0.4953160000000  0.4504390000000  0.5159650000000 1.0
C      1  0.4953160000000  0.5495610000000  0.4840350000000 1.0
C      1  0.5159650000000  0.5495610000000  0.5046840000000 1.0
C      1  0.5495610000000  0.5046840000000  0.5159650000000 1.0
C      1  0.5046840000000  0.5159650000000  0.5495610000000 1.0
C      1  0.5159650000000  0.4504390000000  0.4953160000000 1.0
C      1  0.4840350000000  0.5495610000000  0.4953160000000 1.0
C      1  0.4840350000000  0.4504390000000  0.5046840000000 1.0
C      1  0.5495610000000  0.4953160000000  0.4840350000000 1.0
C      1  0.4504390000000  0.5046840000000  0.4840350000000 1.0
C      1  0.4504390000000  0.4953160000000  0.5159650000000 1.0
C      1  0.5046840000000  0.4840350000000  0.4504390000000 1.0
C      1  0.4953160000000  0.5159650000000  0.4504390000000 1.0
C      1  0.4953160000000  0.4840350000000  0.5495610000000 1.0
C      1  0.4972250000000  0.5457290000000  0.4349000000000 1.0
C      1  0.4349000000000  0.4972250000000  0.5457290000000 1.0
C      1  0.5457290000000  0.4349000000000  0.4972250000000 1.0
C      1  0.4972250000000  0.4542710000000  0.5651000000000 1.0
C      1  0.5027750000000  0.4542710000000  0.4349000000000 1.0
C      1  0.5027750000000  0.5457290000000  0.5651000000000 1.0
C      1  0.4349000000000  0.5027750000000  0.4542710000000 1.0
C      1  0.5651000000000  0.5027750000000  0.5457290000000 1.0
C      1  0.5651000000000  0.4972250000000  0.4542710000000 1.0
C      1  0.5457290000000  0.5651000000000  0.5027750000000 1.0
C      1  0.4542710000000  0.5651000000000  0.4972250000000 1.0
C      1  0.4542710000000  0.4349000000000  0.5027750000000 1.0
C      1  0.4972250000000  0.4349000000000  0.5457290000000 1.0
C      1  0.4349000000000  0.5457290000000  0.4972250000000 1.0
C      1  0.5457290000000  0.4972250000000  0.4349000000000 1.0
C      1  0.4972250000000  0.5651000000000  0.4542710000000 1.0
C      1  0.5027750000000  0.4349000000000  0.4542710000000 1.0
C      1  0.5027750000000  0.5651000000000  0.5457290000000 1.0
C      1  0.4349000000000  0.4542710000000  0.5027750000000 1.0
C      1  0.5651000000000  0.5457290000000  0.5027750000000 1.0
C      1  0.5651000000000  0.4542710000000  0.4972250000000 1.0
C      1  0.5457290000000  0.5027750000000  0.5651000000000 1.0
C      1  0.4542710000000  0.4972250000000  0.5651000000000 1.0
C      1  0.4542710000000  0.5027750000000  0.4349000000000 1.0
C      1  0.5290350000000  0.4489430000000  0.4884950000000 1.0
C      1  0.4884950000000  0.5290350000000  0.4489430000000 1.0
C      1  0.4489430000000  0.4884950000000  0.5290350000000 1.0
C      1  0.5290350000000  0.5510570000000  0.5115050000000 1.0
C      1  0.4709650000000  0.5510570000000  0.4884950000000 1.0
C      1  0.4709650000000  0.4489430000000  0.5115050000000 1.0
C      1  0.4884950000000  0.4709650000000  0.5510570000000 1.0
C      1  0.5115050000000  0.4709650000000  0.4489430000000 1.0
C      1  0.5115050000000  0.5290350000000  0.5510570000000 1.0
C      1  0.4489430000000  0.5115050000000  0.4709650000000 1.0
C      1  0.5510570000000  0.5115050000000  0.5290350000000 1.0
C      1  0.5510570000000  0.4884950000000  0.4709650000000 1.0
C      1  0.5290350000000  0.4884950000000  0.4489430000000 1.0
C      1  0.4884950000000  0.4489430000000  0.5290350000000 1.0
C      1  0.4489430000000  0.5290350000000  0.4884950000000 1.0
C      1  0.5290350000000  0.5115050000000  0.5510570000000 1.0
C      1  0.4709650000000  0.4884950000000  0.5510570000000 1.0
C      1  0.4709650000000  0.5115050000000  0.4489430000000 1.0
C      1  0.4884950000000  0.5510570000000  0.4709650000000 1.0
C      1  0.5115050000000  0.4489430000000  0.4709650000000 1.0
C      1  0.5115050000000  0.5510570000000  0.5290350000000 1.0
C      1  0.4489430000000  0.4709650000000  0.5115050000000 1.0
C      1  0.5510570000000  0.5290350000000  0.5115050000000 1.0
C      1  0.5510570000000  0.4709650000000  0.4884950000000 1.0
C      1  0.5546960000000  0.5639460000000  0.4710890000000 1.0
C      1  0.4710890000000  0.5546960000000  0.5639460000000 1.0
C      1  0.5639460000000  0.4710890000000  0.5546960000000 1.0
C      1  0.5546960000000  0.4360540000000  0.5289110000000 1.0
C      1  0.4453040000000  0.4360540000000  0.4710890000000 1.0
C      1  0.4453040000000  0.5639460000000  0.5289110000000 1.0
C      1  0.4710890000000  0.4453040000000  0.4360540000000 1.0
C      1  0.5289110000000  0.4453040000000  0.5639460000000 1.0
C      1  0.5289110000000  0.5546960000000  0.4360540000000 1.0
C      1  0.5639460000000  0.5289110000000  0.4453040000000 1.0
C      1  0.4360540000000  0.5289110000000  0.5546960000000 1.0
C      1  0.4360540000000  0.4710890000000  0.4453040000000 1.0
C      1  0.5546960000000  0.4710890000000  0.5639460000000 1.0
C      1  0.4710890000000  0.5639460000000  0.5546960000000 1.0
C      1  0.5639460000000  0.5546960000000  0.4710890000000 1.0
C      1  0.5546960000000  0.5289110000000  0.4360540000000 1.0
C      1  0.4453040000000  0.4710890000000  0.4360540000000 1.0
C      1  0.4453040000000  0.5289110000000  0.5639460000000 1.0
C      1  0.4710890000000  0.4360540000000  0.4453040000000 1.0
C      1  0.5289110000000  0.5639460000000  0.4453040000000 1.0
C      1  0.5289110000000  0.4360540000000  0.5546960000000 1.0
C      1  0.5639460000000  0.4453040000000  0.5289110000000 1.0
C      1  0.4360540000000  0.5546960000000  0.5289110000000 1.0
C      1  0.4360540000000  0.4453040000000  0.4710890000000 1.0
C      1  0.4882930000000  0.4385890000000  0.4478810000000 1.0
C      1  0.4478810000000  0.4882930000000  0.4385890000000 1.0
C      1  0.4385890000000  0.4478810000000  0.4882930000000 1.0
C      1  0.4882930000000  0.5614110000000  0.5521190000000 1.0
C      1  0.5117070000000  0.5614110000000  0.4478810000000 1.0
C      1  0.5117070000000  0.4385890000000  0.5521190000000 1.0
C      1  0.4478810000000  0.5117070000000  0.5614110000000 1.0
C      1  0.5521190000000  0.5117070000000  0.4385890000000 1.0
C      1  0.5521190000000  0.4882930000000  0.5614110000000 1.0
C      1  0.4385890000000  0.5521190000000  0.5117070000000 1.0
C      1  0.5614110000000  0.5521190000000  0.4882930000000 1.0
C      1  0.5614110000000  0.4478810000000  0.5117070000000 1.0
C      1  0.4882930000000  0.4478810000000  0.4385890000000 1.0
C      1  0.4478810000000  0.4385890000000  0.4882930000000 1.0
C      1  0.4385890000000  0.4882930000000  0.4478810000000 1.0
C      1  0.4882930000000  0.5521190000000  0.5614110000000 1.0
C      1  0.5117070000000  0.4478810000000  0.5614110000000 1.0
C      1  0.5117070000000  0.5521190000000  0.4385890000000 1.0
C      1  0.4478810000000  0.5614110000000  0.5117070000000 1.0
C      1  0.5521190000000  0.4385890000000  0.5117070000000 1.0
C      1  0.5521190000000  0.5614110000000  0.4882930000000 1.0
C      1  0.4385890000000  0.5117070000000  0.5521190000000 1.0
C      1  0.5614110000000  0.4882930000000  0.5521190000000 1.0
C      1  0.5614110000000  0.5117070000000  0.4478810000000 1.0
C      1  0.4255930000000  0.4993570000000  0.4783750000000 1.0
C      1  0.4783750000000  0.4255930000000  0.4993570000000 1.0
C      1  0.4993570000000  0.4783750000000  0.4255930000000 1.0
C      1  0.4255930000000  0.5006430000000  0.5216250000000 1.0
C      1  0.5744070000000  0.5006430000000  0.4783750000000 1.0
C      1  0.5744070000000  0.4993570000000  0.5216250000000 1.0
C      1  0.4783750000000  0.5744070000000  0.5006430000000 1.0
C      1  0.5216250000000  0.5744070000000  0.4993570000000 1.0
C      1  0.5216250000000  0.4255930000000  0.5006430000000 1.0
C      1  0.4993570000000  0.5216250000000  0.5744070000000 1.0
C      1  0.5006430000000  0.5216250000000  0.4255930000000 1.0
C      1  0.5006430000000  0.4783750000000  0.5744070000000 1.0
C      1  0.4255930000000  0.4783750000000  0.4993570000000 1.0
C      1  0.4783750000000  0.4993570000000  0.4255930000000 1.0
C      1  0.4993570000000  0.4255930000000  0.4783750000000 1.0
C      1  0.4255930000000  0.5216250000000  0.5006430000000 1.0
C      1  0.5744070000000  0.4783750000000  0.5006430000000 1.0
C      1  0.5744070000000  0.5216250000000  0.4993570000000 1.0
C      1  0.4783750000000  0.5006430000000  0.5744070000000 1.0
C      1  0.5216250000000  0.4993570000000  0.5744070000000 1.0
C      1  0.5216250000000  0.5006430000000  0.4255930000000 1.0
C      1  0.4993570000000  0.5744070000000  0.5216250000000 1.0
C      1  0.5006430000000  0.4255930000000  0.5216250000000 1.0
C      1  0.5006430000000  0.5744070000000  0.4783750000000 1.0
C      1  0.5720100000000  0.4926350000000  0.4668850000000 1.0
C      1  0.4668850000000  0.5720100000000  0.4926350000000 1.0
C      1  0.4926350000000  0.4668850000000  0.5720100000000 1.0
C      1  0.5720100000000  0.5073650000000  0.5331150000000 1.0
C      1  0.4279900000000  0.5073650000000  0.4668850000000 1.0
C      1  0.4279900000000  0.4926350000000  0.5331150000000 1.0
C      1  0.4668850000000  0.4279900000000  0.5073650000000 1.0
C      1  0.5331150000000  0.4279900000000  0.4926350000000 1.0
C      1  0.5331150000000  0.5720100000000  0.5073650000000 1.0
C      1  0.4926350000000  0.5331150000000  0.4279900000000 1.0
C      1  0.5073650000000  0.5331150000000  0.5720100000000 1.0
C      1  0.5073650000000  0.4668850000000  0.4279900000000 1.0
C      1  0.5720100000000  0.4668850000000  0.4926350000000 1.0
C      1  0.4668850000000  0.4926350000000  0.5720100000000 1.0
C      1  0.4926350000000  0.5720100000000  0.4668850000000 1.0
C      1  0.5720100000000  0.5331150000000  0.5073650000000 1.0
C      1  0.4279900000000  0.4668850000000  0.5073650000000 1.0
C      1  0.4279900000000  0.5331150000000  0.4926350000000 1.0
C      1  0.4668850000000  0.5073650000000  0.4279900000000 1.0
C      1  0.5331150000000  0.4926350000000  0.4279900000000 1.0
C      1  0.5331150000000  0.5073650000000  0.5720100000000 1.0
C      1  0.4926350000000  0.4279900000000  0.5331150000000 1.0
C      1  0.5073650000000  0.5720100000000  0.5331150000000 1.0
C      1  0.5073650000000  0.4279900000000  0.4668850000000 1.0
C      1  0.5188410000000  0.5641000000000  0.5283260000000 1.0
C      1  0.5283260000000  0.5188410000000  0.5641000000000 1.0
C      1  0.5641000000000  0.5283260000000  0.5188410000000 1.0
C      1  0.5188410000000  0.4359000000000  0.4716740000000 1.0
C      1  0.4811590000000  0.4359000000000  0.5283260000000 1.0
C      1  0.4811590000000  0.5641000000000  0.4716740000000 1.0
C      1  0.5283260000000  0.4811590000000  0.4359000000000 1.0
C      1  0.4716740000000  0.4811590000000  0.5641000000000 1.0
C      1  0.4716740000000  0.5188410000000  0.4359000000000 1.0
C      1  0.5641000000000  0.4716740000000  0.4811590000000 1.0
C      1  0.4359000000000  0.4716740000000  0.5188410000000 1.0
C      1  0.4359000000000  0.5283260000000  0.4811590000000 1.0
C      1  0.5188410000000  0.5283260000000  0.5641000000000 1.0
C      1  0.5283260000000  0.5641000000000  0.5188410000000 1.0
C      1  0.5641000000000  0.5188410000000  0.5283260000000 1.0
C      1  0.5188410000000  0.4716740000000  0.4359000000000 1.0
C      1  0.4811590000000  0.5283260000000  0.4359000000000 1.0
C      1  0.4811590000000  0.4716740000000  0.5641000000000 1.0
C      1  0.5283260000000  0.4359000000000  0.4811590000000 1.0
C      1  0.4716740000000  0.5641000000000  0.4811590000000 1.0
C      1  0.4716740000000  0.4359000000000  0.5188410000000 1.0
C      1  0.5641000000000  0.4811590000000  0.4716740000000 1.0
C      1  0.4359000000000  0.5188410000000  0.4716740000000 1.0
C      1  0.4359000000000  0.4811590000000  0.5283260000000 1.0
C      1  0.4586940000000  0.5050050000000  0.4491450000000 1.0
C      1  0.4491450000000  0.4586940000000  0.5050050000000 1.0
C      1  0.5050050000000  0.4491450000000  0.4586940000000 1.0
C      1  0.4586940000000  0.4949950000000  0.5508550000000 1.0
C      1  0.5413060000000  0.4949950000000  0.4491450000000 1.0
C      1  0.5413060000000  0.5050050000000  0.5508550000000 1.0
C      1  0.4491450000000  0.5413060000000  0.4949950000000 1.0
C      1  0.5508550000000  0.5413060000000  0.5050050000000 1.0
C      1  0.5508550000000  0.4586940000000  0.4949950000000 1.0
C      1  0.5050050000000  0.5508550000000  0.5413060000000 1.0
C      1  0.4949950000000  0.5508550000000  0.4586940000000 1.0
C      1  0.4949950000000  0.4491450000000  0.5413060000000 1.0
C      1  0.4586940000000  0.4491450000000  0.5050050000000 1.0
C      1  0.4491450000000  0.5050050000000  0.4586940000000 1.0
C      1  0.5050050000000  0.4586940000000  0.4491450000000 1.0
C      1  0.4586940000000  0.5508550000000  0.4949950000000 1.0
C      1  0.5413060000000  0.4491450000000  0.4949950000000 1.0
C      1  0.5413060000000  0.5508550000000  0.5050050000000 1.0
C      1  0.4491450000000  0.4949950000000  0.5413060000000 1.0
C      1  0.5508550000000  0.5050050000000  0.5413060000000 1.0
C      1  0.5508550000000  0.4949950000000  0.4586940000000 1.0
C      1  0.5050050000000  0.5413060000000  0.5508550000000 1.0
C      1  0.4949950000000  0.4586940000000  0.5508550000000 1.0
C      1  0.4949950000000  0.5413060000000  0.4491450000000 1.0
C      1  0.5852260000000  0.4830190000000  0.5079480000000 1.0
C      1  0.5079480000000  0.5852260000000  0.4830190000000 1.0
C      1  0.4830190000000  0.5079480000000  0.5852260000000 1.0
C      1  0.5852260000000  0.5169810000000  0.4920520000000 1.0
C      1  0.4147740000000  0.5169810000000  0.5079480000000 1.0
C      1  0.4147740000000  0.4830190000000  0.4920520000000 1.0
C      1  0.5079480000000  0.4147740000000  0.5169810000000 1.0
C      1  0.4920520000000  0.4147740000000  0.4830190000000 1.0
C      1  0.4920520000000  0.5852260000000  0.5169810000000 1.0
C      1  0.4830190000000  0.4920520000000  0.4147740000000 1.0
C      1  0.5169810000000  0.4920520000000  0.5852260000000 1.0
C      1  0.5169810000000  0.5079480000000  0.4147740000000 1.0
C      1  0.5852260000000  0.5079480000000  0.4830190000000 1.0
C      1  0.5079480000000  0.4830190000000  0.5852260000000 1.0
C      1  0.4830190000000  0.5852260000000  0.5079480000000 1.0
C      1  0.5852260000000  0.4920520000000  0.5169810000000 1.0
C      1  0.4147740000000  0.5079480000000  0.5169810000000 1.0
C      1  0.4147740000000  0.4920520000000  0.4830190000000 1.0
C      1  0.5079480000000  0.5169810000000  0.4147740000000 1.0
C      1  0.4920520000000  0.4830190000000  0.4147740000000 1.0
C      1  0.4920520000000  0.5169810000000  0.5852260000000 1.0
C      1  0.4830190000000  0.4147740000000  0.4920520000000 1.0
C      1  0.5169810000000  0.5852260000000  0.4920520000000 1.0
C      1  0.5169810000000  0.4147740000000  0.5079480000000 1.0
C      1  0.4888490000000  0.5634970000000  0.5004890000000 1.0
C      1  0.5004890000000  0.4888490000000  0.5634970000000 1.0
C      1  0.5634970000000  0.5004890000000  0.4888490000000 1.0
C      1  0.4888490000000  0.4365030000000  0.4995110000000 1.0
C      1  0.5111510000000  0.4365030000000  0.5004890000000 1.0
C      1  0.5111510000000  0.5634970000000  0.4995110000000 1.0
C      1  0.5004890000000  0.5111510000000  0.4365030000000 1.0
C      1  0.4995110000000  0.5111510000000  0.5634970000000 1.0
C      1  0.4995110000000  0.4888490000000  0.4365030000000 1.0
C      1  0.5634970000000  0.4995110000000  0.5111510000000 1.0
C      1  0.4365030000000  0.4995110000000  0.4888490000000 1.0
C      1  0.4365030000000  0.5004890000000  0.5111510000000 1.0
C      1  0.4888490000000  0.5004890000000  0.5634970000000 1.0
C      1  0.5004890000000  0.5634970000000  0.4888490000000 1.0
C      1  0.5634970000000  0.4888490000000  0.5004890000000 1.0
C      1  0.4888490000000  0.4995110000000  0.4365030000000 1.0
C      1  0.5111510000000  0.5004890000000  0.4365030000000 1.0
C      1  0.5111510000000  0.4995110000000  0.5634970000000 1.0
C      1  0.5004890000000  0.4365030000000  0.5111510000000 1.0
C      1  0.4995110000000  0.5634970000000  0.5111510000000 1.0
C      1  0.4995110000000  0.4365030000000  0.4888490000000 1.0
C      1  0.5634970000000  0.5111510000000  0.4995110000000 1.0
C      1  0.4365030000000  0.4888490000000  0.4995110000000 1.0
C      1  0.4365030000000  0.5111510000000  0.5004890000000 1.0
C      1  0.5678670000000  0.5085310000000  0.5588890000000 1.0
C      1  0.5588890000000  0.5678670000000  0.5085310000000 1.0
C      1  0.5085310000000  0.5588890000000  0.5678670000000 1.0
C      1  0.5678670000000  0.4914690000000  0.4411110000000 1.0
C      1  0.4321330000000  0.4914690000000  0.5588890000000 1.0
C      1  0.4321330000000  0.5085310000000  0.4411110000000 1.0
C      1  0.5588890000000  0.4321330000000  0.4914690000000 1.0
C      1  0.4411110000000  0.4321330000000  0.5085310000000 1.0
C      1  0.4411110000000  0.5678670000000  0.4914690000000 1.0
C      1  0.5085310000000  0.4411110000000  0.4321330000000 1.0
C      1  0.4914690000000  0.4411110000000  0.5678670000000 1.0
C      1  0.4914690000000  0.5588890000000  0.4321330000000 1.0
C      1  0.5678670000000  0.5588890000000  0.5085310000000 1.0
C      1  0.5588890000000  0.5085310000000  0.5678670000000 1.0
C      1  0.5085310000000  0.5678670000000  0.5588890000000 1.0
C      1  0.5678670000000  0.4411110000000  0.4914690000000 1.0
C      1  0.4321330000000  0.5588890000000  0.4914690000000 1.0
C      1  0.4321330000000  0.4411110000000  0.5085310000000 1.0
C      1  0.5588890000000  0.4914690000000  0.4321330000000 1.0
C      1  0.4411110000000  0.5085310000000  0.4321330000000 1.0
C      1  0.4411110000000  0.4914690000000  0.5678670000000 1.0
C      1  0.5085310000000  0.4321330000000  0.4411110000000 1.0
C      1  0.4914690000000  0.5678670000000  0.4411110000000 1.0
C      1  0.4914690000000  0.4321330000000  0.5588890000000 1.0
C      1  0.4852640000000  0.5345730000000  0.5247980000000 1.0
C      1  0.5247980000000  0.4852640000000  0.5345730000000 1.0
C      1  0.5345730000000  0.5247980000000  0.4852640000000 1.0
C      1  0.4852640000000  0.4654270000000  0.4752020000000 1.0
C      1  0.5147360000000  0.4654270000000  0.5247980000000 1.0
C      1  0.5147360000000  0.5345730000000  0.4752020000000 1.0
C      1  0.5247980000000  0.5147360000000  0.4654270000000 1.0
C      1  0.4752020000000  0.5147360000000  0.5345730000000 1.0
C      1  0.4752020000000  0.4852640000000  0.4654270000000 1.0
C      1  0.5345730000000  0.4752020000000  0.5147360000000 1.0
C      1  0.4654270000000  0.4752020000000  0.4852640000000 1.0
C      1  0.4654270000000  0.5247980000000  0.5147360000000 1.0
C      1  0.4852640000000  0.5247980000000  0.5345730000000 1.0
C      1  0.5247980000000  0.5345730000000  0.4852640000000 1.0
C      1  0.5345730000000  0.4852640000000  0.5247980000000 1.0
C      1  0.4852640000000  0.4752020000000  0.4654270000000 1.0
C      1  0.5147360000000  0.5247980000000  0.4654270000000 1.0
C      1  0.5147360000000  0.4752020000000  0.5345730000000 1.0
C      1  0.5247980000000  0.4654270000000  0.5147360000000 1.0
C      1  0.4752020000000  0.5345730000000  0.5147360000000 1.0
C      1  0.4752020000000  0.4654270000000  0.4852640000000 1.0
C      1  0.5345730000000  0.5147360000000  0.4752020000000 1.0
C      1  0.4654270000000  0.4852640000000  0.4752020000000 1.0
C      1  0.4654270000000  0.5147360000000  0.5247980000000 1.0
C      1  0.4966260000000  0.4629290000000  0.4848350000000 1.0
C      1  0.4848350000000  0.4966260000000  0.4629290000000 1.0
C      1  0.4629290000000  0.4848350000000  0.4966260000000 1.0
C      1  0.4966260000000  0.5370710000000  0.5151650000000 1.0
C      1  0.5033740000000  0.5370710000000  0.4848350000000 1.0
C      1  0.5033740000000  0.4629290000000  0.5151650000000 1.0
C      1  0.4848350000000  0.5033740000000  0.5370710000000 1.0
C      1  0.5151650000000  0.5033740000000  0.4629290000000 1.0
C      1  0.5151650000000  0.4966260000000  0.5370710000000 1.0
C      1  0.4629290000000  0.5151650000000  0.5033740000000 1.0
C      1  0.5370710000000  0.5151650000000  0.4966260000000 1.0
C      1  0.5370710000000  0.4848350000000  0.5033740000000 1.0
C      1  0.4966260000000  0.4848350000000  0.4629290000000 1.0
C      1  0.4848350000000  0.4629290000000  0.4966260000000 1.0
C      1  0.4629290000000  0.4966260000000  0.4848350000000 1.0
C      1  0.4966260000000  0.5151650000000  0.5370710000000 1.0
C      1  0.5033740000000  0.4848350000000  0.5370710000000 1.0
C      1  0.5033740000000  0.5151650000000  0.4629290000000 1.0
C      1  0.4848350000000  0.5370710000000  0.5033740000000 1.0
C      1  0.5151650000000  0.4629290000000  0.5033740000000 1.0
C      1  0.5151650000000  0.5370710000000  0.4966260000000 1.0
C      1  0.4629290000000  0.5033740000000  0.5151650000000 1.0
C      1  0.5370710000000  0.4966260000000  0.5151650000000 1.0
C      1  0.5370710000000  0.5033740000000  0.4848350000000 1.0
END
