TITL C-1892076-7001-24 -1.4798748362316e-06 1000000 -3697.91188563892 0 0 520 (Td) n - 1
REM
REM in /nfs/bkarasulu/CARBON/AIRSS/Generating-Clusters/GAP-ML-2020/Higher-Symm/Selected-Sizes/TryA-Only_Ih-Symm/Larger-Clusters
REM
REM
REM
REM
REM
REM ./C.cell (2cf5181f0f1d4d5b12b972d32ad12063)
REM
REM compiler GCC version 9.2.1 20190827 (Red Hat 9.2.1-1)
REM options -cpp -mtune=generic -march=x86-64 -g -O0 -fpre-include=/usr/include/finclude/math-vector-fortran.h
REM seed -91551990 191001298 426075463 568706726 -1972465447 -115257353 -1728925141 -129994520 808254162 -943257104 -65915790 1752702786 -689879745 -682276975 1177739861 -938074228 682996912 2134779882 1675796601 1806263817 -1915636894 1592409949 -182566601 -1444300246 -72498822 659297160 -1695289681 -2104073223 -902854685 -1454243077 329915753 -2088499639 1992087778
REM
CELL 1.54180  100.00000  100.00000  100.00000   90.00000   90.00000   90.00000
LATT -1
SFAC C  
C      1  0.5273000000000  0.5095980000000  0.4283200000000 1.0
C      1  0.4281980000000  0.5272650000000  0.5097550000000 1.0
C      1  0.5096330000000  0.4281630000000  0.5274220000000 1.0
C      1  0.4730140000000  0.4906460000000  0.4283200000000 1.0
C      1  0.4730140000000  0.5095980000000  0.5722380000000 1.0
C      1  0.5273000000000  0.4906460000000  0.5722380000000 1.0
C      1  0.5721160000000  0.4729790000000  0.5097550000000 1.0
C      1  0.5721160000000  0.5272650000000  0.4908030000000 1.0
C      1  0.4281980000000  0.4729790000000  0.4908030000000 1.0
C      1  0.4906810000000  0.5720810000000  0.5274220000000 1.0
C      1  0.4906810000000  0.4281630000000  0.4731360000000 1.0
C      1  0.5096330000000  0.5720810000000  0.4731360000000 1.0
C      1  0.5096330000000  0.5272650000000  0.4283200000000 1.0
C      1  0.5273000000000  0.4281630000000  0.5097550000000 1.0
C      1  0.4281980000000  0.5095980000000  0.5274220000000 1.0
C      1  0.4906810000000  0.4729790000000  0.4283200000000 1.0
C      1  0.5096330000000  0.4729790000000  0.5722380000000 1.0
C      1  0.4906810000000  0.5272650000000  0.5722380000000 1.0
C      1  0.4730140000000  0.5720810000000  0.5097550000000 1.0
C      1  0.5273000000000  0.5720810000000  0.4908030000000 1.0
C      1  0.4730140000000  0.4281630000000  0.4908030000000 1.0
C      1  0.5721160000000  0.4906460000000  0.5274220000000 1.0
C      1  0.4281980000000  0.4906460000000  0.4731360000000 1.0
C      1  0.5721160000000  0.5095980000000  0.4731360000000 1.0
C      1  0.4839380000000  0.4739570000000  0.4937300000000 1.0
C      1  0.4936080000000  0.4839020000000  0.4741150000000 1.0
C      1  0.4739930000000  0.4935730000000  0.4840590000000 1.0
C      1  0.5163770000000  0.5262860000000  0.4937300000000 1.0
C      1  0.5163770000000  0.4739570000000  0.5068280000000 1.0
C      1  0.4839380000000  0.5262860000000  0.5068280000000 1.0
C      1  0.5067060000000  0.5163410000000  0.4741150000000 1.0
C      1  0.5067060000000  0.4839020000000  0.5264430000000 1.0
C      1  0.4936080000000  0.5163410000000  0.5264430000000 1.0
C      1  0.5263220000000  0.5066700000000  0.4840590000000 1.0
C      1  0.5263220000000  0.4935730000000  0.5164980000000 1.0
C      1  0.4739930000000  0.5066700000000  0.5164980000000 1.0
C      1  0.4739930000000  0.4839020000000  0.4937300000000 1.0
C      1  0.4839380000000  0.4935730000000  0.4741150000000 1.0
C      1  0.4936080000000  0.4739570000000  0.4840590000000 1.0
C      1  0.5263220000000  0.5163410000000  0.4937300000000 1.0
C      1  0.4739930000000  0.5163410000000  0.5068280000000 1.0
C      1  0.5263220000000  0.4839020000000  0.5068280000000 1.0
C      1  0.5163770000000  0.5066700000000  0.4741150000000 1.0
C      1  0.4839380000000  0.5066700000000  0.5264430000000 1.0
C      1  0.5163770000000  0.4935730000000  0.5264430000000 1.0
C      1  0.5067060000000  0.5262860000000  0.4840590000000 1.0
C      1  0.4936080000000  0.5262860000000  0.5164980000000 1.0
C      1  0.5067060000000  0.4739570000000  0.5164980000000 1.0
C      1  0.4315330000000  0.4416550000000  0.4810390000000 1.0
C      1  0.4809170000000  0.4314970000000  0.4418130000000 1.0
C      1  0.4416910000000  0.4808810000000  0.4316540000000 1.0
C      1  0.5687820000000  0.5585880000000  0.4810390000000 1.0
C      1  0.5687820000000  0.4416550000000  0.5195190000000 1.0
C      1  0.4315330000000  0.5585880000000  0.5195190000000 1.0
C      1  0.5193970000000  0.5687460000000  0.4418130000000 1.0
C      1  0.5193970000000  0.4314970000000  0.5587450000000 1.0
C      1  0.4809170000000  0.5687460000000  0.5587450000000 1.0
C      1  0.5586240000000  0.5193620000000  0.4316540000000 1.0
C      1  0.5586240000000  0.4808810000000  0.5689030000000 1.0
C      1  0.4416910000000  0.5193620000000  0.5689030000000 1.0
C      1  0.4416910000000  0.4314970000000  0.4810390000000 1.0
C      1  0.4315330000000  0.4808810000000  0.4418130000000 1.0
C      1  0.4809170000000  0.4416550000000  0.4316540000000 1.0
C      1  0.5586240000000  0.5687460000000  0.4810390000000 1.0
C      1  0.4416910000000  0.5687460000000  0.5195190000000 1.0
C      1  0.5586240000000  0.4314970000000  0.5195190000000 1.0
C      1  0.5687820000000  0.5193620000000  0.4418130000000 1.0
C      1  0.4315330000000  0.5193620000000  0.5587450000000 1.0
C      1  0.5687820000000  0.4808810000000  0.5587450000000 1.0
C      1  0.5193970000000  0.5585880000000  0.4316540000000 1.0
C      1  0.4809170000000  0.5585880000000  0.5689030000000 1.0
C      1  0.5193970000000  0.4416550000000  0.5689030000000 1.0
C      1  0.4627620000000  0.5265920000000  0.5055020000000 1.0
C      1  0.5053800000000  0.4627270000000  0.5267490000000 1.0
C      1  0.5266270000000  0.5053450000000  0.4628840000000 1.0
C      1  0.5375520000000  0.4736520000000  0.5055020000000 1.0
C      1  0.5375520000000  0.5265920000000  0.4950560000000 1.0
C      1  0.4627620000000  0.4736520000000  0.4950560000000 1.0
C      1  0.4949340000000  0.5375170000000  0.5267490000000 1.0
C      1  0.4949340000000  0.4627270000000  0.4738090000000 1.0
C      1  0.5053800000000  0.5375170000000  0.4738090000000 1.0
C      1  0.4736870000000  0.4948990000000  0.4628840000000 1.0
C      1  0.4736870000000  0.5053450000000  0.5376740000000 1.0
C      1  0.5266270000000  0.4948990000000  0.5376740000000 1.0
C      1  0.5266270000000  0.4627270000000  0.5055020000000 1.0
C      1  0.4627620000000  0.5053450000000  0.5267490000000 1.0
C      1  0.5053800000000  0.5265920000000  0.4628840000000 1.0
C      1  0.4736870000000  0.5375170000000  0.5055020000000 1.0
C      1  0.5266270000000  0.5375170000000  0.4950560000000 1.0
C      1  0.4736870000000  0.4627270000000  0.4950560000000 1.0
C      1  0.5375520000000  0.4948990000000  0.5267490000000 1.0
C      1  0.4627620000000  0.4948990000000  0.4738090000000 1.0
C      1  0.5375520000000  0.5053450000000  0.4738090000000 1.0
C      1  0.4949340000000  0.4736520000000  0.4628840000000 1.0
C      1  0.5053800000000  0.4736520000000  0.5376740000000 1.0
C      1  0.4949340000000  0.5265920000000  0.5376740000000 1.0
C      1  0.4592990000000  0.4815210000000  0.4496960000000 1.0
C      1  0.4495740000000  0.4592630000000  0.4816780000000 1.0
C      1  0.4815560000000  0.4495390000000  0.4594200000000 1.0
C      1  0.5410160000000  0.5187230000000  0.4496960000000 1.0
C      1  0.5410160000000  0.4815210000000  0.5508620000000 1.0
C      1  0.4592990000000  0.5187230000000  0.5508620000000 1.0
C      1  0.5507400000000  0.5409800000000  0.4816780000000 1.0
C      1  0.5507400000000  0.4592630000000  0.5188800000000 1.0
C      1  0.4495740000000  0.5409800000000  0.5188800000000 1.0
C      1  0.5187580000000  0.5507050000000  0.4594200000000 1.0
C      1  0.5187580000000  0.4495390000000  0.5411370000000 1.0
C      1  0.4815560000000  0.5507050000000  0.5411370000000 1.0
C      1  0.4815560000000  0.4592630000000  0.4496960000000 1.0
C      1  0.4592990000000  0.4495390000000  0.4816780000000 1.0
C      1  0.4495740000000  0.4815210000000  0.4594200000000 1.0
C      1  0.5187580000000  0.5409800000000  0.4496960000000 1.0
C      1  0.4815560000000  0.5409800000000  0.5508620000000 1.0
C      1  0.5187580000000  0.4592630000000  0.5508620000000 1.0
C      1  0.5410160000000  0.5507050000000  0.4816780000000 1.0
C      1  0.4592990000000  0.5507050000000  0.5188800000000 1.0
C      1  0.5410160000000  0.4495390000000  0.5188800000000 1.0
C      1  0.5507400000000  0.5187230000000  0.4594200000000 1.0
C      1  0.4495740000000  0.5187230000000  0.5411370000000 1.0
C      1  0.5507400000000  0.4815210000000  0.5411370000000 1.0
C      1  0.4924510000000  0.5531550000000  0.4366790000000 1.0
C      1  0.4365570000000  0.4924150000000  0.5533130000000 1.0
C      1  0.5531910000000  0.4365220000000  0.4925720000000 1.0
C      1  0.5078640000000  0.4470880000000  0.4366790000000 1.0
C      1  0.5078640000000  0.5531550000000  0.5638790000000 1.0
C      1  0.4924510000000  0.4470880000000  0.5638790000000 1.0
C      1  0.5637570000000  0.5078280000000  0.5533130000000 1.0
C      1  0.5637570000000  0.4924150000000  0.4472450000000 1.0
C      1  0.4365570000000  0.5078280000000  0.4472450000000 1.0
C      1  0.4471230000000  0.5637220000000  0.4925720000000 1.0
C      1  0.4471230000000  0.4365220000000  0.5079850000000 1.0
C      1  0.5531910000000  0.5637220000000  0.5079850000000 1.0
C      1  0.5531910000000  0.4924150000000  0.4366790000000 1.0
C      1  0.4924510000000  0.4365220000000  0.5533130000000 1.0
C      1  0.4365570000000  0.5531550000000  0.4925720000000 1.0
C      1  0.4471230000000  0.5078280000000  0.4366790000000 1.0
C      1  0.5531910000000  0.5078280000000  0.5638790000000 1.0
C      1  0.4471230000000  0.4924150000000  0.5638790000000 1.0
C      1  0.5078640000000  0.5637220000000  0.5533130000000 1.0
C      1  0.4924510000000  0.5637220000000  0.4472450000000 1.0
C      1  0.5078640000000  0.4365220000000  0.4472450000000 1.0
C      1  0.5637570000000  0.4470880000000  0.4925720000000 1.0
C      1  0.4365570000000  0.4470880000000  0.5079850000000 1.0
C      1  0.5637570000000  0.5531550000000  0.5079850000000 1.0
C      1  0.5597320000000  0.4918110000000  0.5192420000000 1.0
C      1  0.5191210000000  0.5596960000000  0.4919680000000 1.0
C      1  0.4918460000000  0.5190850000000  0.5598540000000 1.0
C      1  0.4405820000000  0.5084330000000  0.5192420000000 1.0
C      1  0.4405820000000  0.4918110000000  0.4813160000000 1.0
C      1  0.5597320000000  0.5084330000000  0.4813160000000 1.0
C      1  0.4811940000000  0.4405470000000  0.4919680000000 1.0
C      1  0.4811940000000  0.5596960000000  0.5085900000000 1.0
C      1  0.5191210000000  0.4405470000000  0.5085900000000 1.0
C      1  0.5084680000000  0.4811580000000  0.5598540000000 1.0
C      1  0.5084680000000  0.5190850000000  0.4407040000000 1.0
C      1  0.4918460000000  0.4811580000000  0.4407040000000 1.0
C      1  0.4918460000000  0.5596960000000  0.5192420000000 1.0
C      1  0.5597320000000  0.5190850000000  0.4919680000000 1.0
C      1  0.5191210000000  0.4918110000000  0.5598540000000 1.0
C      1  0.5084680000000  0.4405470000000  0.5192420000000 1.0
C      1  0.4918460000000  0.4405470000000  0.4813160000000 1.0
C      1  0.5084680000000  0.5596960000000  0.4813160000000 1.0
C      1  0.4405820000000  0.4811580000000  0.4919680000000 1.0
C      1  0.5597320000000  0.4811580000000  0.5085900000000 1.0
C      1  0.4405820000000  0.5190850000000  0.5085900000000 1.0
C      1  0.4811940000000  0.5084330000000  0.5598540000000 1.0
C      1  0.5191210000000  0.5084330000000  0.4407040000000 1.0
C      1  0.4811940000000  0.4918110000000  0.4407040000000 1.0
C      1  0.5025360000000  0.5792260000000  0.5236280000000 1.0
C      1  0.5235060000000  0.5025010000000  0.5793830000000 1.0
C      1  0.5792620000000  0.5234710000000  0.5026580000000 1.0
C      1  0.4977780000000  0.4210170000000  0.5236280000000 1.0
C      1  0.4977780000000  0.5792260000000  0.4769300000000 1.0
C      1  0.5025360000000  0.4210170000000  0.4769300000000 1.0
C      1  0.4768080000000  0.4977430000000  0.5793830000000 1.0
C      1  0.4768080000000  0.5025010000000  0.4211750000000 1.0
C      1  0.5235060000000  0.4977430000000  0.4211750000000 1.0
C      1  0.4210530000000  0.4767730000000  0.5026580000000 1.0
C      1  0.4210530000000  0.5234710000000  0.4979000000000 1.0
C      1  0.5792620000000  0.4767730000000  0.4979000000000 1.0
C      1  0.5792620000000  0.5025010000000  0.5236280000000 1.0
C      1  0.5025360000000  0.5234710000000  0.5793830000000 1.0
C      1  0.5235060000000  0.5792260000000  0.5026580000000 1.0
C      1  0.4210530000000  0.4977430000000  0.5236280000000 1.0
C      1  0.5792620000000  0.4977430000000  0.4769300000000 1.0
C      1  0.4210530000000  0.5025010000000  0.4769300000000 1.0
C      1  0.4977780000000  0.4767730000000  0.5793830000000 1.0
C      1  0.5025360000000  0.4767730000000  0.4211750000000 1.0
C      1  0.4977780000000  0.5234710000000  0.4211750000000 1.0
C      1  0.4768080000000  0.4210170000000  0.5026580000000 1.0
C      1  0.5235060000000  0.4210170000000  0.4979000000000 1.0
C      1  0.4768080000000  0.5792260000000  0.4979000000000 1.0
C      1  0.4549200000000  0.4360640000000  0.4749800000000 1.0
C      1  0.4748590000000  0.4548840000000  0.4362210000000 1.0
C      1  0.4360990000000  0.4748230000000  0.4550410000000 1.0
C      1  0.5453950000000  0.5641800000000  0.4749800000000 1.0
C      1  0.5453950000000  0.4360640000000  0.5255770000000 1.0
C      1  0.4549200000000  0.5641800000000  0.5255770000000 1.0
C      1  0.5254560000000  0.5453590000000  0.4362210000000 1.0
C      1  0.5254560000000  0.4548840000000  0.5643370000000 1.0
C      1  0.4748590000000  0.5453590000000  0.5643370000000 1.0
C      1  0.5642150000000  0.5254200000000  0.4550410000000 1.0
C      1  0.5642150000000  0.4748230000000  0.5455160000000 1.0
C      1  0.4360990000000  0.5254200000000  0.5455160000000 1.0
C      1  0.4360990000000  0.4548840000000  0.4749800000000 1.0
C      1  0.4549200000000  0.4748230000000  0.4362210000000 1.0
C      1  0.4748590000000  0.4360640000000  0.4550410000000 1.0
C      1  0.5642150000000  0.5453590000000  0.4749800000000 1.0
C      1  0.4360990000000  0.5453590000000  0.5255770000000 1.0
C      1  0.5642150000000  0.4548840000000  0.5255770000000 1.0
C      1  0.5453950000000  0.5254200000000  0.4362210000000 1.0
C      1  0.4549200000000  0.5254200000000  0.5643370000000 1.0
C      1  0.5453950000000  0.4748230000000  0.5643370000000 1.0
C      1  0.5254560000000  0.5641800000000  0.4550410000000 1.0
C      1  0.4748590000000  0.5641800000000  0.5455160000000 1.0
C      1  0.5254560000000  0.4360640000000  0.5455160000000 1.0
C      1  0.4858640000000  0.4740000000000  0.5694710000000 1.0
C      1  0.5693490000000  0.4858280000000  0.4741570000000 1.0
C      1  0.4740350000000  0.5693140000000  0.4859850000000 1.0
C      1  0.5144510000000  0.5262440000000  0.5694710000000 1.0
C      1  0.5144510000000  0.4740000000000  0.4310870000000 1.0
C      1  0.4858640000000  0.5262440000000  0.4310870000000 1.0
C      1  0.4309650000000  0.5144150000000  0.4741570000000 1.0
C      1  0.4309650000000  0.4858280000000  0.5264010000000 1.0
C      1  0.5693490000000  0.5144150000000  0.5264010000000 1.0
C      1  0.5262790000000  0.4309300000000  0.4859850000000 1.0
C      1  0.5262790000000  0.5693140000000  0.5145730000000 1.0
C      1  0.4740350000000  0.4309300000000  0.5145730000000 1.0
C      1  0.4740350000000  0.4858280000000  0.5694710000000 1.0
C      1  0.4858640000000  0.5693140000000  0.4741570000000 1.0
C      1  0.5693490000000  0.4740000000000  0.4859850000000 1.0
C      1  0.5262790000000  0.5144150000000  0.5694710000000 1.0
C      1  0.4740350000000  0.5144150000000  0.4310870000000 1.0
C      1  0.5262790000000  0.4858280000000  0.4310870000000 1.0
C      1  0.5144510000000  0.4309300000000  0.4741570000000 1.0
C      1  0.4858640000000  0.4309300000000  0.5264010000000 1.0
C      1  0.5144510000000  0.5693140000000  0.5264010000000 1.0
C      1  0.4309650000000  0.5262440000000  0.4859850000000 1.0
C      1  0.5693490000000  0.5262440000000  0.5145730000000 1.0
C      1  0.4309650000000  0.4740000000000  0.5145730000000 1.0
C      1  0.4435730000000  0.4932110000000  0.5183240000000 1.0
C      1  0.5182020000000  0.4435370000000  0.4933680000000 1.0
C      1  0.4932460000000  0.5181660000000  0.4436940000000 1.0
C      1  0.5567420000000  0.5070330000000  0.5183240000000 1.0
C      1  0.5567420000000  0.4932110000000  0.4822340000000 1.0
C      1  0.4435730000000  0.5070330000000  0.4822340000000 1.0
C      1  0.4821130000000  0.5567060000000  0.4933680000000 1.0
C      1  0.4821130000000  0.4435370000000  0.5071900000000 1.0
C      1  0.5182020000000  0.5567060000000  0.5071900000000 1.0
C      1  0.5070680000000  0.4820770000000  0.4436940000000 1.0
C      1  0.5070680000000  0.5181660000000  0.5568630000000 1.0
C      1  0.4932460000000  0.4820770000000  0.5568630000000 1.0
C      1  0.4932460000000  0.4435370000000  0.5183240000000 1.0
C      1  0.4435730000000  0.5181660000000  0.4933680000000 1.0
C      1  0.5182020000000  0.4932110000000  0.4436940000000 1.0
C      1  0.5070680000000  0.5567060000000  0.5183240000000 1.0
C      1  0.4932460000000  0.5567060000000  0.4822340000000 1.0
C      1  0.5070680000000  0.4435370000000  0.4822340000000 1.0
C      1  0.5567420000000  0.4820770000000  0.4933680000000 1.0
C      1  0.4435730000000  0.4820770000000  0.5071900000000 1.0
C      1  0.5567420000000  0.5181660000000  0.5071900000000 1.0
C      1  0.4821130000000  0.5070330000000  0.4436940000000 1.0
C      1  0.5182020000000  0.5070330000000  0.5568630000000 1.0
C      1  0.4821130000000  0.4932110000000  0.5568630000000 1.0
C      1  0.4673450000000  0.5230190000000  0.5727950000000 1.0
C      1  0.5726740000000  0.4673090000000  0.5231770000000 1.0
C      1  0.5230550000000  0.5726380000000  0.4674670000000 1.0
C      1  0.5329690000000  0.4772240000000  0.5727950000000 1.0
C      1  0.5329690000000  0.5230190000000  0.4277620000000 1.0
C      1  0.4673450000000  0.4772240000000  0.4277620000000 1.0
C      1  0.4276410000000  0.5329340000000  0.5231770000000 1.0
C      1  0.4276410000000  0.4673090000000  0.4773810000000 1.0
C      1  0.5726740000000  0.5329340000000  0.4773810000000 1.0
C      1  0.4772600000000  0.4276050000000  0.4674670000000 1.0
C      1  0.4772600000000  0.5726380000000  0.5330910000000 1.0
C      1  0.5230550000000  0.4276050000000  0.5330910000000 1.0
C      1  0.5230550000000  0.4673090000000  0.5727950000000 1.0
C      1  0.4673450000000  0.5726380000000  0.5231770000000 1.0
C      1  0.5726740000000  0.5230190000000  0.4674670000000 1.0
C      1  0.4772600000000  0.5329340000000  0.5727950000000 1.0
C      1  0.5230550000000  0.5329340000000  0.4277620000000 1.0
C      1  0.4772600000000  0.4673090000000  0.4277620000000 1.0
C      1  0.5329690000000  0.4276050000000  0.5231770000000 1.0
C      1  0.4673450000000  0.4276050000000  0.4773810000000 1.0
C      1  0.5329690000000  0.5726380000000  0.4773810000000 1.0
C      1  0.4276410000000  0.4772240000000  0.4674670000000 1.0
C      1  0.5726740000000  0.4772240000000  0.5330910000000 1.0
C      1  0.4276410000000  0.5230190000000  0.5330910000000 1.0
C      1  0.5447850000000  0.4930910000000  0.4743670000000 1.0
C      1  0.4742450000000  0.5447500000000  0.4932480000000 1.0
C      1  0.4931260000000  0.4742100000000  0.5449070000000 1.0
C      1  0.4555290000000  0.5071530000000  0.4743670000000 1.0
C      1  0.4555290000000  0.4930910000000  0.5261910000000 1.0
C      1  0.5447850000000  0.5071530000000  0.5261910000000 1.0
C      1  0.5260690000000  0.4554940000000  0.4932480000000 1.0
C      1  0.5260690000000  0.5447500000000  0.5073100000000 1.0
C      1  0.4742450000000  0.4554940000000  0.5073100000000 1.0
C      1  0.5071880000000  0.5260340000000  0.5449070000000 1.0
C      1  0.5071880000000  0.4742100000000  0.4556510000000 1.0
C      1  0.4931260000000  0.5260340000000  0.4556510000000 1.0
C      1  0.4931260000000  0.5447500000000  0.4743670000000 1.0
C      1  0.5447850000000  0.4742100000000  0.4932480000000 1.0
C      1  0.4742450000000  0.4930910000000  0.5449070000000 1.0
C      1  0.5071880000000  0.4554940000000  0.4743670000000 1.0
C      1  0.4931260000000  0.4554940000000  0.5261910000000 1.0
C      1  0.5071880000000  0.5447500000000  0.5261910000000 1.0
C      1  0.4555290000000  0.5260340000000  0.4932480000000 1.0
C      1  0.5447850000000  0.5260340000000  0.5073100000000 1.0
C      1  0.4555290000000  0.4742100000000  0.5073100000000 1.0
C      1  0.5260690000000  0.5071530000000  0.5449070000000 1.0
C      1  0.4742450000000  0.5071530000000  0.4556510000000 1.0
C      1  0.5260690000000  0.4930910000000  0.4556510000000 1.0
C      1  0.5594100000000  0.4510510000000  0.5394700000000 1.0
C      1  0.5393480000000  0.5593750000000  0.4512080000000 1.0
C      1  0.4510870000000  0.5393130000000  0.5595320000000 1.0
C      1  0.4409040000000  0.5491920000000  0.5394700000000 1.0
C      1  0.4409040000000  0.4510510000000  0.4610880000000 1.0
C      1  0.5594100000000  0.5491920000000  0.4610880000000 1.0
C      1  0.4609660000000  0.4408690000000  0.4512080000000 1.0
C      1  0.4609660000000  0.5593750000000  0.5493490000000 1.0
C      1  0.5393480000000  0.4408690000000  0.5493490000000 1.0
C      1  0.5492280000000  0.4609310000000  0.5595320000000 1.0
C      1  0.5492280000000  0.5393130000000  0.4410260000000 1.0
C      1  0.4510870000000  0.4609310000000  0.4410260000000 1.0
C      1  0.4510870000000  0.5593750000000  0.5394700000000 1.0
C      1  0.5594100000000  0.5393130000000  0.4512080000000 1.0
C      1  0.5393480000000  0.4510510000000  0.5595320000000 1.0
C      1  0.5492280000000  0.4408690000000  0.5394700000000 1.0
C      1  0.4510870000000  0.4408690000000  0.4610880000000 1.0
C      1  0.5492280000000  0.5593750000000  0.4610880000000 1.0
C      1  0.4409040000000  0.4609310000000  0.4512080000000 1.0
C      1  0.5594100000000  0.4609310000000  0.5493490000000 1.0
C      1  0.4409040000000  0.5393130000000  0.5493490000000 1.0
C      1  0.4609660000000  0.5491920000000  0.5595320000000 1.0
C      1  0.5393480000000  0.5491920000000  0.4410260000000 1.0
C      1  0.4609660000000  0.4510510000000  0.4410260000000 1.0
C      1  0.5279590000000  0.5467540000000  0.5578320000000 1.0
C      1  0.5577110000000  0.5279240000000  0.5469110000000 1.0
C      1  0.5467900000000  0.5576750000000  0.5280810000000 1.0
C      1  0.4723550000000  0.4534890000000  0.5578320000000 1.0
C      1  0.4723550000000  0.5467540000000  0.4427250000000 1.0
C      1  0.5279590000000  0.4534890000000  0.4427250000000 1.0
C      1  0.4426040000000  0.4723200000000  0.5469110000000 1.0
C      1  0.4426040000000  0.5279240000000  0.4536460000000 1.0
C      1  0.5577110000000  0.4723200000000  0.4536460000000 1.0
C      1  0.4535250000000  0.4425680000000  0.5280810000000 1.0
C      1  0.4535250000000  0.5576750000000  0.4724770000000 1.0
C      1  0.5467900000000  0.4425680000000  0.4724770000000 1.0
C      1  0.5467900000000  0.5279240000000  0.5578320000000 1.0
C      1  0.5279590000000  0.5576750000000  0.5469110000000 1.0
C      1  0.5577110000000  0.5467540000000  0.5280810000000 1.0
C      1  0.4535250000000  0.4723200000000  0.5578320000000 1.0
C      1  0.5467900000000  0.4723200000000  0.4427250000000 1.0
C      1  0.4535250000000  0.5279240000000  0.4427250000000 1.0
C      1  0.4723550000000  0.4425680000000  0.5469110000000 1.0
C      1  0.5279590000000  0.4425680000000  0.4536460000000 1.0
C      1  0.4723550000000  0.5576750000000  0.4536460000000 1.0
C      1  0.4426040000000  0.4534890000000  0.5280810000000 1.0
C      1  0.5577110000000  0.4534890000000  0.4724770000000 1.0
C      1  0.4426040000000  0.5467540000000  0.4724770000000 1.0
C      1  0.4442860000000  0.4269110000000  0.4985190000000 1.0
C      1  0.4983970000000  0.4442500000000  0.4270680000000 1.0
C      1  0.4269470000000  0.4983610000000  0.4444070000000 1.0
C      1  0.5560290000000  0.5733320000000  0.4985190000000 1.0
C      1  0.5560290000000  0.4269110000000  0.5020390000000 1.0
C      1  0.4442860000000  0.5733320000000  0.5020390000000 1.0
C      1  0.5019170000000  0.5559930000000  0.4270680000000 1.0
C      1  0.5019170000000  0.4442500000000  0.5734890000000 1.0
C      1  0.4983970000000  0.5559930000000  0.5734890000000 1.0
C      1  0.5733680000000  0.5018820000000  0.4444070000000 1.0
C      1  0.5733680000000  0.4983610000000  0.5561500000000 1.0
C      1  0.4269470000000  0.5018820000000  0.5561500000000 1.0
C      1  0.4269470000000  0.4442500000000  0.4985190000000 1.0
C      1  0.4442860000000  0.4983610000000  0.4270680000000 1.0
C      1  0.4983970000000  0.4269110000000  0.4444070000000 1.0
C      1  0.5733680000000  0.5559930000000  0.4985190000000 1.0
C      1  0.4269470000000  0.5559930000000  0.5020390000000 1.0
C      1  0.5733680000000  0.4442500000000  0.5020390000000 1.0
C      1  0.5560290000000  0.5018820000000  0.4270680000000 1.0
C      1  0.4442860000000  0.5018820000000  0.5734890000000 1.0
C      1  0.5560290000000  0.4983610000000  0.5734890000000 1.0
C      1  0.5019170000000  0.5733320000000  0.4444070000000 1.0
C      1  0.4983970000000  0.5733320000000  0.5561500000000 1.0
C      1  0.5019170000000  0.4269110000000  0.5561500000000 1.0
C      1  0.5105540000000  0.4155000000000  0.4999890000000 1.0
C      1  0.4998680000000  0.5105190000000  0.4156570000000 1.0
C      1  0.4155360000000  0.4998320000000  0.5106760000000 1.0
C      1  0.4897600000000  0.5847430000000  0.4999890000000 1.0
C      1  0.4897600000000  0.4155000000000  0.5005690000000 1.0
C      1  0.5105540000000  0.5847430000000  0.5005690000000 1.0
C      1  0.5004470000000  0.4897240000000  0.4156570000000 1.0
C      1  0.5004470000000  0.5105190000000  0.5849000000000 1.0
C      1  0.4998680000000  0.4897240000000  0.5849000000000 1.0
C      1  0.5847790000000  0.5004110000000  0.5106760000000 1.0
C      1  0.5847790000000  0.4998320000000  0.4898820000000 1.0
C      1  0.4155360000000  0.5004110000000  0.4898820000000 1.0
C      1  0.4155360000000  0.5105190000000  0.4999890000000 1.0
C      1  0.5105540000000  0.4998320000000  0.4156570000000 1.0
C      1  0.4998680000000  0.4155000000000  0.5106760000000 1.0
C      1  0.5847790000000  0.4897240000000  0.4999890000000 1.0
C      1  0.4155360000000  0.4897240000000  0.5005690000000 1.0
C      1  0.5847790000000  0.5105190000000  0.5005690000000 1.0
C      1  0.4897600000000  0.5004110000000  0.4156570000000 1.0
C      1  0.5105540000000  0.5004110000000  0.5849000000000 1.0
C      1  0.4897600000000  0.4998320000000  0.5849000000000 1.0
C      1  0.5004470000000  0.5847430000000  0.5106760000000 1.0
C      1  0.4998680000000  0.5847430000000  0.4898820000000 1.0
C      1  0.5004470000000  0.4155000000000  0.4898820000000 1.0
C      1  0.5189920000000  0.4620020000000  0.4718630000000 1.0
C      1  0.4717410000000  0.5189560000000  0.4621600000000 1.0
C      1  0.4620380000000  0.4717050000000  0.5191130000000 1.0
C      1  0.4813230000000  0.5382410000000  0.4718630000000 1.0
C      1  0.4813230000000  0.4620020000000  0.5286950000000 1.0
C      1  0.5189920000000  0.5382410000000  0.5286950000000 1.0
C      1  0.5285730000000  0.4812870000000  0.4621600000000 1.0
C      1  0.5285730000000  0.5189560000000  0.5383980000000 1.0
C      1  0.4717410000000  0.4812870000000  0.5383980000000 1.0
C      1  0.5382760000000  0.5285380000000  0.5191130000000 1.0
C      1  0.5382760000000  0.4717050000000  0.4814440000000 1.0
C      1  0.4620380000000  0.5285380000000  0.4814440000000 1.0
C      1  0.4620380000000  0.5189560000000  0.4718630000000 1.0
C      1  0.5189920000000  0.4717050000000  0.4621600000000 1.0
C      1  0.4717410000000  0.4620020000000  0.5191130000000 1.0
C      1  0.5382760000000  0.4812870000000  0.4718630000000 1.0
C      1  0.4620380000000  0.4812870000000  0.5286950000000 1.0
C      1  0.5382760000000  0.5189560000000  0.5286950000000 1.0
C      1  0.4813230000000  0.5285380000000  0.4621600000000 1.0
C      1  0.5189920000000  0.5285380000000  0.5383980000000 1.0
C      1  0.4813230000000  0.4717050000000  0.5383980000000 1.0
C      1  0.5285730000000  0.5382410000000  0.5191130000000 1.0
C      1  0.4717410000000  0.5382410000000  0.4814440000000 1.0
C      1  0.5285730000000  0.4620020000000  0.4814440000000 1.0
C      1  0.4195770000000  0.4387970000000  0.4894340000000 1.0
C      1  0.4893120000000  0.4195410000000  0.4389540000000 1.0
C      1  0.4388330000000  0.4892770000000  0.4196980000000 1.0
C      1  0.5807380000000  0.5614460000000  0.4894340000000 1.0
C      1  0.5807380000000  0.4387970000000  0.5111240000000 1.0
C      1  0.4195770000000  0.5614460000000  0.5111240000000 1.0
C      1  0.5110020000000  0.5807020000000  0.4389540000000 1.0
C      1  0.5110020000000  0.4195410000000  0.5616030000000 1.0
C      1  0.4893120000000  0.5807020000000  0.5616030000000 1.0
C      1  0.5614820000000  0.5109660000000  0.4196980000000 1.0
C      1  0.5614820000000  0.4892770000000  0.5808590000000 1.0
C      1  0.4388330000000  0.5109660000000  0.5808590000000 1.0
C      1  0.4388330000000  0.4195410000000  0.4894340000000 1.0
C      1  0.4195770000000  0.4892770000000  0.4389540000000 1.0
C      1  0.4893120000000  0.4387970000000  0.4196980000000 1.0
C      1  0.5614820000000  0.5807020000000  0.4894340000000 1.0
C      1  0.4388330000000  0.5807020000000  0.5111240000000 1.0
C      1  0.5614820000000  0.4195410000000  0.5111240000000 1.0
C      1  0.5807380000000  0.5109660000000  0.4389540000000 1.0
C      1  0.4195770000000  0.5109660000000  0.5616030000000 1.0
C      1  0.5807380000000  0.4892770000000  0.5616030000000 1.0
C      1  0.5110020000000  0.5614460000000  0.4196980000000 1.0
C      1  0.4893120000000  0.5614460000000  0.5808590000000 1.0
C      1  0.5110020000000  0.4387970000000  0.5808590000000 1.0
C      1  0.4834580000000  0.4351540000000  0.5417620000000 1.0
C      1  0.5416410000000  0.4834220000000  0.4353110000000 1.0
C      1  0.4351890000000  0.5416050000000  0.4835800000000 1.0
C      1  0.5168560000000  0.5650900000000  0.5417620000000 1.0
C      1  0.5168560000000  0.4351540000000  0.4587950000000 1.0
C      1  0.4834580000000  0.5650900000000  0.4587950000000 1.0
C      1  0.4586740000000  0.5168210000000  0.4353110000000 1.0
C      1  0.4586740000000  0.4834220000000  0.5652470000000 1.0
C      1  0.5416410000000  0.5168210000000  0.5652470000000 1.0
C      1  0.5651250000000  0.4586380000000  0.4835800000000 1.0
C      1  0.5651250000000  0.5416050000000  0.5169780000000 1.0
C      1  0.4351890000000  0.4586380000000  0.5169780000000 1.0
C      1  0.4351890000000  0.4834220000000  0.5417620000000 1.0
C      1  0.4834580000000  0.5416050000000  0.4353110000000 1.0
C      1  0.5416410000000  0.4351540000000  0.4835800000000 1.0
C      1  0.5651250000000  0.5168210000000  0.5417620000000 1.0
C      1  0.4351890000000  0.5168210000000  0.4587950000000 1.0
C      1  0.5651250000000  0.4834220000000  0.4587950000000 1.0
C      1  0.5168560000000  0.4586380000000  0.4353110000000 1.0
C      1  0.4834580000000  0.4586380000000  0.5652470000000 1.0
C      1  0.5168560000000  0.5416050000000  0.5652470000000 1.0
C      1  0.4586740000000  0.5650900000000  0.4835800000000 1.0
C      1  0.5416410000000  0.5650900000000  0.5169780000000 1.0
C      1  0.4586740000000  0.4351540000000  0.5169780000000 1.0
C      1  0.4732930000000  0.4843260000000  0.4523710000000 1.0
C      1  0.4522500000000  0.4732570000000  0.4844830000000 1.0
C      1  0.4843610000000  0.4522140000000  0.4734140000000 1.0
C      1  0.5270220000000  0.5159180000000  0.4523710000000 1.0
C      1  0.5270220000000  0.4843260000000  0.5481860000000 1.0
C      1  0.4732930000000  0.5159180000000  0.5481860000000 1.0
C      1  0.5480650000000  0.5269860000000  0.4844830000000 1.0
C      1  0.5480650000000  0.4732570000000  0.5160750000000 1.0
C      1  0.4522500000000  0.5269860000000  0.5160750000000 1.0
C      1  0.5159530000000  0.5480290000000  0.4734140000000 1.0
C      1  0.5159530000000  0.4522140000000  0.5271430000000 1.0
C      1  0.4843610000000  0.5480290000000  0.5271430000000 1.0
C      1  0.4843610000000  0.4732570000000  0.4523710000000 1.0
C      1  0.4732930000000  0.4522140000000  0.4844830000000 1.0
C      1  0.4522500000000  0.4843260000000  0.4734140000000 1.0
C      1  0.5159530000000  0.5269860000000  0.4523710000000 1.0
C      1  0.4843610000000  0.5269860000000  0.5481860000000 1.0
C      1  0.5159530000000  0.4732570000000  0.5481860000000 1.0
C      1  0.5270220000000  0.5480290000000  0.4844830000000 1.0
C      1  0.4732930000000  0.5480290000000  0.5160750000000 1.0
C      1  0.5270220000000  0.4522140000000  0.5160750000000 1.0
C      1  0.5480650000000  0.5159180000000  0.4734140000000 1.0
C      1  0.4522500000000  0.5159180000000  0.5271430000000 1.0
C      1  0.5480650000000  0.4843260000000  0.5271430000000 1.0
C      1  0.4593270000000  0.5409520000000  0.4430050000000 1.0
C      1  0.4593270000000  0.4428480000000  0.5411090000000 1.0
C      1  0.5574310000000  0.4592920000000  0.4594490000000 1.0
C      1  0.4593270000000  0.5573950000000  0.4594490000000 1.0
C      1  0.4593270000000  0.4592920000000  0.5575530000000 1.0
C      1  0.4428830000000  0.5409520000000  0.4594490000000 1.0
C      1  0.4428830000000  0.4592920000000  0.5411090000000 1.0
C      1  0.5409870000000  0.4428480000000  0.4594490000000 1.0
C      1  0.5409870000000  0.5409520000000  0.5575530000000 1.0
C      1  0.5409870000000  0.4592920000000  0.4430050000000 1.0
C      1  0.5574310000000  0.5409520000000  0.5411090000000 1.0
C      1  0.5409870000000  0.5573950000000  0.5411090000000 1.0
C      1  0.5483680000000  0.5483320000000  0.5484890000000 1.0
C      1  0.4519470000000  0.4519110000000  0.5484890000000 1.0
C      1  0.4519470000000  0.5483320000000  0.4520680000000 1.0
C      1  0.5483680000000  0.4519110000000  0.4520680000000 1.0
END
