TITL C-1892073-1155-88 8.21175530796701e-07 1000000 -3824.22552811588 0 0 560 (Th) n - 1
REM
REM in /nfs/bkarasulu/CARBON/AIRSS/Generating-Clusters/GAP-ML-2020/Higher-Symm/Selected-Sizes/TryA-Only_Ih-Symm/Larger-Clusters
REM
REM
REM
REM
REM
REM ./C.cell (2cf5181f0f1d4d5b12b972d32ad12063)
REM
REM compiler GCC version 9.2.1 20190827 (Red Hat 9.2.1-1)
REM options -cpp -mtune=generic -march=x86-64 -g -O0 -fpre-include=/usr/include/finclude/math-vector-fortran.h
REM seed 1448414089 -610789682 -1766849752 -1081277764 1279379556 1432381921 -1632885236 -708448611 1653580945 -1047296540 1545514396 1052599777 1044303574 205289674 416974206 -730126374 -1657036072 930267834 -2018738840 -1262292916 -1661653413 -1863311487 512245984 813457414 -1521393157 -1690870943 47748713 -1597078644 108412676 876017079 732289976 -1546917914 2136647296
REM
CELL 1.54180  100.00000  100.00000  100.00000   90.00000   90.00000   90.00000
LATT -1
SFAC C  
C      1  0.5071220000000  0.5402580000000  0.5369670000000 1.0
C      1  0.5368130000000  0.5071440000000  0.5403890000000 1.0
C      1  0.5402360000000  0.5368350000000  0.5072750000000 1.0
C      1  0.5071220000000  0.4594350000000  0.4629890000000 1.0
C      1  0.4925270000000  0.4594350000000  0.5369670000000 1.0
C      1  0.4925270000000  0.5402580000000  0.4629890000000 1.0
C      1  0.5368130000000  0.4925490000000  0.4595670000000 1.0
C      1  0.4628360000000  0.4925490000000  0.5403890000000 1.0
C      1  0.4628360000000  0.5071440000000  0.4595670000000 1.0
C      1  0.5402360000000  0.4628580000000  0.4926810000000 1.0
C      1  0.4594130000000  0.4628580000000  0.5072750000000 1.0
C      1  0.4594130000000  0.5368350000000  0.4926810000000 1.0
C      1  0.4925270000000  0.5402580000000  0.5369670000000 1.0
C      1  0.4628360000000  0.5071440000000  0.5403890000000 1.0
C      1  0.4594130000000  0.5368350000000  0.5072750000000 1.0
C      1  0.4925270000000  0.4594350000000  0.4629890000000 1.0
C      1  0.5071220000000  0.4594350000000  0.5369670000000 1.0
C      1  0.5071220000000  0.5402580000000  0.4629890000000 1.0
C      1  0.4628360000000  0.4925490000000  0.4595670000000 1.0
C      1  0.5368130000000  0.4925490000000  0.5403890000000 1.0
C      1  0.5368130000000  0.5071440000000  0.4595670000000 1.0
C      1  0.4594130000000  0.4628580000000  0.4926810000000 1.0
C      1  0.5402360000000  0.4628580000000  0.5072750000000 1.0
C      1  0.5402360000000  0.5368350000000  0.4926810000000 1.0
C      1  0.4216040000000  0.5138490000000  0.5356790000000 1.0
C      1  0.5355260000000  0.4216260000000  0.5139800000000 1.0
C      1  0.5138270000000  0.5355480000000  0.4217570000000 1.0
C      1  0.4216040000000  0.4858440000000  0.4642770000000 1.0
C      1  0.5780450000000  0.4858440000000  0.5356790000000 1.0
C      1  0.5780450000000  0.5138490000000  0.4642770000000 1.0
C      1  0.5355260000000  0.5780670000000  0.4859750000000 1.0
C      1  0.4641230000000  0.5780670000000  0.5139800000000 1.0
C      1  0.4641230000000  0.4216260000000  0.4859750000000 1.0
C      1  0.5138270000000  0.4641450000000  0.5781990000000 1.0
C      1  0.4858220000000  0.4641450000000  0.4217570000000 1.0
C      1  0.4858220000000  0.5355480000000  0.5781990000000 1.0
C      1  0.5780450000000  0.5138490000000  0.5356790000000 1.0
C      1  0.4641230000000  0.4216260000000  0.5139800000000 1.0
C      1  0.4858220000000  0.5355480000000  0.4217570000000 1.0
C      1  0.5780450000000  0.4858440000000  0.4642770000000 1.0
C      1  0.4216040000000  0.4858440000000  0.5356790000000 1.0
C      1  0.4216040000000  0.5138490000000  0.4642770000000 1.0
C      1  0.4641230000000  0.5780670000000  0.4859750000000 1.0
C      1  0.5355260000000  0.5780670000000  0.5139800000000 1.0
C      1  0.5355260000000  0.4216260000000  0.4859750000000 1.0
C      1  0.4858220000000  0.4641450000000  0.5781990000000 1.0
C      1  0.5138270000000  0.4641450000000  0.4217570000000 1.0
C      1  0.5138270000000  0.5355480000000  0.5781990000000 1.0
C      1  0.4868490000000  0.5773610000000  0.4842630000000 1.0
C      1  0.4841100000000  0.4868710000000  0.5774930000000 1.0
C      1  0.5773390000000  0.4841320000000  0.4870030000000 1.0
C      1  0.4868490000000  0.4223320000000  0.5156930000000 1.0
C      1  0.5128000000000  0.4223320000000  0.4842630000000 1.0
C      1  0.5128000000000  0.5773610000000  0.5156930000000 1.0
C      1  0.4841100000000  0.5128220000000  0.4224630000000 1.0
C      1  0.5155400000000  0.5128220000000  0.5774930000000 1.0
C      1  0.5155400000000  0.4868710000000  0.4224630000000 1.0
C      1  0.5773390000000  0.5155620000000  0.5129530000000 1.0
C      1  0.4223100000000  0.5155620000000  0.4870030000000 1.0
C      1  0.4223100000000  0.4841320000000  0.5129530000000 1.0
C      1  0.5128000000000  0.5773610000000  0.4842630000000 1.0
C      1  0.5155400000000  0.4868710000000  0.5774930000000 1.0
C      1  0.4223100000000  0.4841320000000  0.4870030000000 1.0
C      1  0.5128000000000  0.4223320000000  0.5156930000000 1.0
C      1  0.4868490000000  0.4223320000000  0.4842630000000 1.0
C      1  0.4868490000000  0.5773610000000  0.5156930000000 1.0
C      1  0.5155400000000  0.5128220000000  0.4224630000000 1.0
C      1  0.4841100000000  0.5128220000000  0.5774930000000 1.0
C      1  0.4841100000000  0.4868710000000  0.4224630000000 1.0
C      1  0.4223100000000  0.5155620000000  0.5129530000000 1.0
C      1  0.5773390000000  0.5155620000000  0.4870030000000 1.0
C      1  0.5773390000000  0.4841320000000  0.5129530000000 1.0
C      1  0.4710650000000  0.5148950000000  0.4475470000000 1.0
C      1  0.4473930000000  0.4710870000000  0.5150260000000 1.0
C      1  0.5148730000000  0.4474150000000  0.4712190000000 1.0
C      1  0.4710650000000  0.4847980000000  0.5524090000000 1.0
C      1  0.5285840000000  0.4847980000000  0.4475470000000 1.0
C      1  0.5285840000000  0.5148950000000  0.5524090000000 1.0
C      1  0.4473930000000  0.5286060000000  0.4849300000000 1.0
C      1  0.5522560000000  0.5286060000000  0.5150260000000 1.0
C      1  0.5522560000000  0.4710870000000  0.4849300000000 1.0
C      1  0.5148730000000  0.5522780000000  0.5287370000000 1.0
C      1  0.4847760000000  0.5522780000000  0.4712190000000 1.0
C      1  0.4847760000000  0.4474150000000  0.5287370000000 1.0
C      1  0.5285840000000  0.5148950000000  0.4475470000000 1.0
C      1  0.5522560000000  0.4710870000000  0.5150260000000 1.0
C      1  0.4847760000000  0.4474150000000  0.4712190000000 1.0
C      1  0.5285840000000  0.4847980000000  0.5524090000000 1.0
C      1  0.4710650000000  0.4847980000000  0.4475470000000 1.0
C      1  0.4710650000000  0.5148950000000  0.5524090000000 1.0
C      1  0.5522560000000  0.5286060000000  0.4849300000000 1.0
C      1  0.4473930000000  0.5286060000000  0.5150260000000 1.0
C      1  0.4473930000000  0.4710870000000  0.4849300000000 1.0
C      1  0.4847760000000  0.5522780000000  0.5287370000000 1.0
C      1  0.5148730000000  0.5522780000000  0.4712190000000 1.0
C      1  0.5148730000000  0.4474150000000  0.5287370000000 1.0
C      1  0.5247950000000  0.4394210000000  0.5574940000000 1.0
C      1  0.5573410000000  0.5248170000000  0.4395520000000 1.0
C      1  0.4393990000000  0.5573630000000  0.5249490000000 1.0
C      1  0.5247950000000  0.5602720000000  0.4424620000000 1.0
C      1  0.4748540000000  0.5602720000000  0.5574940000000 1.0
C      1  0.4748540000000  0.4394210000000  0.4424620000000 1.0
C      1  0.5573410000000  0.4748760000000  0.5604040000000 1.0
C      1  0.4423080000000  0.4748760000000  0.4395520000000 1.0
C      1  0.4423080000000  0.5248170000000  0.5604040000000 1.0
C      1  0.4393990000000  0.4423300000000  0.4750070000000 1.0
C      1  0.5602500000000  0.4423300000000  0.5249490000000 1.0
C      1  0.5602500000000  0.5573630000000  0.4750070000000 1.0
C      1  0.4748540000000  0.4394210000000  0.5574940000000 1.0
C      1  0.4423080000000  0.5248170000000  0.4395520000000 1.0
C      1  0.5602500000000  0.5573630000000  0.5249490000000 1.0
C      1  0.4748540000000  0.5602720000000  0.4424620000000 1.0
C      1  0.5247950000000  0.5602720000000  0.5574940000000 1.0
C      1  0.5247950000000  0.4394210000000  0.4424620000000 1.0
C      1  0.4423080000000  0.4748760000000  0.5604040000000 1.0
C      1  0.5573410000000  0.4748760000000  0.4395520000000 1.0
C      1  0.5573410000000  0.5248170000000  0.5604040000000 1.0
C      1  0.5602500000000  0.4423300000000  0.4750070000000 1.0
C      1  0.4393990000000  0.4423300000000  0.5249490000000 1.0
C      1  0.4393990000000  0.5573630000000  0.4750070000000 1.0
C      1  0.5546960000000  0.4923500000000  0.4837250000000 1.0
C      1  0.4835710000000  0.5547180000000  0.4924810000000 1.0
C      1  0.4923280000000  0.4835930000000  0.5548490000000 1.0
C      1  0.5546960000000  0.5073430000000  0.5162310000000 1.0
C      1  0.4449530000000  0.5073430000000  0.4837250000000 1.0
C      1  0.4449530000000  0.4923500000000  0.5162310000000 1.0
C      1  0.4835710000000  0.4449750000000  0.5074740000000 1.0
C      1  0.5160780000000  0.4449750000000  0.4924810000000 1.0
C      1  0.5160780000000  0.5547180000000  0.5074740000000 1.0
C      1  0.4923280000000  0.5161000000000  0.4451070000000 1.0
C      1  0.5073210000000  0.5161000000000  0.5548490000000 1.0
C      1  0.5073210000000  0.4835930000000  0.4451070000000 1.0
C      1  0.4449530000000  0.4923500000000  0.4837250000000 1.0
C      1  0.5160780000000  0.5547180000000  0.4924810000000 1.0
C      1  0.5073210000000  0.4835930000000  0.5548490000000 1.0
C      1  0.4449530000000  0.5073430000000  0.5162310000000 1.0
C      1  0.5546960000000  0.5073430000000  0.4837250000000 1.0
C      1  0.5546960000000  0.4923500000000  0.5162310000000 1.0
C      1  0.5160780000000  0.4449750000000  0.5074740000000 1.0
C      1  0.4835710000000  0.4449750000000  0.4924810000000 1.0
C      1  0.4835710000000  0.5547180000000  0.5074740000000 1.0
C      1  0.5073210000000  0.5161000000000  0.4451070000000 1.0
C      1  0.4923280000000  0.5161000000000  0.5548490000000 1.0
C      1  0.4923280000000  0.4835930000000  0.4451070000000 1.0
C      1  0.4921860000000  0.4924040000000  0.4324500000000 1.0
C      1  0.4322960000000  0.4922080000000  0.4925360000000 1.0
C      1  0.4923820000000  0.4323180000000  0.4923400000000 1.0
C      1  0.4921860000000  0.5072890000000  0.5675060000000 1.0
C      1  0.5074630000000  0.5072890000000  0.4324500000000 1.0
C      1  0.5074630000000  0.4924040000000  0.5675060000000 1.0
C      1  0.4322960000000  0.5074850000000  0.5074200000000 1.0
C      1  0.5673530000000  0.5074850000000  0.4925360000000 1.0
C      1  0.5673530000000  0.4922080000000  0.5074200000000 1.0
C      1  0.4923820000000  0.5673750000000  0.5076160000000 1.0
C      1  0.5072670000000  0.5673750000000  0.4923400000000 1.0
C      1  0.5072670000000  0.4323180000000  0.5076160000000 1.0
C      1  0.5074630000000  0.4924040000000  0.4324500000000 1.0
C      1  0.5673530000000  0.4922080000000  0.4925360000000 1.0
C      1  0.5072670000000  0.4323180000000  0.4923400000000 1.0
C      1  0.5074630000000  0.5072890000000  0.5675060000000 1.0
C      1  0.4921860000000  0.5072890000000  0.4324500000000 1.0
C      1  0.4921860000000  0.4924040000000  0.5675060000000 1.0
C      1  0.5673530000000  0.5074850000000  0.5074200000000 1.0
C      1  0.4322960000000  0.5074850000000  0.4925360000000 1.0
C      1  0.4322960000000  0.4922080000000  0.5074200000000 1.0
C      1  0.5072670000000  0.5673750000000  0.5076160000000 1.0
C      1  0.4923820000000  0.5673750000000  0.4923400000000 1.0
C      1  0.4923820000000  0.4323180000000  0.5076160000000 1.0
C      1  0.4911440000000  0.5273850000000  0.5285770000000 1.0
C      1  0.5284240000000  0.4911660000000  0.5275160000000 1.0
C      1  0.5273630000000  0.5284460000000  0.4912970000000 1.0
C      1  0.4911440000000  0.4723090000000  0.4713790000000 1.0
C      1  0.5085050000000  0.4723090000000  0.5285770000000 1.0
C      1  0.5085050000000  0.5273850000000  0.4713790000000 1.0
C      1  0.5284240000000  0.5085280000000  0.4724400000000 1.0
C      1  0.4712250000000  0.5085280000000  0.5275160000000 1.0
C      1  0.4712250000000  0.4911660000000  0.4724400000000 1.0
C      1  0.5273630000000  0.4712470000000  0.5086590000000 1.0
C      1  0.4722860000000  0.4712470000000  0.4912970000000 1.0
C      1  0.4722860000000  0.5284460000000  0.5086590000000 1.0
C      1  0.5085050000000  0.5273850000000  0.5285770000000 1.0
C      1  0.4712250000000  0.4911660000000  0.5275160000000 1.0
C      1  0.4722860000000  0.5284460000000  0.4912970000000 1.0
C      1  0.5085050000000  0.4723090000000  0.4713790000000 1.0
C      1  0.4911440000000  0.4723090000000  0.5285770000000 1.0
C      1  0.4911440000000  0.5273850000000  0.4713790000000 1.0
C      1  0.4712250000000  0.5085280000000  0.4724400000000 1.0
C      1  0.5284240000000  0.5085280000000  0.5275160000000 1.0
C      1  0.5284240000000  0.4911660000000  0.4724400000000 1.0
C      1  0.4722860000000  0.4712470000000  0.5086590000000 1.0
C      1  0.5273630000000  0.4712470000000  0.4912970000000 1.0
C      1  0.5273630000000  0.5284460000000  0.5086590000000 1.0
C      1  0.5471580000000  0.4637590000000  0.5563640000000 1.0
C      1  0.5562110000000  0.5471800000000  0.4638910000000 1.0
C      1  0.4637370000000  0.5562330000000  0.5473120000000 1.0
C      1  0.5471580000000  0.5359340000000  0.4435920000000 1.0
C      1  0.4524910000000  0.5359340000000  0.5563640000000 1.0
C      1  0.4524910000000  0.4637590000000  0.4435920000000 1.0
C      1  0.5562110000000  0.4525130000000  0.5360650000000 1.0
C      1  0.4434380000000  0.4525130000000  0.4638910000000 1.0
C      1  0.4434380000000  0.5471800000000  0.5360650000000 1.0
C      1  0.4637370000000  0.4434610000000  0.4526440000000 1.0
C      1  0.5359120000000  0.4434610000000  0.5473120000000 1.0
C      1  0.5359120000000  0.5562330000000  0.4526440000000 1.0
C      1  0.4524910000000  0.4637590000000  0.5563640000000 1.0
C      1  0.4434380000000  0.5471800000000  0.4638910000000 1.0
C      1  0.5359120000000  0.5562330000000  0.5473120000000 1.0
C      1  0.4524910000000  0.5359340000000  0.4435920000000 1.0
C      1  0.5471580000000  0.5359340000000  0.5563640000000 1.0
C      1  0.5471580000000  0.4637590000000  0.4435920000000 1.0
C      1  0.4434380000000  0.4525130000000  0.5360650000000 1.0
C      1  0.5562110000000  0.4525130000000  0.4638910000000 1.0
C      1  0.5562110000000  0.5471800000000  0.5360650000000 1.0
C      1  0.5359120000000  0.4434610000000  0.4526440000000 1.0
C      1  0.4637370000000  0.4434610000000  0.5473120000000 1.0
C      1  0.4637370000000  0.5562330000000  0.4526440000000 1.0
C      1  0.4686690000000  0.5145190000000  0.5134300000000 1.0
C      1  0.5132760000000  0.4686910000000  0.5146500000000 1.0
C      1  0.5144970000000  0.5132990000000  0.4688230000000 1.0
C      1  0.4686690000000  0.4851740000000  0.4865260000000 1.0
C      1  0.5309800000000  0.4851740000000  0.5134300000000 1.0
C      1  0.5309800000000  0.5145190000000  0.4865260000000 1.0
C      1  0.5132760000000  0.5310020000000  0.4853050000000 1.0
C      1  0.4863730000000  0.5310020000000  0.5146500000000 1.0
C      1  0.4863730000000  0.4686910000000  0.4853050000000 1.0
C      1  0.5144970000000  0.4863950000000  0.5311330000000 1.0
C      1  0.4851520000000  0.4863950000000  0.4688230000000 1.0
C      1  0.4851520000000  0.5132990000000  0.5311330000000 1.0
C      1  0.5309800000000  0.5145190000000  0.5134300000000 1.0
C      1  0.4863730000000  0.4686910000000  0.5146500000000 1.0
C      1  0.4851520000000  0.5132990000000  0.4688230000000 1.0
C      1  0.5309800000000  0.4851740000000  0.4865260000000 1.0
C      1  0.4686690000000  0.4851740000000  0.5134300000000 1.0
C      1  0.4686690000000  0.5145190000000  0.4865260000000 1.0
C      1  0.4863730000000  0.5310020000000  0.4853050000000 1.0
C      1  0.5132760000000  0.5310020000000  0.5146500000000 1.0
C      1  0.5132760000000  0.4686910000000  0.4853050000000 1.0
C      1  0.4851520000000  0.4863950000000  0.5311330000000 1.0
C      1  0.5144970000000  0.4863950000000  0.4688230000000 1.0
C      1  0.5144970000000  0.5132990000000  0.5311330000000 1.0
C      1  0.5426170000000  0.5070910000000  0.4269070000000 1.0
C      1  0.4267530000000  0.5426390000000  0.5072220000000 1.0
C      1  0.5070680000000  0.4267750000000  0.5427710000000 1.0
C      1  0.5426170000000  0.4926030000000  0.5730490000000 1.0
C      1  0.4570320000000  0.4926030000000  0.4269070000000 1.0
C      1  0.4570320000000  0.5070910000000  0.5730490000000 1.0
C      1  0.4267530000000  0.4570540000000  0.4927340000000 1.0
C      1  0.5728960000000  0.4570540000000  0.5072220000000 1.0
C      1  0.5728960000000  0.5426390000000  0.4927340000000 1.0
C      1  0.5070680000000  0.5729180000000  0.4571850000000 1.0
C      1  0.4925810000000  0.5729180000000  0.5427710000000 1.0
C      1  0.4925810000000  0.4267750000000  0.4571850000000 1.0
C      1  0.4570320000000  0.5070910000000  0.4269070000000 1.0
C      1  0.5728960000000  0.5426390000000  0.5072220000000 1.0
C      1  0.4925810000000  0.4267750000000  0.5427710000000 1.0
C      1  0.4570320000000  0.4926030000000  0.5730490000000 1.0
C      1  0.5426170000000  0.4926030000000  0.4269070000000 1.0
C      1  0.5426170000000  0.5070910000000  0.5730490000000 1.0
C      1  0.5728960000000  0.4570540000000  0.4927340000000 1.0
C      1  0.4267530000000  0.4570540000000  0.5072220000000 1.0
C      1  0.4267530000000  0.5426390000000  0.4927340000000 1.0
C      1  0.4925810000000  0.5729180000000  0.4571850000000 1.0
C      1  0.5070680000000  0.5729180000000  0.5427710000000 1.0
C      1  0.5070680000000  0.4267750000000  0.4571850000000 1.0
C      1  0.4921870000000  0.5190650000000  0.4922070000000 1.0
C      1  0.4920540000000  0.4922090000000  0.5191960000000 1.0
C      1  0.5190430000000  0.4920760000000  0.4923410000000 1.0
C      1  0.4921870000000  0.4806280000000  0.5077490000000 1.0
C      1  0.5074620000000  0.4806280000000  0.4922070000000 1.0
C      1  0.5074620000000  0.5190650000000  0.5077490000000 1.0
C      1  0.4920540000000  0.5074840000000  0.4807600000000 1.0
C      1  0.5075950000000  0.5074840000000  0.5191960000000 1.0
C      1  0.5075950000000  0.4922090000000  0.4807600000000 1.0
C      1  0.5190430000000  0.5076170000000  0.5076150000000 1.0
C      1  0.4806060000000  0.5076170000000  0.4923410000000 1.0
C      1  0.4806060000000  0.4920760000000  0.5076150000000 1.0
C      1  0.5074620000000  0.5190650000000  0.4922070000000 1.0
C      1  0.5075950000000  0.4922090000000  0.5191960000000 1.0
C      1  0.4806060000000  0.4920760000000  0.4923410000000 1.0
C      1  0.5074620000000  0.4806280000000  0.5077490000000 1.0
C      1  0.4921870000000  0.4806280000000  0.4922070000000 1.0
C      1  0.4921870000000  0.5190650000000  0.5077490000000 1.0
C      1  0.5075950000000  0.5074840000000  0.4807600000000 1.0
C      1  0.4920540000000  0.5074840000000  0.5191960000000 1.0
C      1  0.4920540000000  0.4922090000000  0.4807600000000 1.0
C      1  0.4806060000000  0.5076170000000  0.5076150000000 1.0
C      1  0.5190430000000  0.5076170000000  0.4923410000000 1.0
C      1  0.5190430000000  0.4920760000000  0.5076150000000 1.0
C      1  0.5163080000000  0.5399310000000  0.4512940000000 1.0
C      1  0.4511400000000  0.5163300000000  0.5400620000000 1.0
C      1  0.5399090000000  0.4511620000000  0.5164610000000 1.0
C      1  0.5163080000000  0.4597620000000  0.5486620000000 1.0
C      1  0.4833410000000  0.4597620000000  0.4512940000000 1.0
C      1  0.4833410000000  0.5399310000000  0.5486620000000 1.0
C      1  0.4511400000000  0.4833630000000  0.4598940000000 1.0
C      1  0.5485090000000  0.4833630000000  0.5400620000000 1.0
C      1  0.5485090000000  0.5163300000000  0.4598940000000 1.0
C      1  0.5399090000000  0.5485310000000  0.4834940000000 1.0
C      1  0.4597400000000  0.5485310000000  0.5164610000000 1.0
C      1  0.4597400000000  0.4511620000000  0.4834940000000 1.0
C      1  0.4833410000000  0.5399310000000  0.4512940000000 1.0
C      1  0.5485090000000  0.5163300000000  0.5400620000000 1.0
C      1  0.4597400000000  0.4511620000000  0.5164610000000 1.0
C      1  0.4833410000000  0.4597620000000  0.5486620000000 1.0
C      1  0.5163080000000  0.4597620000000  0.4512940000000 1.0
C      1  0.5163080000000  0.5399310000000  0.5486620000000 1.0
C      1  0.5485090000000  0.4833630000000  0.4598940000000 1.0
C      1  0.4511400000000  0.4833630000000  0.5400620000000 1.0
C      1  0.4511400000000  0.5163300000000  0.4598940000000 1.0
C      1  0.4597400000000  0.5485310000000  0.4834940000000 1.0
C      1  0.5399090000000  0.5485310000000  0.5164610000000 1.0
C      1  0.5399090000000  0.4511620000000  0.4834940000000 1.0
C      1  0.4851690000000  0.4920290000000  0.5449250000000 1.0
C      1  0.5447710000000  0.4851910000000  0.4921600000000 1.0
C      1  0.4920070000000  0.5447940000000  0.4853220000000 1.0
C      1  0.4851690000000  0.5076640000000  0.4550310000000 1.0
C      1  0.5144800000000  0.5076640000000  0.5449250000000 1.0
C      1  0.5144800000000  0.4920290000000  0.4550310000000 1.0
C      1  0.5447710000000  0.5145020000000  0.5077960000000 1.0
C      1  0.4548780000000  0.5145020000000  0.4921600000000 1.0
C      1  0.4548780000000  0.4851910000000  0.5077960000000 1.0
C      1  0.4920070000000  0.4549000000000  0.5146330000000 1.0
C      1  0.5076420000000  0.4549000000000  0.4853220000000 1.0
C      1  0.5076420000000  0.5447940000000  0.5146330000000 1.0
C      1  0.5144800000000  0.4920290000000  0.5449250000000 1.0
C      1  0.4548780000000  0.4851910000000  0.4921600000000 1.0
C      1  0.5076420000000  0.5447940000000  0.4853220000000 1.0
C      1  0.5144800000000  0.5076640000000  0.4550310000000 1.0
C      1  0.4851690000000  0.5076640000000  0.5449250000000 1.0
C      1  0.4851690000000  0.4920290000000  0.4550310000000 1.0
C      1  0.4548780000000  0.5145020000000  0.5077960000000 1.0
C      1  0.5447710000000  0.5145020000000  0.4921600000000 1.0
C      1  0.5447710000000  0.4851910000000  0.5077960000000 1.0
C      1  0.5076420000000  0.4549000000000  0.5146330000000 1.0
C      1  0.4920070000000  0.4549000000000  0.4853220000000 1.0
C      1  0.4920070000000  0.5447940000000  0.5146330000000 1.0
C      1  0.4319940000000  0.4713710000000  0.5078720000000 1.0
C      1  0.5077190000000  0.4320160000000  0.4715020000000 1.0
C      1  0.4713490000000  0.5077410000000  0.4321480000000 1.0
C      1  0.4319940000000  0.5283230000000  0.4920840000000 1.0
C      1  0.5676550000000  0.5283230000000  0.5078720000000 1.0
C      1  0.5676550000000  0.4713710000000  0.4920840000000 1.0
C      1  0.5077190000000  0.5676770000000  0.5284540000000 1.0
C      1  0.4919300000000  0.5676770000000  0.4715020000000 1.0
C      1  0.4919300000000  0.4320160000000  0.5284540000000 1.0
C      1  0.4713490000000  0.4919520000000  0.5678080000000 1.0
C      1  0.5283000000000  0.4919520000000  0.4321480000000 1.0
C      1  0.5283000000000  0.5077410000000  0.5678080000000 1.0
C      1  0.5676550000000  0.4713710000000  0.5078720000000 1.0
C      1  0.4919300000000  0.4320160000000  0.4715020000000 1.0
C      1  0.5283000000000  0.5077410000000  0.4321480000000 1.0
C      1  0.5676550000000  0.5283230000000  0.4920840000000 1.0
C      1  0.4319940000000  0.5283230000000  0.5078720000000 1.0
C      1  0.4319940000000  0.4713710000000  0.4920840000000 1.0
C      1  0.4919300000000  0.5676770000000  0.5284540000000 1.0
C      1  0.5077190000000  0.5676770000000  0.4715020000000 1.0
C      1  0.5077190000000  0.4320160000000  0.5284540000000 1.0
C      1  0.5283000000000  0.4919520000000  0.5678080000000 1.0
C      1  0.4713490000000  0.4919520000000  0.4321480000000 1.0
C      1  0.4713490000000  0.5077410000000  0.5678080000000 1.0
C      1  0.5554020000000  0.4809940000000  0.4732390000000 1.0
C      1  0.4730850000000  0.5554240000000  0.4811250000000 1.0
C      1  0.4809720000000  0.4731070000000  0.5555550000000 1.0
C      1  0.5554020000000  0.5187000000000  0.5267170000000 1.0
C      1  0.4442470000000  0.5187000000000  0.4732390000000 1.0
C      1  0.4442470000000  0.4809940000000  0.5267170000000 1.0
C      1  0.4730850000000  0.4442690000000  0.5188310000000 1.0
C      1  0.5265640000000  0.4442690000000  0.4811250000000 1.0
C      1  0.5265640000000  0.5554240000000  0.5188310000000 1.0
C      1  0.4809720000000  0.5265860000000  0.4444010000000 1.0
C      1  0.5186770000000  0.5265860000000  0.5555550000000 1.0
C      1  0.5186770000000  0.4731070000000  0.4444010000000 1.0
C      1  0.4442470000000  0.4809940000000  0.4732390000000 1.0
C      1  0.5265640000000  0.5554240000000  0.4811250000000 1.0
C      1  0.5186770000000  0.4731070000000  0.5555550000000 1.0
C      1  0.4442470000000  0.5187000000000  0.5267170000000 1.0
C      1  0.5554020000000  0.5187000000000  0.4732390000000 1.0
C      1  0.5554020000000  0.4809940000000  0.5267170000000 1.0
C      1  0.5265640000000  0.4442690000000  0.5188310000000 1.0
C      1  0.4730850000000  0.4442690000000  0.4811250000000 1.0
C      1  0.4730850000000  0.5554240000000  0.5188310000000 1.0
C      1  0.5186770000000  0.5265860000000  0.4444010000000 1.0
C      1  0.4809720000000  0.5265860000000  0.5555550000000 1.0
C      1  0.4809720000000  0.4731070000000  0.4444010000000 1.0
C      1  0.4603950000000  0.4673480000000  0.4314160000000 1.0
C      1  0.4312620000000  0.4604170000000  0.4674800000000 1.0
C      1  0.4673260000000  0.4312840000000  0.4605480000000 1.0
C      1  0.4603950000000  0.5323450000000  0.5685400000000 1.0
C      1  0.5392540000000  0.5323450000000  0.4314160000000 1.0
C      1  0.5392540000000  0.4673480000000  0.5685400000000 1.0
C      1  0.4312620000000  0.5392760000000  0.5324760000000 1.0
C      1  0.5683870000000  0.5392760000000  0.4674800000000 1.0
C      1  0.5683870000000  0.4604170000000  0.5324760000000 1.0
C      1  0.4673260000000  0.5684090000000  0.5394070000000 1.0
C      1  0.5323230000000  0.5684090000000  0.4605480000000 1.0
C      1  0.5323230000000  0.4312840000000  0.5394070000000 1.0
C      1  0.5392540000000  0.4673480000000  0.4314160000000 1.0
C      1  0.5683870000000  0.4604170000000  0.4674800000000 1.0
C      1  0.5323230000000  0.4312840000000  0.4605480000000 1.0
C      1  0.5392540000000  0.5323450000000  0.5685400000000 1.0
C      1  0.4603950000000  0.5323450000000  0.4314160000000 1.0
C      1  0.4603950000000  0.4673480000000  0.5685400000000 1.0
C      1  0.5683870000000  0.5392760000000  0.5324760000000 1.0
C      1  0.4312620000000  0.5392760000000  0.4674800000000 1.0
C      1  0.4312620000000  0.4604170000000  0.5324760000000 1.0
C      1  0.5323230000000  0.5684090000000  0.5394070000000 1.0
C      1  0.4673260000000  0.5684090000000  0.4605480000000 1.0
C      1  0.4673260000000  0.4312840000000  0.5394070000000 1.0
C      1  0.4921380000000  0.4758610000000  0.4174200000000 1.0
C      1  0.4172660000000  0.4921600000000  0.4759920000000 1.0
C      1  0.4758390000000  0.4172880000000  0.4922910000000 1.0
C      1  0.4921380000000  0.5238330000000  0.5825360000000 1.0
C      1  0.5075110000000  0.5238330000000  0.4174200000000 1.0
C      1  0.5075110000000  0.4758610000000  0.5825360000000 1.0
C      1  0.4172660000000  0.5075330000000  0.5239640000000 1.0
C      1  0.5823830000000  0.5075330000000  0.4759920000000 1.0
C      1  0.5823830000000  0.4921600000000  0.5239640000000 1.0
C      1  0.4758390000000  0.5824050000000  0.5076650000000 1.0
C      1  0.5238110000000  0.5824050000000  0.4922910000000 1.0
C      1  0.5238110000000  0.4172880000000  0.5076650000000 1.0
C      1  0.5075110000000  0.4758610000000  0.4174200000000 1.0
C      1  0.5823830000000  0.4921600000000  0.4759920000000 1.0
C      1  0.5238110000000  0.4172880000000  0.4922910000000 1.0
C      1  0.5075110000000  0.5238330000000  0.5825360000000 1.0
C      1  0.4921380000000  0.5238330000000  0.4174200000000 1.0
C      1  0.4921380000000  0.4758610000000  0.5825360000000 1.0
C      1  0.5823830000000  0.5075330000000  0.5239640000000 1.0
C      1  0.4172660000000  0.5075330000000  0.4759920000000 1.0
C      1  0.4172660000000  0.4921600000000  0.5239640000000 1.0
C      1  0.5238110000000  0.5824050000000  0.5076650000000 1.0
C      1  0.4758390000000  0.5824050000000  0.4922910000000 1.0
C      1  0.4758390000000  0.4172880000000  0.5076650000000 1.0
C      1  0.4318170000000  0.5248720000000  0.4649350000000 1.0
C      1  0.4647820000000  0.4318390000000  0.5250030000000 1.0
C      1  0.5248500000000  0.4648040000000  0.4319710000000 1.0
C      1  0.4318170000000  0.4748210000000  0.5350210000000 1.0
C      1  0.5678320000000  0.4748210000000  0.4649350000000 1.0
C      1  0.5678320000000  0.5248720000000  0.5350210000000 1.0
C      1  0.4647820000000  0.5678540000000  0.4749520000000 1.0
C      1  0.5348670000000  0.5678540000000  0.5250030000000 1.0
C      1  0.5348670000000  0.4318390000000  0.4749520000000 1.0
C      1  0.5248500000000  0.5348890000000  0.5679850000000 1.0
C      1  0.4747990000000  0.5348890000000  0.4319710000000 1.0
C      1  0.4747990000000  0.4648040000000  0.5679850000000 1.0
C      1  0.5678320000000  0.5248720000000  0.4649350000000 1.0
C      1  0.5348670000000  0.4318390000000  0.5250030000000 1.0
C      1  0.4747990000000  0.4648040000000  0.4319710000000 1.0
C      1  0.5678320000000  0.4748210000000  0.5350210000000 1.0
C      1  0.4318170000000  0.4748210000000  0.4649350000000 1.0
C      1  0.4318170000000  0.5248720000000  0.5350210000000 1.0
C      1  0.5348670000000  0.5678540000000  0.4749520000000 1.0
C      1  0.4647820000000  0.5678540000000  0.5250030000000 1.0
C      1  0.4647820000000  0.4318390000000  0.4749520000000 1.0
C      1  0.4747990000000  0.5348890000000  0.5679850000000 1.0
C      1  0.5248500000000  0.5348890000000  0.4319710000000 1.0
C      1  0.5248500000000  0.4648040000000  0.5679850000000 1.0
C      1  0.5476740000000  0.5397330000000  0.4743540000000 1.0
C      1  0.4742010000000  0.5476960000000  0.5398640000000 1.0
C      1  0.5397110000000  0.4742230000000  0.5478270000000 1.0
C      1  0.5476740000000  0.4599610000000  0.5256020000000 1.0
C      1  0.4519750000000  0.4599610000000  0.4743540000000 1.0
C      1  0.4519750000000  0.5397330000000  0.5256020000000 1.0
C      1  0.4742010000000  0.4519970000000  0.4600920000000 1.0
C      1  0.5254480000000  0.4519970000000  0.5398640000000 1.0
C      1  0.5254480000000  0.5476960000000  0.4600920000000 1.0
C      1  0.5397110000000  0.5254700000000  0.4521290000000 1.0
C      1  0.4599390000000  0.5254700000000  0.5478270000000 1.0
C      1  0.4599390000000  0.4742230000000  0.4521290000000 1.0
C      1  0.4519750000000  0.5397330000000  0.4743540000000 1.0
C      1  0.5254480000000  0.5476960000000  0.5398640000000 1.0
C      1  0.4599390000000  0.4742230000000  0.5478270000000 1.0
C      1  0.4519750000000  0.4599610000000  0.5256020000000 1.0
C      1  0.5476740000000  0.4599610000000  0.4743540000000 1.0
C      1  0.5476740000000  0.5397330000000  0.5256020000000 1.0
C      1  0.5254480000000  0.4519970000000  0.4600920000000 1.0
C      1  0.4742010000000  0.4519970000000  0.5398640000000 1.0
C      1  0.4742010000000  0.5476960000000  0.4600920000000 1.0
C      1  0.4599390000000  0.5254700000000  0.4521290000000 1.0
C      1  0.5397110000000  0.5254700000000  0.5478270000000 1.0
C      1  0.5397110000000  0.4742230000000  0.4521290000000 1.0
C      1  0.4515310000000  0.4796320000000  0.4293620000000 1.0
C      1  0.4292080000000  0.4515540000000  0.4797630000000 1.0
C      1  0.4796100000000  0.4292310000000  0.4516850000000 1.0
C      1  0.4515310000000  0.5200620000000  0.5705940000000 1.0
C      1  0.5481180000000  0.5200620000000  0.4293620000000 1.0
C      1  0.5481180000000  0.4796320000000  0.5705940000000 1.0
C      1  0.4292080000000  0.5481400000000  0.5201930000000 1.0
C      1  0.5704410000000  0.5481400000000  0.4797630000000 1.0
C      1  0.5704410000000  0.4515540000000  0.5201930000000 1.0
C      1  0.4796100000000  0.5704630000000  0.5482710000000 1.0
C      1  0.5200390000000  0.5704630000000  0.4516850000000 1.0
C      1  0.5200390000000  0.4292310000000  0.5482710000000 1.0
C      1  0.5481180000000  0.4796320000000  0.4293620000000 1.0
C      1  0.5704410000000  0.4515540000000  0.4797630000000 1.0
C      1  0.5200390000000  0.4292310000000  0.4516850000000 1.0
C      1  0.5481180000000  0.5200620000000  0.5705940000000 1.0
C      1  0.4515310000000  0.5200620000000  0.4293620000000 1.0
C      1  0.4515310000000  0.4796320000000  0.5705940000000 1.0
C      1  0.5704410000000  0.5481400000000  0.5201930000000 1.0
C      1  0.4292080000000  0.5481400000000  0.4797630000000 1.0
C      1  0.4292080000000  0.4515540000000  0.5201930000000 1.0
C      1  0.5200390000000  0.5704630000000  0.5482710000000 1.0
C      1  0.4796100000000  0.5704630000000  0.4516850000000 1.0
C      1  0.4796100000000  0.4292310000000  0.5482710000000 1.0
C      1  0.5173770000000  0.5485700000000  0.4382650000000 1.0
C      1  0.4381110000000  0.5174000000000  0.5487010000000 1.0
C      1  0.5485480000000  0.4381330000000  0.5175310000000 1.0
C      1  0.5173770000000  0.4511240000000  0.5616910000000 1.0
C      1  0.4822720000000  0.4511240000000  0.4382650000000 1.0
C      1  0.4822720000000  0.5485700000000  0.5616910000000 1.0
C      1  0.4381110000000  0.4822940000000  0.4512550000000 1.0
C      1  0.5615380000000  0.4822940000000  0.5487010000000 1.0
C      1  0.5615380000000  0.5174000000000  0.4512550000000 1.0
C      1  0.5485480000000  0.5615600000000  0.4824250000000 1.0
C      1  0.4511020000000  0.5615600000000  0.5175310000000 1.0
C      1  0.4511020000000  0.4381330000000  0.4824250000000 1.0
C      1  0.4822720000000  0.5485700000000  0.4382650000000 1.0
C      1  0.5615380000000  0.5174000000000  0.5487010000000 1.0
C      1  0.4511020000000  0.4381330000000  0.5175310000000 1.0
C      1  0.4822720000000  0.4511240000000  0.5616910000000 1.0
C      1  0.5173770000000  0.4511240000000  0.4382650000000 1.0
C      1  0.5173770000000  0.5485700000000  0.5616910000000 1.0
C      1  0.5615380000000  0.4822940000000  0.4512550000000 1.0
C      1  0.4381110000000  0.4822940000000  0.5487010000000 1.0
C      1  0.4381110000000  0.5174000000000  0.4512550000000 1.0
C      1  0.4511020000000  0.5615600000000  0.4824250000000 1.0
C      1  0.5485480000000  0.5615600000000  0.5175310000000 1.0
C      1  0.5485480000000  0.4381330000000  0.4824250000000 1.0
C      1  0.4529710000000  0.4276070000000  0.4929230000000 1.0
C      1  0.4927690000000  0.4529930000000  0.4277380000000 1.0
C      1  0.4275850000000  0.4927910000000  0.4531250000000 1.0
C      1  0.4529710000000  0.5720860000000  0.5070330000000 1.0
C      1  0.5466780000000  0.5720860000000  0.4929230000000 1.0
C      1  0.5466780000000  0.4276070000000  0.5070330000000 1.0
C      1  0.4927690000000  0.5467000000000  0.5722170000000 1.0
C      1  0.5068800000000  0.5467000000000  0.4277380000000 1.0
C      1  0.5068800000000  0.4529930000000  0.5722170000000 1.0
C      1  0.4275850000000  0.5069020000000  0.5468310000000 1.0
C      1  0.5720640000000  0.5069020000000  0.4531250000000 1.0
C      1  0.5720640000000  0.4927910000000  0.5468310000000 1.0
C      1  0.5466780000000  0.4276070000000  0.4929230000000 1.0
C      1  0.5068800000000  0.4529930000000  0.4277380000000 1.0
C      1  0.5720640000000  0.4927910000000  0.4531250000000 1.0
C      1  0.5466780000000  0.5720860000000  0.5070330000000 1.0
C      1  0.4529710000000  0.5720860000000  0.4929230000000 1.0
C      1  0.4529710000000  0.4276070000000  0.5070330000000 1.0
C      1  0.5068800000000  0.5467000000000  0.5722170000000 1.0
C      1  0.4927690000000  0.5467000000000  0.4277380000000 1.0
C      1  0.4927690000000  0.4529930000000  0.5722170000000 1.0
C      1  0.5720640000000  0.5069020000000  0.5468310000000 1.0
C      1  0.4275850000000  0.5069020000000  0.4531250000000 1.0
C      1  0.4275850000000  0.4927910000000  0.5468310000000 1.0
C      1  0.5486010000000  0.4510700000000  0.4512010000000 1.0
C      1  0.4510480000000  0.5486230000000  0.4512010000000 1.0
C      1  0.4510480000000  0.4510700000000  0.5487550000000 1.0
C      1  0.5486010000000  0.4510700000000  0.5487550000000 1.0
C      1  0.4510480000000  0.5486230000000  0.5487550000000 1.0
C      1  0.5486010000000  0.5486230000000  0.4512010000000 1.0
C      1  0.5486010000000  0.5486230000000  0.5487550000000 1.0
C      1  0.4510480000000  0.4510700000000  0.4512010000000 1.0
END
