TITL C-1887012-575-18 -1.86403124739422e-07 1000000 -4298.43482662907 0 0 600 (Td) n - 1
REM
REM in /nfs/bkarasulu/CARBON/AIRSS/Generating-Clusters/GAP-ML-2020/Higher-Symm/Selected-Sizes/TryA-Only_Ih-Symm/Larger-Clusters
REM
REM
REM
REM
REM
REM ./C.cell (2cf5181f0f1d4d5b12b972d32ad12063)
REM
REM compiler GCC version 9.2.1 20190827 (Red Hat 9.2.1-1)
REM options -cpp -mtune=generic -march=x86-64 -g -O0 -fpre-include=/usr/include/finclude/math-vector-fortran.h
REM seed 1186190970 -1746375745 -1209159128 -1026735901 387506935 -112272158 -1888472524 1508373097 272619759 2087885895 387858204 -248028172 1633963257 2077413905 -177797125 -2026078243 1687928541 -1940909769 -745710025 1965964030 -1220621563 -890546365 101494502 400834229 1676300393 1698046970 -592918752 1197244333 1217033385 356106566 298586915 -1718159645 1040373578
REM
CELL 1.54180  100.00000  100.00000  100.00000   90.00000   90.00000   90.00000
LATT -1
SFAC C  
C      1  0.5608480000000  0.4983690000000  0.4795880000000 1.0
C      1  0.4795880000000  0.5608480000000  0.4983690000000 1.0
C      1  0.4983690000000  0.4795880000000  0.5608480000000 1.0
C      1  0.4391520000000  0.4983690000000  0.5204120000000 1.0
C      1  0.5608480000000  0.5016310000000  0.5204120000000 1.0
C      1  0.4391520000000  0.5016310000000  0.4795880000000 1.0
C      1  0.5204120000000  0.5608480000000  0.5016310000000 1.0
C      1  0.4795880000000  0.4391520000000  0.5016310000000 1.0
C      1  0.5204120000000  0.4391520000000  0.4983690000000 1.0
C      1  0.5016310000000  0.4795880000000  0.4391520000000 1.0
C      1  0.4983690000000  0.5204120000000  0.4391520000000 1.0
C      1  0.5016310000000  0.5204120000000  0.5608480000000 1.0
C      1  0.4795880000000  0.4983690000000  0.5608480000000 1.0
C      1  0.4983690000000  0.5608480000000  0.4795880000000 1.0
C      1  0.5608480000000  0.4795880000000  0.4983690000000 1.0
C      1  0.5204120000000  0.4983690000000  0.4391520000000 1.0
C      1  0.5204120000000  0.5016310000000  0.5608480000000 1.0
C      1  0.4795880000000  0.5016310000000  0.4391520000000 1.0
C      1  0.5016310000000  0.5608480000000  0.5204120000000 1.0
C      1  0.5016310000000  0.4391520000000  0.4795880000000 1.0
C      1  0.4983690000000  0.4391520000000  0.5204120000000 1.0
C      1  0.4391520000000  0.4795880000000  0.5016310000000 1.0
C      1  0.4391520000000  0.5204120000000  0.4983690000000 1.0
C      1  0.5608480000000  0.5204120000000  0.5016310000000 1.0
C      1  0.5276780000000  0.5551260000000  0.5654770000000 1.0
C      1  0.5654770000000  0.5276780000000  0.5551260000000 1.0
C      1  0.5551260000000  0.5654770000000  0.5276780000000 1.0
C      1  0.4723220000000  0.5551260000000  0.4345230000000 1.0
C      1  0.5276780000000  0.4448740000000  0.4345230000000 1.0
C      1  0.4723220000000  0.4448740000000  0.5654770000000 1.0
C      1  0.4345230000000  0.5276780000000  0.4448740000000 1.0
C      1  0.5654770000000  0.4723220000000  0.4448740000000 1.0
C      1  0.4345230000000  0.4723220000000  0.5551260000000 1.0
C      1  0.4448740000000  0.5654770000000  0.4723220000000 1.0
C      1  0.5551260000000  0.4345230000000  0.4723220000000 1.0
C      1  0.4448740000000  0.4345230000000  0.5276780000000 1.0
C      1  0.5654770000000  0.5551260000000  0.5276780000000 1.0
C      1  0.5551260000000  0.5276780000000  0.5654770000000 1.0
C      1  0.5276780000000  0.5654770000000  0.5551260000000 1.0
C      1  0.4345230000000  0.5551260000000  0.4723220000000 1.0
C      1  0.4345230000000  0.4448740000000  0.5276780000000 1.0
C      1  0.5654770000000  0.4448740000000  0.4723220000000 1.0
C      1  0.4448740000000  0.5276780000000  0.4345230000000 1.0
C      1  0.4448740000000  0.4723220000000  0.5654770000000 1.0
C      1  0.5551260000000  0.4723220000000  0.4345230000000 1.0
C      1  0.4723220000000  0.5654770000000  0.4448740000000 1.0
C      1  0.4723220000000  0.4345230000000  0.5551260000000 1.0
C      1  0.5276780000000  0.4345230000000  0.4448740000000 1.0
C      1  0.4653520000000  0.4985710000000  0.5843090000000 1.0
C      1  0.5843090000000  0.4653520000000  0.4985710000000 1.0
C      1  0.4985710000000  0.5843090000000  0.4653520000000 1.0
C      1  0.5346480000000  0.4985710000000  0.4156910000000 1.0
C      1  0.4653520000000  0.5014290000000  0.4156910000000 1.0
C      1  0.5346480000000  0.5014290000000  0.5843090000000 1.0
C      1  0.4156910000000  0.4653520000000  0.5014290000000 1.0
C      1  0.5843090000000  0.5346480000000  0.5014290000000 1.0
C      1  0.4156910000000  0.5346480000000  0.4985710000000 1.0
C      1  0.5014290000000  0.5843090000000  0.5346480000000 1.0
C      1  0.4985710000000  0.4156910000000  0.5346480000000 1.0
C      1  0.5014290000000  0.4156910000000  0.4653520000000 1.0
C      1  0.5843090000000  0.4985710000000  0.4653520000000 1.0
C      1  0.4985710000000  0.4653520000000  0.5843090000000 1.0
C      1  0.4653520000000  0.5843090000000  0.4985710000000 1.0
C      1  0.4156910000000  0.4985710000000  0.5346480000000 1.0
C      1  0.4156910000000  0.5014290000000  0.4653520000000 1.0
C      1  0.5843090000000  0.5014290000000  0.5346480000000 1.0
C      1  0.5014290000000  0.4653520000000  0.4156910000000 1.0
C      1  0.5014290000000  0.5346480000000  0.5843090000000 1.0
C      1  0.4985710000000  0.5346480000000  0.4156910000000 1.0
C      1  0.5346480000000  0.5843090000000  0.5014290000000 1.0
C      1  0.5346480000000  0.4156910000000  0.4985710000000 1.0
C      1  0.4653520000000  0.4156910000000  0.5014290000000 1.0
C      1  0.4760260000000  0.4547720000000  0.4655980000000 1.0
C      1  0.4655980000000  0.4760260000000  0.4547720000000 1.0
C      1  0.4547720000000  0.4655980000000  0.4760260000000 1.0
C      1  0.5239740000000  0.4547720000000  0.5344020000000 1.0
C      1  0.4760260000000  0.5452280000000  0.5344020000000 1.0
C      1  0.5239740000000  0.5452280000000  0.4655980000000 1.0
C      1  0.5344020000000  0.4760260000000  0.5452280000000 1.0
C      1  0.4655980000000  0.5239740000000  0.5452280000000 1.0
C      1  0.5344020000000  0.5239740000000  0.4547720000000 1.0
C      1  0.5452280000000  0.4655980000000  0.5239740000000 1.0
C      1  0.4547720000000  0.5344020000000  0.5239740000000 1.0
C      1  0.5452280000000  0.5344020000000  0.4760260000000 1.0
C      1  0.4655980000000  0.4547720000000  0.4760260000000 1.0
C      1  0.4547720000000  0.4760260000000  0.4655980000000 1.0
C      1  0.4760260000000  0.4655980000000  0.4547720000000 1.0
C      1  0.5344020000000  0.4547720000000  0.5239740000000 1.0
C      1  0.5344020000000  0.5452280000000  0.4760260000000 1.0
C      1  0.4655980000000  0.5452280000000  0.5239740000000 1.0
C      1  0.5452280000000  0.4760260000000  0.5344020000000 1.0
C      1  0.5452280000000  0.5239740000000  0.4655980000000 1.0
C      1  0.4547720000000  0.5239740000000  0.5344020000000 1.0
C      1  0.5239740000000  0.4655980000000  0.5452280000000 1.0
C      1  0.5239740000000  0.5344020000000  0.4547720000000 1.0
C      1  0.4760260000000  0.5344020000000  0.5452280000000 1.0
C      1  0.5134880000000  0.5363510000000  0.5758560000000 1.0
C      1  0.5758560000000  0.5134880000000  0.5363510000000 1.0
C      1  0.5363510000000  0.5758560000000  0.5134880000000 1.0
C      1  0.4865120000000  0.5363510000000  0.4241440000000 1.0
C      1  0.5134880000000  0.4636490000000  0.4241440000000 1.0
C      1  0.4865120000000  0.4636490000000  0.5758560000000 1.0
C      1  0.4241440000000  0.5134880000000  0.4636490000000 1.0
C      1  0.5758560000000  0.4865120000000  0.4636490000000 1.0
C      1  0.4241440000000  0.4865120000000  0.5363510000000 1.0
C      1  0.4636490000000  0.5758560000000  0.4865120000000 1.0
C      1  0.5363510000000  0.4241440000000  0.4865120000000 1.0
C      1  0.4636490000000  0.4241440000000  0.5134880000000 1.0
C      1  0.5758560000000  0.5363510000000  0.5134880000000 1.0
C      1  0.5363510000000  0.5134880000000  0.5758560000000 1.0
C      1  0.5134880000000  0.5758560000000  0.5363510000000 1.0
C      1  0.4241440000000  0.5363510000000  0.4865120000000 1.0
C      1  0.4241440000000  0.4636490000000  0.5134880000000 1.0
C      1  0.5758560000000  0.4636490000000  0.4865120000000 1.0
C      1  0.4636490000000  0.5134880000000  0.4241440000000 1.0
C      1  0.4636490000000  0.4865120000000  0.5758560000000 1.0
C      1  0.5363510000000  0.4865120000000  0.4241440000000 1.0
C      1  0.4865120000000  0.5758560000000  0.4636490000000 1.0
C      1  0.4865120000000  0.4241440000000  0.5363510000000 1.0
C      1  0.5134880000000  0.4241440000000  0.4636490000000 1.0
C      1  0.5087720000000  0.5197010000000  0.5307360000000 1.0
C      1  0.5307360000000  0.5087720000000  0.5197010000000 1.0
C      1  0.5197010000000  0.5307360000000  0.5087720000000 1.0
C      1  0.4912280000000  0.5197010000000  0.4692640000000 1.0
C      1  0.5087720000000  0.4802990000000  0.4692640000000 1.0
C      1  0.4912280000000  0.4802990000000  0.5307360000000 1.0
C      1  0.4692640000000  0.5087720000000  0.4802990000000 1.0
C      1  0.5307360000000  0.4912280000000  0.4802990000000 1.0
C      1  0.4692640000000  0.4912280000000  0.5197010000000 1.0
C      1  0.4802990000000  0.5307360000000  0.4912280000000 1.0
C      1  0.5197010000000  0.4692640000000  0.4912280000000 1.0
C      1  0.4802990000000  0.4692640000000  0.5087720000000 1.0
C      1  0.5307360000000  0.5197010000000  0.5087720000000 1.0
C      1  0.5197010000000  0.5087720000000  0.5307360000000 1.0
C      1  0.5087720000000  0.5307360000000  0.5197010000000 1.0
C      1  0.4692640000000  0.5197010000000  0.4912280000000 1.0
C      1  0.4692640000000  0.4802990000000  0.5087720000000 1.0
C      1  0.5307360000000  0.4802990000000  0.4912280000000 1.0
C      1  0.4802990000000  0.5087720000000  0.4692640000000 1.0
C      1  0.4802990000000  0.4912280000000  0.5307360000000 1.0
C      1  0.5197010000000  0.4912280000000  0.4692640000000 1.0
C      1  0.4912280000000  0.5307360000000  0.4802990000000 1.0
C      1  0.4912280000000  0.4692640000000  0.5197010000000 1.0
C      1  0.5087720000000  0.4692640000000  0.4802990000000 1.0
C      1  0.5622810000000  0.5515590000000  0.5417040000000 1.0
C      1  0.5417040000000  0.5622810000000  0.5515590000000 1.0
C      1  0.5515590000000  0.5417040000000  0.5622810000000 1.0
C      1  0.4377190000000  0.5515590000000  0.4582960000000 1.0
C      1  0.5622810000000  0.4484410000000  0.4582960000000 1.0
C      1  0.4377190000000  0.4484410000000  0.5417040000000 1.0
C      1  0.4582960000000  0.5622810000000  0.4484410000000 1.0
C      1  0.5417040000000  0.4377190000000  0.4484410000000 1.0
C      1  0.4582960000000  0.4377190000000  0.5515590000000 1.0
C      1  0.4484410000000  0.5417040000000  0.4377190000000 1.0
C      1  0.5515590000000  0.4582960000000  0.4377190000000 1.0
C      1  0.4484410000000  0.4582960000000  0.5622810000000 1.0
C      1  0.5417040000000  0.5515590000000  0.5622810000000 1.0
C      1  0.5515590000000  0.5622810000000  0.5417040000000 1.0
C      1  0.5622810000000  0.5417040000000  0.5515590000000 1.0
C      1  0.4582960000000  0.5515590000000  0.4377190000000 1.0
C      1  0.4582960000000  0.4484410000000  0.5622810000000 1.0
C      1  0.5417040000000  0.4484410000000  0.4377190000000 1.0
C      1  0.4484410000000  0.5622810000000  0.4582960000000 1.0
C      1  0.4484410000000  0.4377190000000  0.5417040000000 1.0
C      1  0.5515590000000  0.4377190000000  0.4582960000000 1.0
C      1  0.4377190000000  0.5417040000000  0.4484410000000 1.0
C      1  0.4377190000000  0.4582960000000  0.5515590000000 1.0
C      1  0.5622810000000  0.4582960000000  0.4484410000000 1.0
C      1  0.4951560000000  0.5366210000000  0.5158570000000 1.0
C      1  0.5158570000000  0.4951560000000  0.5366210000000 1.0
C      1  0.5366210000000  0.5158570000000  0.4951560000000 1.0
C      1  0.5048440000000  0.5366210000000  0.4841430000000 1.0
C      1  0.4951560000000  0.4633790000000  0.4841430000000 1.0
C      1  0.5048440000000  0.4633790000000  0.5158570000000 1.0
C      1  0.4841430000000  0.4951560000000  0.4633790000000 1.0
C      1  0.5158570000000  0.5048440000000  0.4633790000000 1.0
C      1  0.4841430000000  0.5048440000000  0.5366210000000 1.0
C      1  0.4633790000000  0.5158570000000  0.5048440000000 1.0
C      1  0.5366210000000  0.4841430000000  0.5048440000000 1.0
C      1  0.4633790000000  0.4841430000000  0.4951560000000 1.0
C      1  0.5158570000000  0.5366210000000  0.4951560000000 1.0
C      1  0.5366210000000  0.4951560000000  0.5158570000000 1.0
C      1  0.4951560000000  0.5158570000000  0.5366210000000 1.0
C      1  0.4841430000000  0.5366210000000  0.5048440000000 1.0
C      1  0.4841430000000  0.4633790000000  0.4951560000000 1.0
C      1  0.5158570000000  0.4633790000000  0.5048440000000 1.0
C      1  0.4633790000000  0.4951560000000  0.4841430000000 1.0
C      1  0.4633790000000  0.5048440000000  0.5158570000000 1.0
C      1  0.5366210000000  0.5048440000000  0.4841430000000 1.0
C      1  0.5048440000000  0.5158570000000  0.4633790000000 1.0
C      1  0.5048440000000  0.4841430000000  0.5366210000000 1.0
C      1  0.4951560000000  0.4841430000000  0.4633790000000 1.0
C      1  0.4581520000000  0.4377770000000  0.4480130000000 1.0
C      1  0.4480130000000  0.4581520000000  0.4377770000000 1.0
C      1  0.4377770000000  0.4480130000000  0.4581520000000 1.0
C      1  0.5418480000000  0.4377770000000  0.5519870000000 1.0
C      1  0.4581520000000  0.5622230000000  0.5519870000000 1.0
C      1  0.5418480000000  0.5622230000000  0.4480130000000 1.0
C      1  0.5519870000000  0.4581520000000  0.5622230000000 1.0
C      1  0.4480130000000  0.5418480000000  0.5622230000000 1.0
C      1  0.5519870000000  0.5418480000000  0.4377770000000 1.0
C      1  0.5622230000000  0.4480130000000  0.5418480000000 1.0
C      1  0.4377770000000  0.5519870000000  0.5418480000000 1.0
C      1  0.5622230000000  0.5519870000000  0.4581520000000 1.0
C      1  0.4480130000000  0.4377770000000  0.4581520000000 1.0
C      1  0.4377770000000  0.4581520000000  0.4480130000000 1.0
C      1  0.4581520000000  0.4480130000000  0.4377770000000 1.0
C      1  0.5519870000000  0.4377770000000  0.5418480000000 1.0
C      1  0.5519870000000  0.5622230000000  0.4581520000000 1.0
C      1  0.4480130000000  0.5622230000000  0.5418480000000 1.0
C      1  0.5622230000000  0.4581520000000  0.5519870000000 1.0
C      1  0.5622230000000  0.5418480000000  0.4480130000000 1.0
C      1  0.4377770000000  0.5418480000000  0.5519870000000 1.0
C      1  0.5418480000000  0.4480130000000  0.5622230000000 1.0
C      1  0.5418480000000  0.5519870000000  0.4377770000000 1.0
C      1  0.4581520000000  0.5519870000000  0.5622230000000 1.0
C      1  0.5564330000000  0.4802670000000  0.5459690000000 1.0
C      1  0.5459690000000  0.5564330000000  0.4802670000000 1.0
C      1  0.4802670000000  0.5459690000000  0.5564330000000 1.0
C      1  0.4435670000000  0.4802670000000  0.4540310000000 1.0
C      1  0.5564330000000  0.5197330000000  0.4540310000000 1.0
C      1  0.4435670000000  0.5197330000000  0.5459690000000 1.0
C      1  0.4540310000000  0.5564330000000  0.5197330000000 1.0
C      1  0.5459690000000  0.4435670000000  0.5197330000000 1.0
C      1  0.4540310000000  0.4435670000000  0.4802670000000 1.0
C      1  0.5197330000000  0.5459690000000  0.4435670000000 1.0
C      1  0.4802670000000  0.4540310000000  0.4435670000000 1.0
C      1  0.5197330000000  0.4540310000000  0.5564330000000 1.0
C      1  0.5459690000000  0.4802670000000  0.5564330000000 1.0
C      1  0.4802670000000  0.5564330000000  0.5459690000000 1.0
C      1  0.5564330000000  0.5459690000000  0.4802670000000 1.0
C      1  0.4540310000000  0.4802670000000  0.4435670000000 1.0
C      1  0.4540310000000  0.5197330000000  0.5564330000000 1.0
C      1  0.5459690000000  0.5197330000000  0.4435670000000 1.0
C      1  0.5197330000000  0.5564330000000  0.4540310000000 1.0
C      1  0.5197330000000  0.4435670000000  0.5459690000000 1.0
C      1  0.4802670000000  0.4435670000000  0.4540310000000 1.0
C      1  0.4435670000000  0.5459690000000  0.5197330000000 1.0
C      1  0.4435670000000  0.4540310000000  0.4802670000000 1.0
C      1  0.5564330000000  0.4540310000000  0.5197330000000 1.0
C      1  0.5336220000000  0.5109290000000  0.4252240000000 1.0
C      1  0.4252240000000  0.5336220000000  0.5109290000000 1.0
C      1  0.5109290000000  0.4252240000000  0.5336220000000 1.0
C      1  0.4663780000000  0.5109290000000  0.5747760000000 1.0
C      1  0.5336220000000  0.4890710000000  0.5747760000000 1.0
C      1  0.4663780000000  0.4890710000000  0.4252240000000 1.0
C      1  0.5747760000000  0.5336220000000  0.4890710000000 1.0
C      1  0.4252240000000  0.4663780000000  0.4890710000000 1.0
C      1  0.5747760000000  0.4663780000000  0.5109290000000 1.0
C      1  0.4890710000000  0.4252240000000  0.4663780000000 1.0
C      1  0.5109290000000  0.5747760000000  0.4663780000000 1.0
C      1  0.4890710000000  0.5747760000000  0.5336220000000 1.0
C      1  0.4252240000000  0.5109290000000  0.5336220000000 1.0
C      1  0.5109290000000  0.5336220000000  0.4252240000000 1.0
C      1  0.5336220000000  0.4252240000000  0.5109290000000 1.0
C      1  0.5747760000000  0.5109290000000  0.4663780000000 1.0
C      1  0.5747760000000  0.4890710000000  0.5336220000000 1.0
C      1  0.4252240000000  0.4890710000000  0.4663780000000 1.0
C      1  0.4890710000000  0.5336220000000  0.5747760000000 1.0
C      1  0.4890710000000  0.4663780000000  0.4252240000000 1.0
C      1  0.5109290000000  0.4663780000000  0.5747760000000 1.0
C      1  0.4663780000000  0.4252240000000  0.4890710000000 1.0
C      1  0.4663780000000  0.5747760000000  0.5109290000000 1.0
C      1  0.5336220000000  0.5747760000000  0.4890710000000 1.0
C      1  0.4301380000000  0.5490780000000  0.4843010000000 1.0
C      1  0.4843010000000  0.4301380000000  0.5490780000000 1.0
C      1  0.5490780000000  0.4843010000000  0.4301380000000 1.0
C      1  0.5698620000000  0.5490780000000  0.5156990000000 1.0
C      1  0.4301380000000  0.4509220000000  0.5156990000000 1.0
C      1  0.5698620000000  0.4509220000000  0.4843010000000 1.0
C      1  0.5156990000000  0.4301380000000  0.4509220000000 1.0
C      1  0.4843010000000  0.5698620000000  0.4509220000000 1.0
C      1  0.5156990000000  0.5698620000000  0.5490780000000 1.0
C      1  0.4509220000000  0.4843010000000  0.5698620000000 1.0
C      1  0.5490780000000  0.5156990000000  0.5698620000000 1.0
C      1  0.4509220000000  0.5156990000000  0.4301380000000 1.0
C      1  0.4843010000000  0.5490780000000  0.4301380000000 1.0
C      1  0.5490780000000  0.4301380000000  0.4843010000000 1.0
C      1  0.4301380000000  0.4843010000000  0.5490780000000 1.0
C      1  0.5156990000000  0.5490780000000  0.5698620000000 1.0
C      1  0.5156990000000  0.4509220000000  0.4301380000000 1.0
C      1  0.4843010000000  0.4509220000000  0.5698620000000 1.0
C      1  0.4509220000000  0.4301380000000  0.5156990000000 1.0
C      1  0.4509220000000  0.5698620000000  0.4843010000000 1.0
C      1  0.5490780000000  0.5698620000000  0.5156990000000 1.0
C      1  0.5698620000000  0.4843010000000  0.4509220000000 1.0
C      1  0.5698620000000  0.5156990000000  0.5490780000000 1.0
C      1  0.4301380000000  0.5156990000000  0.4509220000000 1.0
C      1  0.5103550000000  0.5001850000000  0.5502050000000 1.0
C      1  0.5502050000000  0.5103550000000  0.5001850000000 1.0
C      1  0.5001850000000  0.5502050000000  0.5103550000000 1.0
C      1  0.4896450000000  0.5001850000000  0.4497950000000 1.0
C      1  0.5103550000000  0.4998150000000  0.4497950000000 1.0
C      1  0.4896450000000  0.4998150000000  0.5502050000000 1.0
C      1  0.4497950000000  0.5103550000000  0.4998150000000 1.0
C      1  0.5502050000000  0.4896450000000  0.4998150000000 1.0
C      1  0.4497950000000  0.4896450000000  0.5001850000000 1.0
C      1  0.4998150000000  0.5502050000000  0.4896450000000 1.0
C      1  0.5001850000000  0.4497950000000  0.4896450000000 1.0
C      1  0.4998150000000  0.4497950000000  0.5103550000000 1.0
C      1  0.5502050000000  0.5001850000000  0.5103550000000 1.0
C      1  0.5001850000000  0.5103550000000  0.5502050000000 1.0
C      1  0.5103550000000  0.5502050000000  0.5001850000000 1.0
C      1  0.4497950000000  0.5001850000000  0.4896450000000 1.0
C      1  0.4497950000000  0.4998150000000  0.5103550000000 1.0
C      1  0.5502050000000  0.4998150000000  0.4896450000000 1.0
C      1  0.4998150000000  0.5103550000000  0.4497950000000 1.0
C      1  0.4998150000000  0.4896450000000  0.5502050000000 1.0
C      1  0.5001850000000  0.4896450000000  0.4497950000000 1.0
C      1  0.4896450000000  0.5502050000000  0.4998150000000 1.0
C      1  0.4896450000000  0.4497950000000  0.5001850000000 1.0
C      1  0.5103550000000  0.4497950000000  0.4998150000000 1.0
C      1  0.5534960000000  0.4367130000000  0.4960810000000 1.0
C      1  0.4960810000000  0.5534960000000  0.4367130000000 1.0
C      1  0.4367130000000  0.4960810000000  0.5534960000000 1.0
C      1  0.4465040000000  0.4367130000000  0.5039190000000 1.0
C      1  0.5534960000000  0.5632870000000  0.5039190000000 1.0
C      1  0.4465040000000  0.5632870000000  0.4960810000000 1.0
C      1  0.5039190000000  0.5534960000000  0.5632870000000 1.0
C      1  0.4960810000000  0.4465040000000  0.5632870000000 1.0
C      1  0.5039190000000  0.4465040000000  0.4367130000000 1.0
C      1  0.5632870000000  0.4960810000000  0.4465040000000 1.0
C      1  0.4367130000000  0.5039190000000  0.4465040000000 1.0
C      1  0.5632870000000  0.5039190000000  0.5534960000000 1.0
C      1  0.4960810000000  0.4367130000000  0.5534960000000 1.0
C      1  0.4367130000000  0.5534960000000  0.4960810000000 1.0
C      1  0.5534960000000  0.4960810000000  0.4367130000000 1.0
C      1  0.5039190000000  0.4367130000000  0.4465040000000 1.0
C      1  0.5039190000000  0.5632870000000  0.5534960000000 1.0
C      1  0.4960810000000  0.5632870000000  0.4465040000000 1.0
C      1  0.5632870000000  0.5534960000000  0.5039190000000 1.0
C      1  0.5632870000000  0.4465040000000  0.4960810000000 1.0
C      1  0.4367130000000  0.4465040000000  0.5039190000000 1.0
C      1  0.4465040000000  0.4960810000000  0.5632870000000 1.0
C      1  0.4465040000000  0.5039190000000  0.4367130000000 1.0
C      1  0.5534960000000  0.5039190000000  0.5632870000000 1.0
C      1  0.4679530000000  0.4994800000000  0.4481970000000 1.0
C      1  0.4481970000000  0.4679530000000  0.4994800000000 1.0
C      1  0.4994800000000  0.4481970000000  0.4679530000000 1.0
C      1  0.5320470000000  0.4994800000000  0.5518030000000 1.0
C      1  0.4679530000000  0.5005200000000  0.5518030000000 1.0
C      1  0.5320470000000  0.5005200000000  0.4481970000000 1.0
C      1  0.5518030000000  0.4679530000000  0.5005200000000 1.0
C      1  0.4481970000000  0.5320470000000  0.5005200000000 1.0
C      1  0.5518030000000  0.5320470000000  0.4994800000000 1.0
C      1  0.5005200000000  0.4481970000000  0.5320470000000 1.0
C      1  0.4994800000000  0.5518030000000  0.5320470000000 1.0
C      1  0.5005200000000  0.5518030000000  0.4679530000000 1.0
C      1  0.4481970000000  0.4994800000000  0.4679530000000 1.0
C      1  0.4994800000000  0.4679530000000  0.4481970000000 1.0
C      1  0.4679530000000  0.4481970000000  0.4994800000000 1.0
C      1  0.5518030000000  0.4994800000000  0.5320470000000 1.0
C      1  0.5518030000000  0.5005200000000  0.4679530000000 1.0
C      1  0.4481970000000  0.5005200000000  0.5320470000000 1.0
C      1  0.5005200000000  0.4679530000000  0.5518030000000 1.0
C      1  0.5005200000000  0.5320470000000  0.4481970000000 1.0
C      1  0.4994800000000  0.5320470000000  0.5518030000000 1.0
C      1  0.5320470000000  0.4481970000000  0.5005200000000 1.0
C      1  0.5320470000000  0.5518030000000  0.4994800000000 1.0
C      1  0.4679530000000  0.5518030000000  0.5005200000000 1.0
C      1  0.5313850000000  0.4886880000000  0.4578760000000 1.0
C      1  0.4578760000000  0.5313850000000  0.4886880000000 1.0
C      1  0.4886880000000  0.4578760000000  0.5313850000000 1.0
C      1  0.4686150000000  0.4886880000000  0.5421240000000 1.0
C      1  0.5313850000000  0.5113120000000  0.5421240000000 1.0
C      1  0.4686150000000  0.5113120000000  0.4578760000000 1.0
C      1  0.5421240000000  0.5313850000000  0.5113120000000 1.0
C      1  0.4578760000000  0.4686150000000  0.5113120000000 1.0
C      1  0.5421240000000  0.4686150000000  0.4886880000000 1.0
C      1  0.5113120000000  0.4578760000000  0.4686150000000 1.0
C      1  0.4886880000000  0.5421240000000  0.4686150000000 1.0
C      1  0.5113120000000  0.5421240000000  0.5313850000000 1.0
C      1  0.4578760000000  0.4886880000000  0.5313850000000 1.0
C      1  0.4886880000000  0.5313850000000  0.4578760000000 1.0
C      1  0.5313850000000  0.4578760000000  0.4886880000000 1.0
C      1  0.5421240000000  0.4886880000000  0.4686150000000 1.0
C      1  0.5421240000000  0.5113120000000  0.5313850000000 1.0
C      1  0.4578760000000  0.5113120000000  0.4686150000000 1.0
C      1  0.5113120000000  0.5313850000000  0.5421240000000 1.0
C      1  0.5113120000000  0.4686150000000  0.4578760000000 1.0
C      1  0.4886880000000  0.4686150000000  0.5421240000000 1.0
C      1  0.4686150000000  0.4578760000000  0.5113120000000 1.0
C      1  0.4686150000000  0.5421240000000  0.4886880000000 1.0
C      1  0.5313850000000  0.5421240000000  0.5113120000000 1.0
C      1  0.4897530000000  0.5406200000000  0.5296010000000 1.0
C      1  0.5296010000000  0.4897530000000  0.5406200000000 1.0
C      1  0.5406200000000  0.5296010000000  0.4897530000000 1.0
C      1  0.5102470000000  0.5406200000000  0.4703990000000 1.0
C      1  0.4897530000000  0.4593800000000  0.4703990000000 1.0
C      1  0.5102470000000  0.4593800000000  0.5296010000000 1.0
C      1  0.4703990000000  0.4897530000000  0.4593800000000 1.0
C      1  0.5296010000000  0.5102470000000  0.4593800000000 1.0
C      1  0.4703990000000  0.5102470000000  0.5406200000000 1.0
C      1  0.4593800000000  0.5296010000000  0.5102470000000 1.0
C      1  0.5406200000000  0.4703990000000  0.5102470000000 1.0
C      1  0.4593800000000  0.4703990000000  0.4897530000000 1.0
C      1  0.5296010000000  0.5406200000000  0.4897530000000 1.0
C      1  0.5406200000000  0.4897530000000  0.5296010000000 1.0
C      1  0.4897530000000  0.5296010000000  0.5406200000000 1.0
C      1  0.4703990000000  0.5406200000000  0.5102470000000 1.0
C      1  0.4703990000000  0.4593800000000  0.4897530000000 1.0
C      1  0.5296010000000  0.4593800000000  0.5102470000000 1.0
C      1  0.4593800000000  0.4897530000000  0.4703990000000 1.0
C      1  0.4593800000000  0.5102470000000  0.5296010000000 1.0
C      1  0.5406200000000  0.5102470000000  0.4703990000000 1.0
C      1  0.5102470000000  0.5296010000000  0.4593800000000 1.0
C      1  0.5102470000000  0.4703990000000  0.5406200000000 1.0
C      1  0.4897530000000  0.4703990000000  0.4593800000000 1.0
C      1  0.5259830000000  0.4241260000000  0.5361730000000 1.0
C      1  0.5361730000000  0.5259830000000  0.4241260000000 1.0
C      1  0.4241260000000  0.5361730000000  0.5259830000000 1.0
C      1  0.4740170000000  0.4241260000000  0.4638270000000 1.0
C      1  0.5259830000000  0.5758740000000  0.4638270000000 1.0
C      1  0.4740170000000  0.5758740000000  0.5361730000000 1.0
C      1  0.4638270000000  0.5259830000000  0.5758740000000 1.0
C      1  0.5361730000000  0.4740170000000  0.5758740000000 1.0
C      1  0.4638270000000  0.4740170000000  0.4241260000000 1.0
C      1  0.5758740000000  0.5361730000000  0.4740170000000 1.0
C      1  0.4241260000000  0.4638270000000  0.4740170000000 1.0
C      1  0.5758740000000  0.4638270000000  0.5259830000000 1.0
C      1  0.5361730000000  0.4241260000000  0.5259830000000 1.0
C      1  0.4241260000000  0.5259830000000  0.5361730000000 1.0
C      1  0.5259830000000  0.5361730000000  0.4241260000000 1.0
C      1  0.4638270000000  0.4241260000000  0.4740170000000 1.0
C      1  0.4638270000000  0.5758740000000  0.5259830000000 1.0
C      1  0.5361730000000  0.5758740000000  0.4740170000000 1.0
C      1  0.5758740000000  0.5259830000000  0.4638270000000 1.0
C      1  0.5758740000000  0.4740170000000  0.5361730000000 1.0
C      1  0.4241260000000  0.4740170000000  0.4638270000000 1.0
C      1  0.4740170000000  0.5361730000000  0.5758740000000 1.0
C      1  0.4740170000000  0.4638270000000  0.4241260000000 1.0
C      1  0.5259830000000  0.4638270000000  0.5758740000000 1.0
C      1  0.5724170000000  0.5076560000000  0.4816130000000 1.0
C      1  0.4816130000000  0.5724170000000  0.5076560000000 1.0
C      1  0.5076560000000  0.4816130000000  0.5724170000000 1.0
C      1  0.4275830000000  0.5076560000000  0.5183870000000 1.0
C      1  0.5724170000000  0.4923440000000  0.5183870000000 1.0
C      1  0.4275830000000  0.4923440000000  0.4816130000000 1.0
C      1  0.5183870000000  0.5724170000000  0.4923440000000 1.0
C      1  0.4816130000000  0.4275830000000  0.4923440000000 1.0
C      1  0.5183870000000  0.4275830000000  0.5076560000000 1.0
C      1  0.4923440000000  0.4816130000000  0.4275830000000 1.0
C      1  0.5076560000000  0.5183870000000  0.4275830000000 1.0
C      1  0.4923440000000  0.5183870000000  0.5724170000000 1.0
C      1  0.4816130000000  0.5076560000000  0.5724170000000 1.0
C      1  0.5076560000000  0.5724170000000  0.4816130000000 1.0
C      1  0.5724170000000  0.4816130000000  0.5076560000000 1.0
C      1  0.5183870000000  0.5076560000000  0.4275830000000 1.0
C      1  0.5183870000000  0.4923440000000  0.5724170000000 1.0
C      1  0.4816130000000  0.4923440000000  0.4275830000000 1.0
C      1  0.4923440000000  0.5724170000000  0.5183870000000 1.0
C      1  0.4923440000000  0.4275830000000  0.4816130000000 1.0
C      1  0.5076560000000  0.4275830000000  0.5183870000000 1.0
C      1  0.4275830000000  0.4816130000000  0.4923440000000 1.0
C      1  0.4275830000000  0.5183870000000  0.5076560000000 1.0
C      1  0.5724170000000  0.5183870000000  0.4923440000000 1.0
C      1  0.5002360000000  0.5854000000000  0.4888280000000 1.0
C      1  0.4888280000000  0.5002360000000  0.5854000000000 1.0
C      1  0.5854000000000  0.4888280000000  0.5002360000000 1.0
C      1  0.4997640000000  0.5854000000000  0.5111720000000 1.0
C      1  0.5002360000000  0.4146000000000  0.5111720000000 1.0
C      1  0.4997640000000  0.4146000000000  0.4888280000000 1.0
C      1  0.5111720000000  0.5002360000000  0.4146000000000 1.0
C      1  0.4888280000000  0.4997640000000  0.4146000000000 1.0
C      1  0.5111720000000  0.4997640000000  0.5854000000000 1.0
C      1  0.4146000000000  0.4888280000000  0.4997640000000 1.0
C      1  0.5854000000000  0.5111720000000  0.4997640000000 1.0
C      1  0.4146000000000  0.5111720000000  0.5002360000000 1.0
C      1  0.4888280000000  0.5854000000000  0.5002360000000 1.0
C      1  0.5854000000000  0.5002360000000  0.4888280000000 1.0
C      1  0.5002360000000  0.4888280000000  0.5854000000000 1.0
C      1  0.5111720000000  0.5854000000000  0.4997640000000 1.0
C      1  0.5111720000000  0.4146000000000  0.5002360000000 1.0
C      1  0.4888280000000  0.4146000000000  0.4997640000000 1.0
C      1  0.4146000000000  0.5002360000000  0.5111720000000 1.0
C      1  0.4146000000000  0.4997640000000  0.4888280000000 1.0
C      1  0.5854000000000  0.4997640000000  0.5111720000000 1.0
C      1  0.4997640000000  0.4888280000000  0.4146000000000 1.0
C      1  0.4997640000000  0.5111720000000  0.5854000000000 1.0
C      1  0.5002360000000  0.5111720000000  0.4146000000000 1.0
C      1  0.4328680000000  0.4528420000000  0.4707040000000 1.0
C      1  0.4707040000000  0.4328680000000  0.4528420000000 1.0
C      1  0.4528420000000  0.4707040000000  0.4328680000000 1.0
C      1  0.5671320000000  0.4528420000000  0.5292960000000 1.0
C      1  0.4328680000000  0.5471580000000  0.5292960000000 1.0
C      1  0.5671320000000  0.5471580000000  0.4707040000000 1.0
C      1  0.5292960000000  0.4328680000000  0.5471580000000 1.0
C      1  0.4707040000000  0.5671320000000  0.5471580000000 1.0
C      1  0.5292960000000  0.5671320000000  0.4528420000000 1.0
C      1  0.5471580000000  0.4707040000000  0.5671320000000 1.0
C      1  0.4528420000000  0.5292960000000  0.5671320000000 1.0
C      1  0.5471580000000  0.5292960000000  0.4328680000000 1.0
C      1  0.4707040000000  0.4528420000000  0.4328680000000 1.0
C      1  0.4528420000000  0.4328680000000  0.4707040000000 1.0
C      1  0.4328680000000  0.4707040000000  0.4528420000000 1.0
C      1  0.5292960000000  0.4528420000000  0.5671320000000 1.0
C      1  0.5292960000000  0.5471580000000  0.4328680000000 1.0
C      1  0.4707040000000  0.5471580000000  0.5671320000000 1.0
C      1  0.5471580000000  0.4328680000000  0.5292960000000 1.0
C      1  0.5471580000000  0.5671320000000  0.4707040000000 1.0
C      1  0.4528420000000  0.5671320000000  0.5292960000000 1.0
C      1  0.5671320000000  0.4707040000000  0.5471580000000 1.0
C      1  0.5671320000000  0.5292960000000  0.4528420000000 1.0
C      1  0.4328680000000  0.5292960000000  0.5471580000000 1.0
C      1  0.5144810000000  0.5681480000000  0.5241120000000 1.0
C      1  0.5241120000000  0.5144810000000  0.5681480000000 1.0
C      1  0.5681480000000  0.5241120000000  0.5144810000000 1.0
C      1  0.4855190000000  0.5681480000000  0.4758880000000 1.0
C      1  0.5144810000000  0.4318520000000  0.4758880000000 1.0
C      1  0.4855190000000  0.4318520000000  0.5241120000000 1.0
C      1  0.4758880000000  0.5144810000000  0.4318520000000 1.0
C      1  0.5241120000000  0.4855190000000  0.4318520000000 1.0
C      1  0.4758880000000  0.4855190000000  0.5681480000000 1.0
C      1  0.4318520000000  0.5241120000000  0.4855190000000 1.0
C      1  0.5681480000000  0.4758880000000  0.4855190000000 1.0
C      1  0.4318520000000  0.4758880000000  0.5144810000000 1.0
C      1  0.5241120000000  0.5681480000000  0.5144810000000 1.0
C      1  0.5681480000000  0.5144810000000  0.5241120000000 1.0
C      1  0.5144810000000  0.5241120000000  0.5681480000000 1.0
C      1  0.4758880000000  0.5681480000000  0.4855190000000 1.0
C      1  0.4758880000000  0.4318520000000  0.5144810000000 1.0
C      1  0.5241120000000  0.4318520000000  0.4855190000000 1.0
C      1  0.4318520000000  0.5144810000000  0.4758880000000 1.0
C      1  0.4318520000000  0.4855190000000  0.5241120000000 1.0
C      1  0.5681480000000  0.4855190000000  0.4758880000000 1.0
C      1  0.4855190000000  0.5241120000000  0.4318520000000 1.0
C      1  0.4855190000000  0.4758880000000  0.5681480000000 1.0
C      1  0.5144810000000  0.4758880000000  0.4318520000000 1.0
C      1  0.5017530000000  0.5235310000000  0.5920890000000 1.0
C      1  0.5920890000000  0.5017530000000  0.5235310000000 1.0
C      1  0.5235310000000  0.5920890000000  0.5017530000000 1.0
C      1  0.4982470000000  0.5235310000000  0.4079110000000 1.0
C      1  0.5017530000000  0.4764690000000  0.4079110000000 1.0
C      1  0.4982470000000  0.4764690000000  0.5920890000000 1.0
C      1  0.4079110000000  0.5017530000000  0.4764690000000 1.0
C      1  0.5920890000000  0.4982470000000  0.4764690000000 1.0
C      1  0.4079110000000  0.4982470000000  0.5235310000000 1.0
C      1  0.4764690000000  0.5920890000000  0.4982470000000 1.0
C      1  0.5235310000000  0.4079110000000  0.4982470000000 1.0
C      1  0.4764690000000  0.4079110000000  0.5017530000000 1.0
C      1  0.5920890000000  0.5235310000000  0.5017530000000 1.0
C      1  0.5235310000000  0.5017530000000  0.5920890000000 1.0
C      1  0.5017530000000  0.5920890000000  0.5235310000000 1.0
C      1  0.4079110000000  0.5235310000000  0.4982470000000 1.0
C      1  0.4079110000000  0.4764690000000  0.5017530000000 1.0
C      1  0.5920890000000  0.4764690000000  0.4982470000000 1.0
C      1  0.4764690000000  0.5017530000000  0.4079110000000 1.0
C      1  0.4764690000000  0.4982470000000  0.5920890000000 1.0
C      1  0.5235310000000  0.4982470000000  0.4079110000000 1.0
C      1  0.4982470000000  0.5920890000000  0.4764690000000 1.0
C      1  0.4982470000000  0.4079110000000  0.5235310000000 1.0
C      1  0.5017530000000  0.4079110000000  0.4764690000000 1.0
C      1  0.5455010000000  0.4746120000000  0.4648080000000 1.0
C      1  0.4648080000000  0.5455010000000  0.4746120000000 1.0
C      1  0.4746120000000  0.4648080000000  0.5455010000000 1.0
C      1  0.4544990000000  0.4746120000000  0.5351920000000 1.0
C      1  0.5455010000000  0.5253880000000  0.5351920000000 1.0
C      1  0.4544990000000  0.5253880000000  0.4648080000000 1.0
C      1  0.5351920000000  0.5455010000000  0.5253880000000 1.0
C      1  0.4648080000000  0.4544990000000  0.5253880000000 1.0
C      1  0.5351920000000  0.4544990000000  0.4746120000000 1.0
C      1  0.5253880000000  0.4648080000000  0.4544990000000 1.0
C      1  0.4746120000000  0.5351920000000  0.4544990000000 1.0
C      1  0.5253880000000  0.5351920000000  0.5455010000000 1.0
C      1  0.4648080000000  0.4746120000000  0.5455010000000 1.0
C      1  0.4746120000000  0.5455010000000  0.4648080000000 1.0
C      1  0.5455010000000  0.4648080000000  0.4746120000000 1.0
C      1  0.5351920000000  0.4746120000000  0.4544990000000 1.0
C      1  0.5351920000000  0.5253880000000  0.5455010000000 1.0
C      1  0.4648080000000  0.5253880000000  0.4544990000000 1.0
C      1  0.5253880000000  0.5455010000000  0.5351920000000 1.0
C      1  0.5253880000000  0.4544990000000  0.4648080000000 1.0
C      1  0.4746120000000  0.4544990000000  0.5351920000000 1.0
C      1  0.4544990000000  0.4648080000000  0.5253880000000 1.0
C      1  0.4544990000000  0.5351920000000  0.4746120000000 1.0
C      1  0.5455010000000  0.5351920000000  0.5253880000000 1.0
C      1  0.5063830000000  0.5423930000000  0.4379140000000 1.0
C      1  0.4379140000000  0.5063830000000  0.5423930000000 1.0
C      1  0.5423930000000  0.4379140000000  0.5063830000000 1.0
C      1  0.4936170000000  0.5423930000000  0.5620860000000 1.0
C      1  0.5063830000000  0.4576070000000  0.5620860000000 1.0
C      1  0.4936170000000  0.4576070000000  0.4379140000000 1.0
C      1  0.5620860000000  0.5063830000000  0.4576070000000 1.0
C      1  0.4379140000000  0.4936170000000  0.4576070000000 1.0
C      1  0.5620860000000  0.4936170000000  0.5423930000000 1.0
C      1  0.4576070000000  0.4379140000000  0.4936170000000 1.0
C      1  0.5423930000000  0.5620860000000  0.4936170000000 1.0
C      1  0.4576070000000  0.5620860000000  0.5063830000000 1.0
C      1  0.4379140000000  0.5423930000000  0.5063830000000 1.0
C      1  0.5423930000000  0.5063830000000  0.4379140000000 1.0
C      1  0.5063830000000  0.4379140000000  0.5423930000000 1.0
C      1  0.5620860000000  0.5423930000000  0.4936170000000 1.0
C      1  0.5620860000000  0.4576070000000  0.5063830000000 1.0
C      1  0.4379140000000  0.4576070000000  0.4936170000000 1.0
C      1  0.4576070000000  0.5063830000000  0.5620860000000 1.0
C      1  0.4576070000000  0.4936170000000  0.4379140000000 1.0
C      1  0.5423930000000  0.4936170000000  0.5620860000000 1.0
C      1  0.4936170000000  0.4379140000000  0.4576070000000 1.0
C      1  0.4936170000000  0.5620860000000  0.5423930000000 1.0
C      1  0.5063830000000  0.5620860000000  0.4576070000000 1.0
END
