TITL C-1887012-575-28 -2.37921068299558e-07 1000000 -1944.54505382991 0 0 280 (C1) n - 1
REM
REM in /nfs/bkarasulu/CARBON/AIRSS/Generating-Clusters/GAP-ML-2020/Higher-Symm/Selected-Sizes/TryA-Only_Ih-Symm/Larger-Clusters
REM
REM
REM
REM
REM
REM ./C.cell (2cf5181f0f1d4d5b12b972d32ad12063)
REM
REM compiler GCC version 9.2.1 20190827 (Red Hat 9.2.1-1)
REM options -cpp -mtune=generic -march=x86-64 -g -O0 -fpre-include=/usr/include/finclude/math-vector-fortran.h
REM seed -879623250 -1702793270 997511201 -1676796441 -2145471248 -364281588 507528049 -1098020092 -203396849 -1985668735 -443788103 -648101840 -727188438 -1792297508 1663542017 257932253 -1356323649 -1404026662 809575121 -1775395788 460160777 -1602216783 -852865582 -162927406 1429179147 -1302333078 1478062968 396438528 1683230875 333704697 1478995058 894805343 945752675
REM
CELL 1.54180  100.00000  100.00000  100.00000   90.00000   90.00000   90.00000
LATT -1
SFAC C  
C      1  0.5200880000000  0.4729610000000  0.4910900000000 1.0
C      1  0.4879750000000  0.5194960000000  0.4691830000000 1.0
C      1  0.4709390000000  0.4925650000000  0.5192200000000 1.0
C      1  0.5175070000000  0.5263560000000  0.5079110000000 1.0
C      1  0.4801410000000  0.5270870000000  0.4914830000000 1.0
C      1  0.4804490000000  0.4729150000000  0.5092740000000 1.0
C      1  0.4880470000000  0.4813950000000  0.5315270000000 1.0
C      1  0.5100850000000  0.4811530000000  0.4705510000000 1.0
C      1  0.5082770000000  0.5163040000000  0.5287420000000 1.0
C      1  0.4730180000000  0.5054110000000  0.4827530000000 1.0
C      1  0.5296440000000  0.5085150000000  0.5185070000000 1.0
C      1  0.5254040000000  0.4957850000000  0.4825280000000 1.0
C      1  0.5184040000000  0.4923320000000  0.4709170000000 1.0
C      1  0.4902230000000  0.4726200000000  0.5193410000000 1.0
C      1  0.4710190000000  0.5165750000000  0.4911400000000 1.0
C      1  0.5194830000000  0.5080410000000  0.5297900000000 1.0
C      1  0.4825130000000  0.4945670000000  0.5270870000000 1.0
C      1  0.4796900000000  0.5083340000000  0.4707040000000 1.0
C      1  0.4864790000000  0.5310970000000  0.4786010000000 1.0
C      1  0.5102230000000  0.4720580000000  0.4811840000000 1.0
C      1  0.5087360000000  0.5265690000000  0.5190330000000 1.0
C      1  0.4710900000000  0.4834130000000  0.5084570000000 1.0
C      1  0.5264090000000  0.5157190000000  0.5060240000000 1.0
C      1  0.5309090000000  0.4838520000000  0.4896700000000 1.0
C      1  0.4962520000000  0.4724700000000  0.4496680000000 1.0
C      1  0.4546080000000  0.4928630000000  0.4736040000000 1.0
C      1  0.4733740000000  0.4515080000000  0.4955240000000 1.0
C      1  0.4949370000000  0.5248780000000  0.5491390000000 1.0
C      1  0.5027520000000  0.5277090000000  0.4486880000000 1.0
C      1  0.5042140000000  0.4727350000000  0.5501190000000 1.0
C      1  0.4488130000000  0.5050950000000  0.5281340000000 1.0
C      1  0.5444070000000  0.5081850000000  0.4732980000000 1.0
C      1  0.5462570000000  0.4922690000000  0.5267460000000 1.0
C      1  0.4741700000000  0.5485670000000  0.5045580000000 1.0
C      1  0.5253640000000  0.5479320000000  0.4951070000000 1.0
C      1  0.5268860000000  0.4516580000000  0.5048660000000 1.0
C      1  0.4963500000000  0.4510310000000  0.4738440000000 1.0
C      1  0.4514420000000  0.4746950000000  0.4945710000000 1.0
C      1  0.4735820000000  0.4944650000000  0.4483750000000 1.0
C      1  0.4959280000000  0.5482660000000  0.5270980000000 1.0
C      1  0.5039260000000  0.4514820000000  0.5264850000000 1.0
C      1  0.5028380000000  0.5500140000000  0.4721160000000 1.0
C      1  0.4507560000000  0.5266170000000  0.5046240000000 1.0
C      1  0.5485530000000  0.4747140000000  0.5058360000000 1.0
C      1  0.5471040000000  0.5248200000000  0.4935600000000 1.0
C      1  0.4745500000000  0.5070090000000  0.5468250000000 1.0
C      1  0.5271390000000  0.4940310000000  0.5515950000000 1.0
C      1  0.5257340000000  0.5052700000000  0.4488520000000 1.0
C      1  0.5021020000000  0.4334970000000  0.4436930000000 1.0
C      1  0.4417500000000  0.4989910000000  0.4340700000000 1.0
C      1  0.4331420000000  0.4452250000000  0.5003830000000 1.0
C      1  0.5012990000000  0.5642340000000  0.5578880000000 1.0
C      1  0.4986270000000  0.5665700000000  0.4411840000000 1.0
C      1  0.4993960000000  0.4331980000000  0.5564250000000 1.0
C      1  0.4468650000000  0.5022880000000  0.5663310000000 1.0
C      1  0.5579170000000  0.5016190000000  0.4353620000000 1.0
C      1  0.5587840000000  0.4978540000000  0.5668320000000 1.0
C      1  0.4343540000000  0.5576230000000  0.4995760000000 1.0
C      1  0.5647630000000  0.5532550000000  0.4992650000000 1.0
C      1  0.5665320000000  0.4447550000000  0.5011950000000 1.0
C      1  0.5025400000000  0.4414480000000  0.4339120000000 1.0
C      1  0.4418910000000  0.4361440000000  0.5000730000000 1.0
C      1  0.4353130000000  0.4980670000000  0.4449190000000 1.0
C      1  0.5009980000000  0.5549290000000  0.5663870000000 1.0
C      1  0.4992430000000  0.4415850000000  0.5658100000000 1.0
C      1  0.4981110000000  0.5586540000000  0.4313580000000 1.0
C      1  0.4443550000000  0.5653020000000  0.4998800000000 1.0
C      1  0.5580620000000  0.4354350000000  0.5013440000000 1.0
C      1  0.5568710000000  0.5630750000000  0.4995890000000 1.0
C      1  0.4357570000000  0.5009390000000  0.5603950000000 1.0
C      1  0.5653870000000  0.4966880000000  0.5561170000000 1.0
C      1  0.5642970000000  0.5032920000000  0.4461590000000 1.0
C      1  0.4982080000000  0.4802560000000  0.4616200000000 1.0
C      1  0.4672610000000  0.4912660000000  0.4836450000000 1.0
C      1  0.4799310000000  0.4642440000000  0.4972540000000 1.0
C      1  0.4965080000000  0.5155790000000  0.5381090000000 1.0
C      1  0.4997380000000  0.5199950000000  0.4605430000000 1.0
C      1  0.5018170000000  0.4809960000000  0.5386910000000 1.0
C      1  0.4605210000000  0.5024510000000  0.5205460000000 1.0
C      1  0.5309560000000  0.5097860000000  0.4822070000000 1.0
C      1  0.5336540000000  0.4919240000000  0.5165600000000 1.0
C      1  0.4800020000000  0.5353060000000  0.5035390000000 1.0
C      1  0.5178200000000  0.5356350000000  0.4963940000000 1.0
C      1  0.5206440000000  0.4646180000000  0.5030260000000 1.0
C      1  0.4977060000000  0.4637700000000  0.4806990000000 1.0
C      1  0.4622820000000  0.4841960000000  0.4963610000000 1.0
C      1  0.4801340000000  0.4974020000000  0.4608810000000 1.0
C      1  0.4970530000000  0.5355470000000  0.5203880000000 1.0
C      1  0.5026160000000  0.4646150000000  0.5198950000000 1.0
C      1  0.5007100000000  0.5374960000000  0.4788390000000 1.0
C      1  0.4619290000000  0.5177950000000  0.5027040000000 1.0
C      1  0.5386850000000  0.4850310000000  0.5037330000000 1.0
C      1  0.5357400000000  0.5160310000000  0.4946800000000 1.0
C      1  0.4836350000000  0.5083340000000  0.5336270000000 1.0
C      1  0.5201420000000  0.4972480000000  0.5394440000000 1.0
C      1  0.5176840000000  0.5026420000000  0.4604670000000 1.0
C      1  0.5214250000000  0.5648610000000  0.5446490000000 1.0
C      1  0.5459270000000  0.5184620000000  0.5683390000000 1.0
C      1  0.5666600000000  0.5400320000000  0.5191740000000 1.0
C      1  0.5217350000000  0.4326110000000  0.4568570000000 1.0
C      1  0.4790100000000  0.4335160000000  0.5442820000000 1.0
C      1  0.4789220000000  0.5689720000000  0.4545480000000 1.0
C      1  0.5459150000000  0.4805310000000  0.4341710000000 1.0
C      1  0.4589590000000  0.4825570000000  0.5681620000000 1.0
C      1  0.4544340000000  0.5195270000000  0.4313120000000 1.0
C      1  0.5680990000000  0.4584200000000  0.4813450000000 1.0
C      1  0.4325370000000  0.4580880000000  0.5205480000000 1.0
C      1  0.4341660000000  0.5440190000000  0.4794560000000 1.0
C      1  0.5205770000000  0.5417820000000  0.5682470000000 1.0
C      1  0.5444880000000  0.5640250000000  0.5199040000000 1.0
C      1  0.5669300000000  0.5161970000000  0.5430250000000 1.0
C      1  0.5223910000000  0.4552670000000  0.4332050000000 1.0
C      1  0.4778550000000  0.5457130000000  0.4316050000000 1.0
C      1  0.4797830000000  0.4556880000000  0.5684770000000 1.0
C      1  0.5458760000000  0.4340710000000  0.4809720000000 1.0
C      1  0.4564010000000  0.5679650000000  0.4799970000000 1.0
C      1  0.4547980000000  0.4340130000000  0.5200200000000 1.0
C      1  0.5667830000000  0.4839870000000  0.4592580000000 1.0
C      1  0.4343680000000  0.5178190000000  0.4574560000000 1.0
C      1  0.4340250000000  0.4802710000000  0.5471190000000 1.0
C      1  0.5271880000000  0.4500490000000  0.5388330000000 1.0
C      1  0.5370460000000  0.5297220000000  0.4500310000000 1.0
C      1  0.4520060000000  0.5392220000000  0.5279360000000 1.0
C      1  0.5263250000000  0.5496960000000  0.4608600000000 1.0
C      1  0.4722770000000  0.5492570000000  0.5384210000000 1.0
C      1  0.4730570000000  0.4503540000000  0.4613070000000 1.0
C      1  0.5381500000000  0.4698500000000  0.5496830000000 1.0
C      1  0.4622240000000  0.4702690000000  0.4504240000000 1.0
C      1  0.4610060000000  0.5294690000000  0.5487080000000 1.0
C      1  0.4526410000000  0.4605410000000  0.4714450000000 1.0
C      1  0.5474950000000  0.4601010000000  0.5286610000000 1.0
C      1  0.5469990000000  0.5398620000000  0.4708870000000 1.0
C      1  0.5262800000000  0.5396180000000  0.4508790000000 1.0
C      1  0.5377000000000  0.4501210000000  0.5285110000000 1.0
C      1  0.4508340000000  0.5294460000000  0.5389280000000 1.0
C      1  0.5272990000000  0.4599280000000  0.5489270000000 1.0
C      1  0.4720150000000  0.5393280000000  0.5482520000000 1.0
C      1  0.4729200000000  0.4600680000000  0.4510250000000 1.0
C      1  0.5367990000000  0.5494170000000  0.4713070000000 1.0
C      1  0.4625130000000  0.4506370000000  0.4716940000000 1.0
C      1  0.4619170000000  0.5493020000000  0.5278300000000 1.0
C      1  0.4523630000000  0.4704240000000  0.4604770000000 1.0
C      1  0.5472410000000  0.5301500000000  0.4597310000000 1.0
C      1  0.5480670000000  0.4697830000000  0.5397450000000 1.0
C      1  0.5182450000000  0.5346420000000  0.5477170000000 1.0
C      1  0.5453050000000  0.5158630000000  0.5366390000000 1.0
C      1  0.5368600000000  0.5442880000000  0.5172750000000 1.0
C      1  0.5186440000000  0.4623220000000  0.4527210000000 1.0
C      1  0.4814820000000  0.4635730000000  0.5474030000000 1.0
C      1  0.4809440000000  0.5388680000000  0.4502170000000 1.0
C      1  0.5448650000000  0.4832590000000  0.4664780000000 1.0
C      1  0.4531280000000  0.4832510000000  0.5390160000000 1.0
C      1  0.4554660000000  0.5166490000000  0.4623740000000 1.0
C      1  0.5380910000000  0.4533400000000  0.4830210000000 1.0
C      1  0.4624920000000  0.4540450000000  0.5176840000000 1.0
C      1  0.4653440000000  0.5468870000000  0.4807400000000 1.0
C      1  0.5181270000000  0.5447160000000  0.5380110000000 1.0
C      1  0.5450450000000  0.5316200000000  0.5180170000000 1.0
C      1  0.5377430000000  0.5155570000000  0.5491960000000 1.0
C      1  0.5187920000000  0.4529080000000  0.4631020000000 1.0
C      1  0.4804240000000  0.5478250000000  0.4615870000000 1.0
C      1  0.4817800000000  0.4526830000000  0.5378690000000 1.0
C      1  0.5464970000000  0.4653170000000  0.4826920000000 1.0
C      1  0.4536110000000  0.5379110000000  0.4823490000000 1.0
C      1  0.4529570000000  0.4644410000000  0.5177630000000 1.0
C      1  0.5372520000000  0.4834220000000  0.4533420000000 1.0
C      1  0.4634390000000  0.5167680000000  0.4505990000000 1.0
C      1  0.4661050000000  0.4822980000000  0.5463140000000 1.0
C      1  0.5061470000000  0.4637180000000  0.4455940000000 1.0
C      1  0.4502320000000  0.5032400000000  0.4658270000000 1.0
C      1  0.4643240000000  0.4473210000000  0.5049810000000 1.0
C      1  0.5053670000000  0.5327000000000  0.5540550000000 1.0
C      1  0.4935470000000  0.5367360000000  0.4437550000000 1.0
C      1  0.4945500000000  0.4639620000000  0.5545020000000 1.0
C      1  0.4458810000000  0.4957530000000  0.5378700000000 1.0
C      1  0.5501770000000  0.4975680000000  0.4671410000000 1.0
C      1  0.5512480000000  0.5020220000000  0.5348740000000 1.0
C      1  0.4664240000000  0.5536480000000  0.4942160000000 1.0
C      1  0.5345860000000  0.5513840000000  0.5048630000000 1.0
C      1  0.5359070000000  0.4469810000000  0.4956290000000 1.0
C      1  0.5061970000000  0.4462750000000  0.4654250000000 1.0
C      1  0.4464300000000  0.4668390000000  0.5049770000000 1.0
C      1  0.4646750000000  0.5040740000000  0.4438210000000 1.0
C      1  0.5056930000000  0.5520520000000  0.5359910000000 1.0
C      1  0.4942870000000  0.4463870000000  0.5349540000000 1.0
C      1  0.4935830000000  0.5546580000000  0.4628980000000 1.0
C      1  0.4468840000000  0.5358420000000  0.4950220000000 1.0
C      1  0.5534010000000  0.4663630000000  0.4959320000000 1.0
C      1  0.5519990000000  0.5316350000000  0.5044840000000 1.0
C      1  0.4677290000000  0.4963860000000  0.5520660000000 1.0
C      1  0.5364730000000  0.5031110000000  0.5560590000000 1.0
C      1  0.5353660000000  0.4957070000000  0.4458340000000 1.0
C      1  0.4546280000000  0.4364030000000  0.5062810000000 1.0
C      1  0.5084890000000  0.4543470000000  0.4347130000000 1.0
C      1  0.4379490000000  0.5043170000000  0.4573830000000 1.0
C      1  0.4568150000000  0.5643900000000  0.4934900000000 1.0
C      1  0.5442610000000  0.5623720000000  0.5061560000000 1.0
C      1  0.5455250000000  0.4360470000000  0.4947500000000 1.0
C      1  0.5069190000000  0.5420710000000  0.5654630000000 1.0
C      1  0.4917920000000  0.5460290000000  0.4327820000000 1.0
C      1  0.4932830000000  0.4543950000000  0.5651740000000 1.0
C      1  0.4355720000000  0.4940780000000  0.5479370000000 1.0
C      1  0.5621570000000  0.4970940000000  0.4586120000000 1.0
C      1  0.5630110000000  0.5027390000000  0.5436180000000 1.0
C      1  0.4543510000000  0.5057140000000  0.4336060000000 1.0
C      1  0.5079430000000  0.4347810000000  0.4564810000000 1.0
C      1  0.4347440000000  0.4579280000000  0.5067180000000 1.0
C      1  0.4590650000000  0.4958350000000  0.5638560000000 1.0
C      1  0.5462800000000  0.5046450000000  0.5666490000000 1.0
C      1  0.5456340000000  0.4943530000000  0.4355340000000 1.0
C      1  0.5075810000000  0.5632330000000  0.5451960000000 1.0
C      1  0.4928970000000  0.4350370000000  0.5439620000000 1.0
C      1  0.4925560000000  0.5656500000000  0.4537420000000 1.0
C      1  0.4355370000000  0.5448580000000  0.4932850000000 1.0
C      1  0.5647550000000  0.4573240000000  0.4948490000000 1.0
C      1  0.5631920000000  0.5407840000000  0.5057500000000 1.0
C      1  0.4707790000000  0.5600910000000  0.4604650000000 1.0
C      1  0.4637460000000  0.4734890000000  0.5596370000000 1.0
C      1  0.5589700000000  0.4642310000000  0.4733220000000 1.0
C      1  0.4709860000000  0.4427060000000  0.5381560000000 1.0
C      1  0.5294890000000  0.4422920000000  0.4627070000000 1.0
C      1  0.5289390000000  0.5551060000000  0.5384090000000 1.0
C      1  0.4612700000000  0.5273460000000  0.4402160000000 1.0
C      1  0.5389890000000  0.5261420000000  0.5593310000000 1.0
C      1  0.5393420000000  0.4725800000000  0.4431790000000 1.0
C      1  0.5578560000000  0.5339890000000  0.5272580000000 1.0
C      1  0.4434180000000  0.5372130000000  0.4718250000000 1.0
C      1  0.4421880000000  0.4636840000000  0.5284850000000 1.0
C      1  0.4719240000000  0.4621900000000  0.5597190000000 1.0
C      1  0.4620980000000  0.5595000000000  0.4714150000000 1.0
C      1  0.5584110000000  0.4749800000000  0.4645000000000 1.0
C      1  0.4700300000000  0.5386630000000  0.4403160000000 1.0
C      1  0.5297040000000  0.4620370000000  0.4426700000000 1.0
C      1  0.5286600000000  0.5358400000000  0.5589740000000 1.0
C      1  0.4611490000000  0.4431380000000  0.5280570000000 1.0
C      1  0.5383210000000  0.5547630000000  0.5278130000000 1.0
C      1  0.5393800000000  0.4428060000000  0.4727390000000 1.0
C      1  0.5580830000000  0.5247980000000  0.5376650000000 1.0
C      1  0.4427890000000  0.4726320000000  0.5396490000000 1.0
C      1  0.4437390000000  0.5265830000000  0.4624100000000 1.0
C      1  0.5166870000000  0.5291610000000  0.4463890000000 1.0
C      1  0.4462180000000  0.5191820000000  0.5291010000000 1.0
C      1  0.5274530000000  0.4469350000000  0.5181980000000 1.0
C      1  0.5178300000000  0.4703720000000  0.5533620000000 1.0
C      1  0.4825350000000  0.4704840000000  0.4463880000000 1.0
C      1  0.4816730000000  0.5289040000000  0.5523770000000 1.0
C      1  0.4487020000000  0.4806070000000  0.4705900000000 1.0
C      1  0.5518050000000  0.4799500000000  0.5297620000000 1.0
C      1  0.5508880000000  0.5200000000000  0.4697490000000 1.0
C      1  0.5265420000000  0.5526990000000  0.4816130000000 1.0
C      1  0.4725590000000  0.5530920000000  0.5180130000000 1.0
C      1  0.4726500000000  0.4470950000000  0.4819860000000 1.0
C      1  0.5172680000000  0.4469530000000  0.5280290000000 1.0
C      1  0.4476020000000  0.5286740000000  0.5184230000000 1.0
C      1  0.5270740000000  0.5193040000000  0.4459420000000 1.0
C      1  0.5165760000000  0.5535150000000  0.4714280000000 1.0
C      1  0.4828420000000  0.4468830000000  0.4721240000000 1.0
C      1  0.4824930000000  0.5530490000000  0.5281590000000 1.0
C      1  0.4485930000000  0.4709200000000  0.4811850000000 1.0
C      1  0.5508870000000  0.5294230000000  0.4805300000000 1.0
C      1  0.5516010000000  0.4704460000000  0.5190440000000 1.0
C      1  0.5282900000000  0.4800710000000  0.5541440000000 1.0
C      1  0.4710180000000  0.5193020000000  0.5525380000000 1.0
C      1  0.4722740000000  0.4803900000000  0.4459030000000 1.0
C      1  0.5107570000000  0.5132200000000  0.4667270000000 1.0
C      1  0.4678860000000  0.5124010000000  0.5142150000000 1.0
C      1  0.5154270000000  0.4710060000000  0.5150350000000 1.0
C      1  0.5202850000000  0.4829520000000  0.5208060000000 1.0
C      1  0.5180020000000  0.5186170000000  0.4777410000000 1.0
C      1  0.5123740000000  0.5299530000000  0.4841240000000 1.0
C      1  0.4846960000000  0.5293370000000  0.5162250000000 1.0
C      1  0.5131500000000  0.4871720000000  0.5323450000000 1.0
C      1  0.4789330000000  0.5176830000000  0.5214100000000 1.0
C      1  0.4865780000000  0.4864900000000  0.4673970000000 1.0
C      1  0.4798460000000  0.4819170000000  0.4789240000000 1.0
C      1  0.4850830000000  0.4704160000000  0.4852190000000 1.0
C      1  0.5390660000000  0.4771270000000  0.4786690000000 1.0
C      1  0.4761690000000  0.5403710000000  0.4732050000000 1.0
C      1  0.4773460000000  0.4753130000000  0.5400130000000 1.0
C      1  0.5385760000000  0.5196010000000  0.5243490000000 1.0
END
