TITL C-1887018-2751-35 7.54265243811117e-07 1000000 -4281.01314873665 0 0 600 (Td) n - 1
REM
REM in /nfs/bkarasulu/CARBON/AIRSS/Generating-Clusters/GAP-ML-2020/Higher-Symm/Selected-Sizes/TryA-Only_Ih-Symm/Larger-Clusters
REM
REM
REM
REM
REM
REM ./C.cell (2cf5181f0f1d4d5b12b972d32ad12063)
REM
REM compiler GCC version 9.2.1 20190827 (Red Hat 9.2.1-1)
REM options -cpp -mtune=generic -march=x86-64 -g -O0 -fpre-include=/usr/include/finclude/math-vector-fortran.h
REM seed 247029262 -1545992164 -1586736588 980245453 746730029 2057074728 1742300671 492037425 -479243913 -1751121199 -145523938 -2065713632 -1643928237 -314956525 1402788313 230688143 -1648406229 462737563 927692759 1684272222 -780562411 -1583167772 2043955626 2039635070 1457318953 755165004 -698098546 997965664 -1172344294 444853180 1933449610 874181468 523059768
REM
CELL 1.54180  100.00000  100.00000  100.00000   90.00000   90.00000   90.00000
LATT -1
SFAC C  
C      1  0.5215770000000  0.5436520000000  0.4674640000000 1.0
C      1  0.5436520000000  0.4674640000000  0.5215770000000 1.0
C      1  0.4674640000000  0.5215770000000  0.5436520000000 1.0
C      1  0.4784230000000  0.4563480000000  0.4674640000000 1.0
C      1  0.5215770000000  0.4563480000000  0.5325360000000 1.0
C      1  0.4784230000000  0.5436520000000  0.5325360000000 1.0
C      1  0.4563480000000  0.5325360000000  0.5215770000000 1.0
C      1  0.5436520000000  0.5325360000000  0.4784230000000 1.0
C      1  0.4563480000000  0.4674640000000  0.4784230000000 1.0
C      1  0.5325360000000  0.4784230000000  0.5436520000000 1.0
C      1  0.4674640000000  0.4784230000000  0.4563480000000 1.0
C      1  0.5325360000000  0.5215770000000  0.4563480000000 1.0
C      1  0.5436520000000  0.5215770000000  0.4674640000000 1.0
C      1  0.4674640000000  0.5436520000000  0.5215770000000 1.0
C      1  0.5215770000000  0.4674640000000  0.5436520000000 1.0
C      1  0.4563480000000  0.4784230000000  0.4674640000000 1.0
C      1  0.4563480000000  0.5215770000000  0.5325360000000 1.0
C      1  0.5436520000000  0.4784230000000  0.5325360000000 1.0
C      1  0.5325360000000  0.4563480000000  0.5215770000000 1.0
C      1  0.5325360000000  0.5436520000000  0.4784230000000 1.0
C      1  0.4674640000000  0.4563480000000  0.4784230000000 1.0
C      1  0.4784230000000  0.5325360000000  0.5436520000000 1.0
C      1  0.4784230000000  0.4674640000000  0.4563480000000 1.0
C      1  0.5215770000000  0.5325360000000  0.4563480000000 1.0
C      1  0.4198820000000  0.5263070000000  0.5162200000000 1.0
C      1  0.5263070000000  0.5162200000000  0.4198820000000 1.0
C      1  0.5162200000000  0.4198820000000  0.5263070000000 1.0
C      1  0.5801180000000  0.4736930000000  0.5162200000000 1.0
C      1  0.4198820000000  0.4736930000000  0.4837800000000 1.0
C      1  0.5801180000000  0.5263070000000  0.4837800000000 1.0
C      1  0.4736930000000  0.4837800000000  0.4198820000000 1.0
C      1  0.5263070000000  0.4837800000000  0.5801180000000 1.0
C      1  0.4736930000000  0.5162200000000  0.5801180000000 1.0
C      1  0.4837800000000  0.5801180000000  0.5263070000000 1.0
C      1  0.5162200000000  0.5801180000000  0.4736930000000 1.0
C      1  0.4837800000000  0.4198820000000  0.4736930000000 1.0
C      1  0.5263070000000  0.4198820000000  0.5162200000000 1.0
C      1  0.5162200000000  0.5263070000000  0.4198820000000 1.0
C      1  0.4198820000000  0.5162200000000  0.5263070000000 1.0
C      1  0.4736930000000  0.5801180000000  0.5162200000000 1.0
C      1  0.4736930000000  0.4198820000000  0.4837800000000 1.0
C      1  0.5263070000000  0.5801180000000  0.4837800000000 1.0
C      1  0.4837800000000  0.4736930000000  0.4198820000000 1.0
C      1  0.4837800000000  0.5263070000000  0.5801180000000 1.0
C      1  0.5162200000000  0.4736930000000  0.5801180000000 1.0
C      1  0.5801180000000  0.4837800000000  0.5263070000000 1.0
C      1  0.5801180000000  0.5162200000000  0.4736930000000 1.0
C      1  0.4198820000000  0.4837800000000  0.4736930000000 1.0
C      1  0.5063390000000  0.5834080000000  0.4834260000000 1.0
C      1  0.5834080000000  0.4834260000000  0.5063390000000 1.0
C      1  0.4834260000000  0.5063390000000  0.5834080000000 1.0
C      1  0.4936610000000  0.4165920000000  0.4834260000000 1.0
C      1  0.5063390000000  0.4165920000000  0.5165740000000 1.0
C      1  0.4936610000000  0.5834080000000  0.5165740000000 1.0
C      1  0.4165920000000  0.5165740000000  0.5063390000000 1.0
C      1  0.5834080000000  0.5165740000000  0.4936610000000 1.0
C      1  0.4165920000000  0.4834260000000  0.4936610000000 1.0
C      1  0.5165740000000  0.4936610000000  0.5834080000000 1.0
C      1  0.4834260000000  0.4936610000000  0.4165920000000 1.0
C      1  0.5165740000000  0.5063390000000  0.4165920000000 1.0
C      1  0.5834080000000  0.5063390000000  0.4834260000000 1.0
C      1  0.4834260000000  0.5834080000000  0.5063390000000 1.0
C      1  0.5063390000000  0.4834260000000  0.5834080000000 1.0
C      1  0.4165920000000  0.4936610000000  0.4834260000000 1.0
C      1  0.4165920000000  0.5063390000000  0.5165740000000 1.0
C      1  0.5834080000000  0.4936610000000  0.5165740000000 1.0
C      1  0.5165740000000  0.4165920000000  0.5063390000000 1.0
C      1  0.5165740000000  0.5834080000000  0.4936610000000 1.0
C      1  0.4834260000000  0.4165920000000  0.4936610000000 1.0
C      1  0.4936610000000  0.5165740000000  0.5834080000000 1.0
C      1  0.4936610000000  0.4834260000000  0.4165920000000 1.0
C      1  0.5063390000000  0.5165740000000  0.4165920000000 1.0
C      1  0.5358230000000  0.5691580000000  0.4855740000000 1.0
C      1  0.5691580000000  0.4855740000000  0.5358230000000 1.0
C      1  0.4855740000000  0.5358230000000  0.5691580000000 1.0
C      1  0.4641770000000  0.4308420000000  0.4855740000000 1.0
C      1  0.5358230000000  0.4308420000000  0.5144260000000 1.0
C      1  0.4641770000000  0.5691580000000  0.5144260000000 1.0
C      1  0.4308420000000  0.5144260000000  0.5358230000000 1.0
C      1  0.5691580000000  0.5144260000000  0.4641770000000 1.0
C      1  0.4308420000000  0.4855740000000  0.4641770000000 1.0
C      1  0.5144260000000  0.4641770000000  0.5691580000000 1.0
C      1  0.4855740000000  0.4641770000000  0.4308420000000 1.0
C      1  0.5144260000000  0.5358230000000  0.4308420000000 1.0
C      1  0.5691580000000  0.5358230000000  0.4855740000000 1.0
C      1  0.4855740000000  0.5691580000000  0.5358230000000 1.0
C      1  0.5358230000000  0.4855740000000  0.5691580000000 1.0
C      1  0.4308420000000  0.4641770000000  0.4855740000000 1.0
C      1  0.4308420000000  0.5358230000000  0.5144260000000 1.0
C      1  0.5691580000000  0.4641770000000  0.5144260000000 1.0
C      1  0.5144260000000  0.4308420000000  0.5358230000000 1.0
C      1  0.5144260000000  0.5691580000000  0.4641770000000 1.0
C      1  0.4855740000000  0.4308420000000  0.4641770000000 1.0
C      1  0.4641770000000  0.5144260000000  0.5691580000000 1.0
C      1  0.4641770000000  0.4855740000000  0.4308420000000 1.0
C      1  0.5358230000000  0.5144260000000  0.4308420000000 1.0
C      1  0.4482150000000  0.4837910000000  0.4948300000000 1.0
C      1  0.4837910000000  0.4948300000000  0.4482150000000 1.0
C      1  0.4948300000000  0.4482150000000  0.4837910000000 1.0
C      1  0.5517850000000  0.5162090000000  0.4948300000000 1.0
C      1  0.4482150000000  0.5162090000000  0.5051700000000 1.0
C      1  0.5517850000000  0.4837910000000  0.5051700000000 1.0
C      1  0.5162090000000  0.5051700000000  0.4482150000000 1.0
C      1  0.4837910000000  0.5051700000000  0.5517850000000 1.0
C      1  0.5162090000000  0.4948300000000  0.5517850000000 1.0
C      1  0.5051700000000  0.5517850000000  0.4837910000000 1.0
C      1  0.4948300000000  0.5517850000000  0.5162090000000 1.0
C      1  0.5051700000000  0.4482150000000  0.5162090000000 1.0
C      1  0.4837910000000  0.4482150000000  0.4948300000000 1.0
C      1  0.4948300000000  0.4837910000000  0.4482150000000 1.0
C      1  0.4482150000000  0.4948300000000  0.4837910000000 1.0
C      1  0.5162090000000  0.5517850000000  0.4948300000000 1.0
C      1  0.5162090000000  0.4482150000000  0.5051700000000 1.0
C      1  0.4837910000000  0.5517850000000  0.5051700000000 1.0
C      1  0.5051700000000  0.5162090000000  0.4482150000000 1.0
C      1  0.5051700000000  0.4837910000000  0.5517850000000 1.0
C      1  0.4948300000000  0.5162090000000  0.5517850000000 1.0
C      1  0.5517850000000  0.5051700000000  0.4837910000000 1.0
C      1  0.5517850000000  0.4948300000000  0.5162090000000 1.0
C      1  0.4482150000000  0.5051700000000  0.5162090000000 1.0
C      1  0.4997080000000  0.5539980000000  0.5732550000000 1.0
C      1  0.5539980000000  0.5732550000000  0.4997080000000 1.0
C      1  0.5732550000000  0.4997080000000  0.5539980000000 1.0
C      1  0.5002920000000  0.4460020000000  0.5732550000000 1.0
C      1  0.4997080000000  0.4460020000000  0.4267450000000 1.0
C      1  0.5002920000000  0.5539980000000  0.4267450000000 1.0
C      1  0.4460020000000  0.4267450000000  0.4997080000000 1.0
C      1  0.5539980000000  0.4267450000000  0.5002920000000 1.0
C      1  0.4460020000000  0.5732550000000  0.5002920000000 1.0
C      1  0.4267450000000  0.5002920000000  0.5539980000000 1.0
C      1  0.5732550000000  0.5002920000000  0.4460020000000 1.0
C      1  0.4267450000000  0.4997080000000  0.4460020000000 1.0
C      1  0.5539980000000  0.4997080000000  0.5732550000000 1.0
C      1  0.5732550000000  0.5539980000000  0.4997080000000 1.0
C      1  0.4997080000000  0.5732550000000  0.5539980000000 1.0
C      1  0.4460020000000  0.5002920000000  0.5732550000000 1.0
C      1  0.4460020000000  0.4997080000000  0.4267450000000 1.0
C      1  0.5539980000000  0.5002920000000  0.4267450000000 1.0
C      1  0.4267450000000  0.4460020000000  0.4997080000000 1.0
C      1  0.4267450000000  0.5539980000000  0.5002920000000 1.0
C      1  0.5732550000000  0.4460020000000  0.5002920000000 1.0
C      1  0.5002920000000  0.4267450000000  0.5539980000000 1.0
C      1  0.5002920000000  0.5732550000000  0.4460020000000 1.0
C      1  0.4997080000000  0.4267450000000  0.4460020000000 1.0
C      1  0.5582380000000  0.5679990000000  0.4862680000000 1.0
C      1  0.5679990000000  0.4862680000000  0.5582380000000 1.0
C      1  0.4862680000000  0.5582380000000  0.5679990000000 1.0
C      1  0.4417620000000  0.4320010000000  0.4862680000000 1.0
C      1  0.5582380000000  0.4320010000000  0.5137320000000 1.0
C      1  0.4417620000000  0.5679990000000  0.5137320000000 1.0
C      1  0.4320010000000  0.5137320000000  0.5582380000000 1.0
C      1  0.5679990000000  0.5137320000000  0.4417620000000 1.0
C      1  0.4320010000000  0.4862680000000  0.4417620000000 1.0
C      1  0.5137320000000  0.4417620000000  0.5679990000000 1.0
C      1  0.4862680000000  0.4417620000000  0.4320010000000 1.0
C      1  0.5137320000000  0.5582380000000  0.4320010000000 1.0
C      1  0.5679990000000  0.5582380000000  0.4862680000000 1.0
C      1  0.4862680000000  0.5679990000000  0.5582380000000 1.0
C      1  0.5582380000000  0.4862680000000  0.5679990000000 1.0
C      1  0.4320010000000  0.4417620000000  0.4862680000000 1.0
C      1  0.4320010000000  0.5582380000000  0.5137320000000 1.0
C      1  0.5679990000000  0.4417620000000  0.5137320000000 1.0
C      1  0.5137320000000  0.4320010000000  0.5582380000000 1.0
C      1  0.5137320000000  0.5679990000000  0.4417620000000 1.0
C      1  0.4862680000000  0.4320010000000  0.4417620000000 1.0
C      1  0.4417620000000  0.5137320000000  0.5679990000000 1.0
C      1  0.4417620000000  0.4862680000000  0.4320010000000 1.0
C      1  0.5582380000000  0.5137320000000  0.4320010000000 1.0
C      1  0.4729440000000  0.5663330000000  0.4441550000000 1.0
C      1  0.5663330000000  0.4441550000000  0.4729440000000 1.0
C      1  0.4441550000000  0.4729440000000  0.5663330000000 1.0
C      1  0.5270560000000  0.4336670000000  0.4441550000000 1.0
C      1  0.4729440000000  0.4336670000000  0.5558450000000 1.0
C      1  0.5270560000000  0.5663330000000  0.5558450000000 1.0
C      1  0.4336670000000  0.5558450000000  0.4729440000000 1.0
C      1  0.5663330000000  0.5558450000000  0.5270560000000 1.0
C      1  0.4336670000000  0.4441550000000  0.5270560000000 1.0
C      1  0.5558450000000  0.5270560000000  0.5663330000000 1.0
C      1  0.4441550000000  0.5270560000000  0.4336670000000 1.0
C      1  0.5558450000000  0.4729440000000  0.4336670000000 1.0
C      1  0.5663330000000  0.4729440000000  0.4441550000000 1.0
C      1  0.4441550000000  0.5663330000000  0.4729440000000 1.0
C      1  0.4729440000000  0.4441550000000  0.5663330000000 1.0
C      1  0.4336670000000  0.5270560000000  0.4441550000000 1.0
C      1  0.4336670000000  0.4729440000000  0.5558450000000 1.0
C      1  0.5663330000000  0.5270560000000  0.5558450000000 1.0
C      1  0.5558450000000  0.4336670000000  0.4729440000000 1.0
C      1  0.5558450000000  0.5663330000000  0.5270560000000 1.0
C      1  0.4441550000000  0.4336670000000  0.5270560000000 1.0
C      1  0.5270560000000  0.5558450000000  0.5663330000000 1.0
C      1  0.5270560000000  0.4441550000000  0.4336670000000 1.0
C      1  0.4729440000000  0.5558450000000  0.4336670000000 1.0
C      1  0.5431560000000  0.4671480000000  0.4306990000000 1.0
C      1  0.4671480000000  0.4306990000000  0.5431560000000 1.0
C      1  0.4306990000000  0.5431560000000  0.4671480000000 1.0
C      1  0.4568440000000  0.5328520000000  0.4306990000000 1.0
C      1  0.5431560000000  0.5328520000000  0.5693010000000 1.0
C      1  0.4568440000000  0.4671480000000  0.5693010000000 1.0
C      1  0.5328520000000  0.5693010000000  0.5431560000000 1.0
C      1  0.4671480000000  0.5693010000000  0.4568440000000 1.0
C      1  0.5328520000000  0.4306990000000  0.4568440000000 1.0
C      1  0.5693010000000  0.4568440000000  0.4671480000000 1.0
C      1  0.4306990000000  0.4568440000000  0.5328520000000 1.0
C      1  0.5693010000000  0.5431560000000  0.5328520000000 1.0
C      1  0.4671480000000  0.5431560000000  0.4306990000000 1.0
C      1  0.4306990000000  0.4671480000000  0.5431560000000 1.0
C      1  0.5431560000000  0.4306990000000  0.4671480000000 1.0
C      1  0.5328520000000  0.4568440000000  0.4306990000000 1.0
C      1  0.5328520000000  0.5431560000000  0.5693010000000 1.0
C      1  0.4671480000000  0.4568440000000  0.5693010000000 1.0
C      1  0.5693010000000  0.5328520000000  0.5431560000000 1.0
C      1  0.5693010000000  0.4671480000000  0.4568440000000 1.0
C      1  0.4306990000000  0.5328520000000  0.4568440000000 1.0
C      1  0.4568440000000  0.5693010000000  0.4671480000000 1.0
C      1  0.4568440000000  0.4306990000000  0.5328520000000 1.0
C      1  0.5431560000000  0.5693010000000  0.5328520000000 1.0
C      1  0.4890560000000  0.5314850000000  0.5541400000000 1.0
C      1  0.5314850000000  0.5541400000000  0.4890560000000 1.0
C      1  0.5541400000000  0.4890560000000  0.5314850000000 1.0
C      1  0.5109440000000  0.4685150000000  0.5541400000000 1.0
C      1  0.4890560000000  0.4685150000000  0.4458600000000 1.0
C      1  0.5109440000000  0.5314850000000  0.4458600000000 1.0
C      1  0.4685150000000  0.4458600000000  0.4890560000000 1.0
C      1  0.5314850000000  0.4458600000000  0.5109440000000 1.0
C      1  0.4685150000000  0.5541400000000  0.5109440000000 1.0
C      1  0.4458600000000  0.5109440000000  0.5314850000000 1.0
C      1  0.5541400000000  0.5109440000000  0.4685150000000 1.0
C      1  0.4458600000000  0.4890560000000  0.4685150000000 1.0
C      1  0.5314850000000  0.4890560000000  0.5541400000000 1.0
C      1  0.5541400000000  0.5314850000000  0.4890560000000 1.0
C      1  0.4890560000000  0.5541400000000  0.5314850000000 1.0
C      1  0.4685150000000  0.5109440000000  0.5541400000000 1.0
C      1  0.4685150000000  0.4890560000000  0.4458600000000 1.0
C      1  0.5314850000000  0.5109440000000  0.4458600000000 1.0
C      1  0.4458600000000  0.4685150000000  0.4890560000000 1.0
C      1  0.4458600000000  0.5314850000000  0.5109440000000 1.0
C      1  0.5541400000000  0.4685150000000  0.5109440000000 1.0
C      1  0.5109440000000  0.4458600000000  0.5314850000000 1.0
C      1  0.5109440000000  0.5541400000000  0.4685150000000 1.0
C      1  0.4890560000000  0.4458600000000  0.4685150000000 1.0
C      1  0.4221040000000  0.5097080000000  0.4683790000000 1.0
C      1  0.5097080000000  0.4683790000000  0.4221040000000 1.0
C      1  0.4683790000000  0.4221040000000  0.5097080000000 1.0
C      1  0.5778960000000  0.4902920000000  0.4683790000000 1.0
C      1  0.4221040000000  0.4902920000000  0.5316210000000 1.0
C      1  0.5778960000000  0.5097080000000  0.5316210000000 1.0
C      1  0.4902920000000  0.5316210000000  0.4221040000000 1.0
C      1  0.5097080000000  0.5316210000000  0.5778960000000 1.0
C      1  0.4902920000000  0.4683790000000  0.5778960000000 1.0
C      1  0.5316210000000  0.5778960000000  0.5097080000000 1.0
C      1  0.4683790000000  0.5778960000000  0.4902920000000 1.0
C      1  0.5316210000000  0.4221040000000  0.4902920000000 1.0
C      1  0.5097080000000  0.4221040000000  0.4683790000000 1.0
C      1  0.4683790000000  0.5097080000000  0.4221040000000 1.0
C      1  0.4221040000000  0.4683790000000  0.5097080000000 1.0
C      1  0.4902920000000  0.5778960000000  0.4683790000000 1.0
C      1  0.4902920000000  0.4221040000000  0.5316210000000 1.0
C      1  0.5097080000000  0.5778960000000  0.5316210000000 1.0
C      1  0.5316210000000  0.4902920000000  0.4221040000000 1.0
C      1  0.5316210000000  0.5097080000000  0.5778960000000 1.0
C      1  0.4683790000000  0.4902920000000  0.5778960000000 1.0
C      1  0.5778960000000  0.5316210000000  0.5097080000000 1.0
C      1  0.5778960000000  0.4683790000000  0.4902920000000 1.0
C      1  0.4221040000000  0.5316210000000  0.4902920000000 1.0
C      1  0.5323640000000  0.4445810000000  0.4866880000000 1.0
C      1  0.4445810000000  0.4866880000000  0.5323640000000 1.0
C      1  0.4866880000000  0.5323640000000  0.4445810000000 1.0
C      1  0.4676360000000  0.5554190000000  0.4866880000000 1.0
C      1  0.5323640000000  0.5554190000000  0.5133120000000 1.0
C      1  0.4676360000000  0.4445810000000  0.5133120000000 1.0
C      1  0.5554190000000  0.5133120000000  0.5323640000000 1.0
C      1  0.4445810000000  0.5133120000000  0.4676360000000 1.0
C      1  0.5554190000000  0.4866880000000  0.4676360000000 1.0
C      1  0.5133120000000  0.4676360000000  0.4445810000000 1.0
C      1  0.4866880000000  0.4676360000000  0.5554190000000 1.0
C      1  0.5133120000000  0.5323640000000  0.5554190000000 1.0
C      1  0.4445810000000  0.5323640000000  0.4866880000000 1.0
C      1  0.4866880000000  0.4445810000000  0.5323640000000 1.0
C      1  0.5323640000000  0.4866880000000  0.4445810000000 1.0
C      1  0.5554190000000  0.4676360000000  0.4866880000000 1.0
C      1  0.5554190000000  0.5323640000000  0.5133120000000 1.0
C      1  0.4445810000000  0.4676360000000  0.5133120000000 1.0
C      1  0.5133120000000  0.5554190000000  0.5323640000000 1.0
C      1  0.5133120000000  0.4445810000000  0.4676360000000 1.0
C      1  0.4866880000000  0.5554190000000  0.4676360000000 1.0
C      1  0.4676360000000  0.5133120000000  0.4445810000000 1.0
C      1  0.4676360000000  0.4866880000000  0.5554190000000 1.0
C      1  0.5323640000000  0.5133120000000  0.5554190000000 1.0
C      1  0.5000180000000  0.5220960000000  0.4891190000000 1.0
C      1  0.5220960000000  0.4891190000000  0.5000180000000 1.0
C      1  0.4891190000000  0.5000180000000  0.5220960000000 1.0
C      1  0.4999820000000  0.4779040000000  0.4891190000000 1.0
C      1  0.5000180000000  0.4779040000000  0.5108810000000 1.0
C      1  0.4999820000000  0.5220960000000  0.5108810000000 1.0
C      1  0.4779040000000  0.5108810000000  0.5000180000000 1.0
C      1  0.5220960000000  0.5108810000000  0.4999820000000 1.0
C      1  0.4779040000000  0.4891190000000  0.4999820000000 1.0
C      1  0.5108810000000  0.4999820000000  0.5220960000000 1.0
C      1  0.4891190000000  0.4999820000000  0.4779040000000 1.0
C      1  0.5108810000000  0.5000180000000  0.4779040000000 1.0
C      1  0.5220960000000  0.5000180000000  0.4891190000000 1.0
C      1  0.4891190000000  0.5220960000000  0.5000180000000 1.0
C      1  0.5000180000000  0.4891190000000  0.5220960000000 1.0
C      1  0.4779040000000  0.4999820000000  0.4891190000000 1.0
C      1  0.4779040000000  0.5000180000000  0.5108810000000 1.0
C      1  0.5220960000000  0.4999820000000  0.5108810000000 1.0
C      1  0.5108810000000  0.4779040000000  0.5000180000000 1.0
C      1  0.5108810000000  0.5220960000000  0.4999820000000 1.0
C      1  0.4891190000000  0.4779040000000  0.4999820000000 1.0
C      1  0.4999820000000  0.5108810000000  0.5220960000000 1.0
C      1  0.4999820000000  0.4891190000000  0.4779040000000 1.0
C      1  0.5000180000000  0.5108810000000  0.4779040000000 1.0
C      1  0.4935260000000  0.4235950000000  0.5174600000000 1.0
C      1  0.4235950000000  0.5174600000000  0.4935260000000 1.0
C      1  0.5174600000000  0.4935260000000  0.4235950000000 1.0
C      1  0.5064740000000  0.5764050000000  0.5174600000000 1.0
C      1  0.4935260000000  0.5764050000000  0.4825400000000 1.0
C      1  0.5064740000000  0.4235950000000  0.4825400000000 1.0
C      1  0.5764050000000  0.4825400000000  0.4935260000000 1.0
C      1  0.4235950000000  0.4825400000000  0.5064740000000 1.0
C      1  0.5764050000000  0.5174600000000  0.5064740000000 1.0
C      1  0.4825400000000  0.5064740000000  0.4235950000000 1.0
C      1  0.5174600000000  0.5064740000000  0.5764050000000 1.0
C      1  0.4825400000000  0.4935260000000  0.5764050000000 1.0
C      1  0.4235950000000  0.4935260000000  0.5174600000000 1.0
C      1  0.5174600000000  0.4235950000000  0.4935260000000 1.0
C      1  0.4935260000000  0.5174600000000  0.4235950000000 1.0
C      1  0.5764050000000  0.5064740000000  0.5174600000000 1.0
C      1  0.5764050000000  0.4935260000000  0.4825400000000 1.0
C      1  0.4235950000000  0.5064740000000  0.4825400000000 1.0
C      1  0.4825400000000  0.5764050000000  0.4935260000000 1.0
C      1  0.4825400000000  0.4235950000000  0.5064740000000 1.0
C      1  0.5174600000000  0.5764050000000  0.5064740000000 1.0
C      1  0.5064740000000  0.4825400000000  0.4235950000000 1.0
C      1  0.5064740000000  0.5174600000000  0.5764050000000 1.0
C      1  0.4935260000000  0.4825400000000  0.5764050000000 1.0
C      1  0.5365460000000  0.5585050000000  0.4523310000000 1.0
C      1  0.5585050000000  0.4523310000000  0.5365460000000 1.0
C      1  0.4523310000000  0.5365460000000  0.5585050000000 1.0
C      1  0.4634540000000  0.4414950000000  0.4523310000000 1.0
C      1  0.5365460000000  0.4414950000000  0.5476690000000 1.0
C      1  0.4634540000000  0.5585050000000  0.5476690000000 1.0
C      1  0.4414950000000  0.5476690000000  0.5365460000000 1.0
C      1  0.5585050000000  0.5476690000000  0.4634540000000 1.0
C      1  0.4414950000000  0.4523310000000  0.4634540000000 1.0
C      1  0.5476690000000  0.4634540000000  0.5585050000000 1.0
C      1  0.4523310000000  0.4634540000000  0.4414950000000 1.0
C      1  0.5476690000000  0.5365460000000  0.4414950000000 1.0
C      1  0.5585050000000  0.5365460000000  0.4523310000000 1.0
C      1  0.4523310000000  0.5585050000000  0.5365460000000 1.0
C      1  0.5365460000000  0.4523310000000  0.5585050000000 1.0
C      1  0.4414950000000  0.4634540000000  0.4523310000000 1.0
C      1  0.4414950000000  0.5365460000000  0.5476690000000 1.0
C      1  0.5585050000000  0.4634540000000  0.5476690000000 1.0
C      1  0.5476690000000  0.4414950000000  0.5365460000000 1.0
C      1  0.5476690000000  0.5585050000000  0.4634540000000 1.0
C      1  0.4523310000000  0.4414950000000  0.4634540000000 1.0
C      1  0.4634540000000  0.5476690000000  0.5585050000000 1.0
C      1  0.4634540000000  0.4523310000000  0.4414950000000 1.0
C      1  0.5365460000000  0.5476690000000  0.4414950000000 1.0
C      1  0.5176480000000  0.5071270000000  0.5599480000000 1.0
C      1  0.5071270000000  0.5599480000000  0.5176480000000 1.0
C      1  0.5599480000000  0.5176480000000  0.5071270000000 1.0
C      1  0.4823520000000  0.4928730000000  0.5599480000000 1.0
C      1  0.5176480000000  0.4928730000000  0.4400520000000 1.0
C      1  0.4823520000000  0.5071270000000  0.4400520000000 1.0
C      1  0.4928730000000  0.4400520000000  0.5176480000000 1.0
C      1  0.5071270000000  0.4400520000000  0.4823520000000 1.0
C      1  0.4928730000000  0.5599480000000  0.4823520000000 1.0
C      1  0.4400520000000  0.4823520000000  0.5071270000000 1.0
C      1  0.5599480000000  0.4823520000000  0.4928730000000 1.0
C      1  0.4400520000000  0.5176480000000  0.4928730000000 1.0
C      1  0.5071270000000  0.5176480000000  0.5599480000000 1.0
C      1  0.5599480000000  0.5071270000000  0.5176480000000 1.0
C      1  0.5176480000000  0.5599480000000  0.5071270000000 1.0
C      1  0.4928730000000  0.4823520000000  0.5599480000000 1.0
C      1  0.4928730000000  0.5176480000000  0.4400520000000 1.0
C      1  0.5071270000000  0.4823520000000  0.4400520000000 1.0
C      1  0.4400520000000  0.4928730000000  0.5176480000000 1.0
C      1  0.4400520000000  0.5071270000000  0.4823520000000 1.0
C      1  0.5599480000000  0.4928730000000  0.4823520000000 1.0
C      1  0.4823520000000  0.4400520000000  0.5071270000000 1.0
C      1  0.4823520000000  0.5599480000000  0.4928730000000 1.0
C      1  0.5176480000000  0.4400520000000  0.4928730000000 1.0
C      1  0.4567470000000  0.5216890000000  0.4677900000000 1.0
C      1  0.5216890000000  0.4677900000000  0.4567470000000 1.0
C      1  0.4677900000000  0.4567470000000  0.5216890000000 1.0
C      1  0.5432530000000  0.4783110000000  0.4677900000000 1.0
C      1  0.4567470000000  0.4783110000000  0.5322100000000 1.0
C      1  0.5432530000000  0.5216890000000  0.5322100000000 1.0
C      1  0.4783110000000  0.5322100000000  0.4567470000000 1.0
C      1  0.5216890000000  0.5322100000000  0.5432530000000 1.0
C      1  0.4783110000000  0.4677900000000  0.5432530000000 1.0
C      1  0.5322100000000  0.5432530000000  0.5216890000000 1.0
C      1  0.4677900000000  0.5432530000000  0.4783110000000 1.0
C      1  0.5322100000000  0.4567470000000  0.4783110000000 1.0
C      1  0.5216890000000  0.4567470000000  0.4677900000000 1.0
C      1  0.4677900000000  0.5216890000000  0.4567470000000 1.0
C      1  0.4567470000000  0.4677900000000  0.5216890000000 1.0
C      1  0.4783110000000  0.5432530000000  0.4677900000000 1.0
C      1  0.4783110000000  0.4567470000000  0.5322100000000 1.0
C      1  0.5216890000000  0.5432530000000  0.5322100000000 1.0
C      1  0.5322100000000  0.4783110000000  0.4567470000000 1.0
C      1  0.5322100000000  0.5216890000000  0.5432530000000 1.0
C      1  0.4677900000000  0.4783110000000  0.5432530000000 1.0
C      1  0.5432530000000  0.5322100000000  0.5216890000000 1.0
C      1  0.5432530000000  0.4677900000000  0.4783110000000 1.0
C      1  0.4567470000000  0.5322100000000  0.4783110000000 1.0
C      1  0.5012580000000  0.4492770000000  0.4595620000000 1.0
C      1  0.4492770000000  0.4595620000000  0.5012580000000 1.0
C      1  0.4595620000000  0.5012580000000  0.4492770000000 1.0
C      1  0.4987420000000  0.5507230000000  0.4595620000000 1.0
C      1  0.5012580000000  0.5507230000000  0.5404380000000 1.0
C      1  0.4987420000000  0.4492770000000  0.5404380000000 1.0
C      1  0.5507230000000  0.5404380000000  0.5012580000000 1.0
C      1  0.4492770000000  0.5404380000000  0.4987420000000 1.0
C      1  0.5507230000000  0.4595620000000  0.4987420000000 1.0
C      1  0.5404380000000  0.4987420000000  0.4492770000000 1.0
C      1  0.4595620000000  0.4987420000000  0.5507230000000 1.0
C      1  0.5404380000000  0.5012580000000  0.5507230000000 1.0
C      1  0.4492770000000  0.5012580000000  0.4595620000000 1.0
C      1  0.4595620000000  0.4492770000000  0.5012580000000 1.0
C      1  0.5012580000000  0.4595620000000  0.4492770000000 1.0
C      1  0.5507230000000  0.4987420000000  0.4595620000000 1.0
C      1  0.5507230000000  0.5012580000000  0.5404380000000 1.0
C      1  0.4492770000000  0.4987420000000  0.5404380000000 1.0
C      1  0.5404380000000  0.5507230000000  0.5012580000000 1.0
C      1  0.5404380000000  0.4492770000000  0.4987420000000 1.0
C      1  0.4595620000000  0.5507230000000  0.4987420000000 1.0
C      1  0.4987420000000  0.5404380000000  0.4492770000000 1.0
C      1  0.4987420000000  0.4595620000000  0.5507230000000 1.0
C      1  0.5012580000000  0.5404380000000  0.5507230000000 1.0
C      1  0.4768110000000  0.5127030000000  0.4664830000000 1.0
C      1  0.5127030000000  0.4664830000000  0.4768110000000 1.0
C      1  0.4664830000000  0.4768110000000  0.5127030000000 1.0
C      1  0.5231890000000  0.4872970000000  0.4664830000000 1.0
C      1  0.4768110000000  0.4872970000000  0.5335170000000 1.0
C      1  0.5231890000000  0.5127030000000  0.5335170000000 1.0
C      1  0.4872970000000  0.5335170000000  0.4768110000000 1.0
C      1  0.5127030000000  0.5335170000000  0.5231890000000 1.0
C      1  0.4872970000000  0.4664830000000  0.5231890000000 1.0
C      1  0.5335170000000  0.5231890000000  0.5127030000000 1.0
C      1  0.4664830000000  0.5231890000000  0.4872970000000 1.0
C      1  0.5335170000000  0.4768110000000  0.4872970000000 1.0
C      1  0.5127030000000  0.4768110000000  0.4664830000000 1.0
C      1  0.4664830000000  0.5127030000000  0.4768110000000 1.0
C      1  0.4768110000000  0.4664830000000  0.5127030000000 1.0
C      1  0.4872970000000  0.5231890000000  0.4664830000000 1.0
C      1  0.4872970000000  0.4768110000000  0.5335170000000 1.0
C      1  0.5127030000000  0.5231890000000  0.5335170000000 1.0
C      1  0.5335170000000  0.4872970000000  0.4768110000000 1.0
C      1  0.5335170000000  0.5127030000000  0.5231890000000 1.0
C      1  0.4664830000000  0.4872970000000  0.5231890000000 1.0
C      1  0.5231890000000  0.5335170000000  0.5127030000000 1.0
C      1  0.5231890000000  0.4664830000000  0.4872970000000 1.0
C      1  0.4768110000000  0.5335170000000  0.4872970000000 1.0
C      1  0.4636360000000  0.4824410000000  0.4995440000000 1.0
C      1  0.4824410000000  0.4995440000000  0.4636360000000 1.0
C      1  0.4995440000000  0.4636360000000  0.4824410000000 1.0
C      1  0.5363640000000  0.5175590000000  0.4995440000000 1.0
C      1  0.4636360000000  0.5175590000000  0.5004560000000 1.0
C      1  0.5363640000000  0.4824410000000  0.5004560000000 1.0
C      1  0.5175590000000  0.5004560000000  0.4636360000000 1.0
C      1  0.4824410000000  0.5004560000000  0.5363640000000 1.0
C      1  0.5175590000000  0.4995440000000  0.5363640000000 1.0
C      1  0.5004560000000  0.5363640000000  0.4824410000000 1.0
C      1  0.4995440000000  0.5363640000000  0.5175590000000 1.0
C      1  0.5004560000000  0.4636360000000  0.5175590000000 1.0
C      1  0.4824410000000  0.4636360000000  0.4995440000000 1.0
C      1  0.4995440000000  0.4824410000000  0.4636360000000 1.0
C      1  0.4636360000000  0.4995440000000  0.4824410000000 1.0
C      1  0.5175590000000  0.5363640000000  0.4995440000000 1.0
C      1  0.5175590000000  0.4636360000000  0.5004560000000 1.0
C      1  0.4824410000000  0.5363640000000  0.5004560000000 1.0
C      1  0.5004560000000  0.5175590000000  0.4636360000000 1.0
C      1  0.5004560000000  0.4824410000000  0.5363640000000 1.0
C      1  0.4995440000000  0.5175590000000  0.5363640000000 1.0
C      1  0.5363640000000  0.5004560000000  0.4824410000000 1.0
C      1  0.5363640000000  0.4995440000000  0.5175590000000 1.0
C      1  0.4636360000000  0.5004560000000  0.5175590000000 1.0
C      1  0.4783980000000  0.4309540000000  0.5329040000000 1.0
C      1  0.4309540000000  0.5329040000000  0.4783980000000 1.0
C      1  0.5329040000000  0.4783980000000  0.4309540000000 1.0
C      1  0.5216020000000  0.5690460000000  0.5329040000000 1.0
C      1  0.4783980000000  0.5690460000000  0.4670960000000 1.0
C      1  0.5216020000000  0.4309540000000  0.4670960000000 1.0
C      1  0.5690460000000  0.4670960000000  0.4783980000000 1.0
C      1  0.4309540000000  0.4670960000000  0.5216020000000 1.0
C      1  0.5690460000000  0.5329040000000  0.5216020000000 1.0
C      1  0.4670960000000  0.5216020000000  0.4309540000000 1.0
C      1  0.5329040000000  0.5216020000000  0.5690460000000 1.0
C      1  0.4670960000000  0.4783980000000  0.5690460000000 1.0
C      1  0.4309540000000  0.4783980000000  0.5329040000000 1.0
C      1  0.5329040000000  0.4309540000000  0.4783980000000 1.0
C      1  0.4783980000000  0.5329040000000  0.4309540000000 1.0
C      1  0.5690460000000  0.5216020000000  0.5329040000000 1.0
C      1  0.5690460000000  0.4783980000000  0.4670960000000 1.0
C      1  0.4309540000000  0.5216020000000  0.4670960000000 1.0
C      1  0.4670960000000  0.5690460000000  0.4783980000000 1.0
C      1  0.4670960000000  0.4309540000000  0.5216020000000 1.0
C      1  0.5329040000000  0.5690460000000  0.5216020000000 1.0
C      1  0.5216020000000  0.4670960000000  0.4309540000000 1.0
C      1  0.5216020000000  0.5329040000000  0.5690460000000 1.0
C      1  0.4783980000000  0.4670960000000  0.5690460000000 1.0
C      1  0.4762320000000  0.4522450000000  0.4335040000000 1.0
C      1  0.4522450000000  0.4335040000000  0.4762320000000 1.0
C      1  0.4335040000000  0.4762320000000  0.4522450000000 1.0
C      1  0.5237680000000  0.5477550000000  0.4335040000000 1.0
C      1  0.4762320000000  0.5477550000000  0.5664960000000 1.0
C      1  0.5237680000000  0.4522450000000  0.5664960000000 1.0
C      1  0.5477550000000  0.5664960000000  0.4762320000000 1.0
C      1  0.4522450000000  0.5664960000000  0.5237680000000 1.0
C      1  0.5477550000000  0.4335040000000  0.5237680000000 1.0
C      1  0.5664960000000  0.5237680000000  0.4522450000000 1.0
C      1  0.4335040000000  0.5237680000000  0.5477550000000 1.0
C      1  0.5664960000000  0.4762320000000  0.5477550000000 1.0
C      1  0.4522450000000  0.4762320000000  0.4335040000000 1.0
C      1  0.4335040000000  0.4522450000000  0.4762320000000 1.0
C      1  0.4762320000000  0.4335040000000  0.4522450000000 1.0
C      1  0.5477550000000  0.5237680000000  0.4335040000000 1.0
C      1  0.5477550000000  0.4762320000000  0.5664960000000 1.0
C      1  0.4522450000000  0.5237680000000  0.5664960000000 1.0
C      1  0.5664960000000  0.5477550000000  0.4762320000000 1.0
C      1  0.5664960000000  0.4522450000000  0.5237680000000 1.0
C      1  0.4335040000000  0.5477550000000  0.5237680000000 1.0
C      1  0.5237680000000  0.5664960000000  0.4522450000000 1.0
C      1  0.5237680000000  0.4335040000000  0.5477550000000 1.0
C      1  0.4762320000000  0.5664960000000  0.5477550000000 1.0
C      1  0.5594760000000  0.4304480000000  0.4875360000000 1.0
C      1  0.4304480000000  0.4875360000000  0.5594760000000 1.0
C      1  0.4875360000000  0.5594760000000  0.4304480000000 1.0
C      1  0.4405240000000  0.5695520000000  0.4875360000000 1.0
C      1  0.5594760000000  0.5695520000000  0.5124640000000 1.0
C      1  0.4405240000000  0.4304480000000  0.5124640000000 1.0
C      1  0.5695520000000  0.5124640000000  0.5594760000000 1.0
C      1  0.4304480000000  0.5124640000000  0.4405240000000 1.0
C      1  0.5695520000000  0.4875360000000  0.4405240000000 1.0
C      1  0.5124640000000  0.4405240000000  0.4304480000000 1.0
C      1  0.4875360000000  0.4405240000000  0.5695520000000 1.0
C      1  0.5124640000000  0.5594760000000  0.5695520000000 1.0
C      1  0.4304480000000  0.5594760000000  0.4875360000000 1.0
C      1  0.4875360000000  0.4304480000000  0.5594760000000 1.0
C      1  0.5594760000000  0.4875360000000  0.4304480000000 1.0
C      1  0.5695520000000  0.4405240000000  0.4875360000000 1.0
C      1  0.5695520000000  0.5594760000000  0.5124640000000 1.0
C      1  0.4304480000000  0.4405240000000  0.5124640000000 1.0
C      1  0.5124640000000  0.5695520000000  0.5594760000000 1.0
C      1  0.5124640000000  0.4304480000000  0.4405240000000 1.0
C      1  0.4875360000000  0.5695520000000  0.4405240000000 1.0
C      1  0.4405240000000  0.5124640000000  0.4304480000000 1.0
C      1  0.4405240000000  0.4875360000000  0.5695520000000 1.0
C      1  0.5594760000000  0.5124640000000  0.5695520000000 1.0
C      1  0.4988240000000  0.5759560000000  0.5405140000000 1.0
C      1  0.5759560000000  0.5405140000000  0.4988240000000 1.0
C      1  0.5405140000000  0.4988240000000  0.5759560000000 1.0
C      1  0.5011760000000  0.4240440000000  0.5405140000000 1.0
C      1  0.4988240000000  0.4240440000000  0.4594860000000 1.0
C      1  0.5011760000000  0.5759560000000  0.4594860000000 1.0
C      1  0.4240440000000  0.4594860000000  0.4988240000000 1.0
C      1  0.5759560000000  0.4594860000000  0.5011760000000 1.0
C      1  0.4240440000000  0.5405140000000  0.5011760000000 1.0
C      1  0.4594860000000  0.5011760000000  0.5759560000000 1.0
C      1  0.5405140000000  0.5011760000000  0.4240440000000 1.0
C      1  0.4594860000000  0.4988240000000  0.4240440000000 1.0
C      1  0.5759560000000  0.4988240000000  0.5405140000000 1.0
C      1  0.5405140000000  0.5759560000000  0.4988240000000 1.0
C      1  0.4988240000000  0.5405140000000  0.5759560000000 1.0
C      1  0.4240440000000  0.5011760000000  0.5405140000000 1.0
C      1  0.4240440000000  0.4988240000000  0.4594860000000 1.0
C      1  0.5759560000000  0.5011760000000  0.4594860000000 1.0
C      1  0.4594860000000  0.4240440000000  0.4988240000000 1.0
C      1  0.4594860000000  0.5759560000000  0.5011760000000 1.0
C      1  0.5405140000000  0.4240440000000  0.5011760000000 1.0
C      1  0.5011760000000  0.4594860000000  0.5759560000000 1.0
C      1  0.5011760000000  0.5405140000000  0.4240440000000 1.0
C      1  0.4988240000000  0.4594860000000  0.4240440000000 1.0
C      1  0.4667150000000  0.5234470000000  0.5133200000000 1.0
C      1  0.5234470000000  0.5133200000000  0.4667150000000 1.0
C      1  0.5133200000000  0.4667150000000  0.5234470000000 1.0
C      1  0.5332850000000  0.4765530000000  0.5133200000000 1.0
C      1  0.4667150000000  0.4765530000000  0.4866800000000 1.0
C      1  0.5332850000000  0.5234470000000  0.4866800000000 1.0
C      1  0.4765530000000  0.4866800000000  0.4667150000000 1.0
C      1  0.5234470000000  0.4866800000000  0.5332850000000 1.0
C      1  0.4765530000000  0.5133200000000  0.5332850000000 1.0
C      1  0.4866800000000  0.5332850000000  0.5234470000000 1.0
C      1  0.5133200000000  0.5332850000000  0.4765530000000 1.0
C      1  0.4866800000000  0.4667150000000  0.4765530000000 1.0
C      1  0.5234470000000  0.4667150000000  0.5133200000000 1.0
C      1  0.5133200000000  0.5234470000000  0.4667150000000 1.0
C      1  0.4667150000000  0.5133200000000  0.5234470000000 1.0
C      1  0.4765530000000  0.5332850000000  0.5133200000000 1.0
C      1  0.4765530000000  0.4667150000000  0.4866800000000 1.0
C      1  0.5234470000000  0.5332850000000  0.4866800000000 1.0
C      1  0.4866800000000  0.4765530000000  0.4667150000000 1.0
C      1  0.4866800000000  0.5234470000000  0.5332850000000 1.0
C      1  0.5133200000000  0.4765530000000  0.5332850000000 1.0
C      1  0.5332850000000  0.4866800000000  0.5234470000000 1.0
C      1  0.5332850000000  0.5133200000000  0.4765530000000 1.0
C      1  0.4667150000000  0.4866800000000  0.4765530000000 1.0
END
