TITL C-1892074-1603-50 -4.07999338611005e-07 1000000 -3984.29213073815 0 0 560 (Cs) n - 1
REM
REM in /nfs/bkarasulu/CARBON/AIRSS/Generating-Clusters/GAP-ML-2020/Higher-Symm/Selected-Sizes/TryA-Only_Ih-Symm/Larger-Clusters
REM
REM
REM
REM
REM
REM ./C.cell (2cf5181f0f1d4d5b12b972d32ad12063)
REM
REM compiler GCC version 9.2.1 20190827 (Red Hat 9.2.1-1)
REM options -cpp -mtune=generic -march=x86-64 -g -O0 -fpre-include=/usr/include/finclude/math-vector-fortran.h
REM seed 687243207 -812691518 -1221805291 -661894861 1007604003 1595229325 -543504593 -1271341965 -1877482705 52271762 -242193106 -950394422 850196631 -529221113 -1035298885 1710375274 1746895882 949247489 -761739283 -613222387 1793674747 -1818659636 -2065607194 -56163974 529916934 -664527300 -1041730578 -1630564660 -565180876 -1262738254 1614663166 1039548496 508778566
REM
CELL 1.54180  100.00000  100.00000  100.00000   90.00000   90.00000   90.00000
LATT -1
SFAC C  
C      1  0.5078750000000  0.4691100000000  0.5636450000000 1.0
C      1  0.5627250000000  0.5076010000000  0.4694470000000 1.0
C      1  0.4691820000000  0.5633890000000  0.5078200000000 1.0
C      1  0.4922070000000  0.4691860000000  0.4363300000000 1.0
C      1  0.5079550000000  0.5298690000000  0.4359780000000 1.0
C      1  0.4923950000000  0.5299770000000  0.5640660000000 1.0
C      1  0.4371400000000  0.5079260000000  0.5307940000000 1.0
C      1  0.5634180000000  0.4919930000000  0.5306950000000 1.0
C      1  0.4368310000000  0.4923200000000  0.4691560000000 1.0
C      1  0.5303290000000  0.5632450000000  0.4922360000000 1.0
C      1  0.4696800000000  0.4374700000000  0.4921970000000 1.0
C      1  0.5307520000000  0.4368700000000  0.5077650000000 1.0
C      1  0.5079550000000  0.5298690000000  0.5639970000000 1.0
C      1  0.5634180000000  0.4919930000000  0.4692790000000 1.0
C      1  0.4696800000000  0.4374700000000  0.5077780000000 1.0
C      1  0.4923950000000  0.5299770000000  0.4359090000000 1.0
C      1  0.5078750000000  0.4691100000000  0.4363300000000 1.0
C      1  0.4922070000000  0.4691860000000  0.5636450000000 1.0
C      1  0.4368310000000  0.4923200000000  0.5308190000000 1.0
C      1  0.5627250000000  0.5076010000000  0.5305270000000 1.0
C      1  0.4371400000000  0.5079260000000  0.4691810000000 1.0
C      1  0.5307520000000  0.4368700000000  0.4922100000000 1.0
C      1  0.4691820000000  0.5633890000000  0.4921550000000 1.0
C      1  0.5303290000000  0.5632450000000  0.5077390000000 1.0
C      1  0.4325300000000  0.5078400000000  0.5161570000000 1.0
C      1  0.5160700000000  0.4324240000000  0.5077320000000 1.0
C      1  0.5080310000000  0.5156210000000  0.4316010000000 1.0
C      1  0.5676290000000  0.5074990000000  0.4840330000000 1.0
C      1  0.4323010000000  0.4923910000000  0.4838220000000 1.0
C      1  0.5681070000000  0.4919930000000  0.5160780000000 1.0
C      1  0.4842610000000  0.4327030000000  0.4922400000000 1.0
C      1  0.5158380000000  0.5683000000000  0.4922540000000 1.0
C      1  0.4837810000000  0.5681680000000  0.5077080000000 1.0
C      1  0.4921880000000  0.5157450000000  0.5685200000000 1.0
C      1  0.5078220000000  0.4837190000000  0.5683780000000 1.0
C      1  0.4922740000000  0.4837560000000  0.4314850000000 1.0
C      1  0.4323010000000  0.4923910000000  0.5161530000000 1.0
C      1  0.5158380000000  0.5683000000000  0.5077210000000 1.0
C      1  0.5078220000000  0.4837190000000  0.4315970000000 1.0
C      1  0.5681070000000  0.4919930000000  0.4838970000000 1.0
C      1  0.4325300000000  0.5078400000000  0.4838180000000 1.0
C      1  0.5676290000000  0.5074990000000  0.5159420000000 1.0
C      1  0.4837810000000  0.5681680000000  0.4922670000000 1.0
C      1  0.5160700000000  0.4324240000000  0.4922430000000 1.0
C      1  0.4842610000000  0.4327030000000  0.5077350000000 1.0
C      1  0.4922740000000  0.4837560000000  0.5684900000000 1.0
C      1  0.5080310000000  0.5156210000000  0.5683740000000 1.0
C      1  0.4921880000000  0.5157450000000  0.4314550000000 1.0
C      1  0.5753600000000  0.4929680000000  0.4470720000000 1.0
C      1  0.4469370000000  0.5751850000000  0.4930870000000 1.0
C      1  0.4932080000000  0.4469030000000  0.5753140000000 1.0
C      1  0.4247380000000  0.4930390000000  0.5530050000000 1.0
C      1  0.5752320000000  0.5067390000000  0.5527370000000 1.0
C      1  0.4247190000000  0.5068060000000  0.4470600000000 1.0
C      1  0.5528120000000  0.5749610000000  0.5068630000000 1.0
C      1  0.4473630000000  0.4252510000000  0.5068600000000 1.0
C      1  0.5529720000000  0.4247760000000  0.4931090000000 1.0
C      1  0.5070140000000  0.4468340000000  0.4246320000000 1.0
C      1  0.4932620000000  0.5524780000000  0.4255020000000 1.0
C      1  0.5069150000000  0.5524230000000  0.5744470000000 1.0
C      1  0.5752320000000  0.5067390000000  0.4472380000000 1.0
C      1  0.4473630000000  0.4252510000000  0.4931150000000 1.0
C      1  0.4932620000000  0.5524780000000  0.5744730000000 1.0
C      1  0.4247190000000  0.5068060000000  0.5529150000000 1.0
C      1  0.5753600000000  0.4929680000000  0.5529030000000 1.0
C      1  0.4247380000000  0.4930390000000  0.4469700000000 1.0
C      1  0.5529730000000  0.4247760000000  0.5068650000000 1.0
C      1  0.4469370000000  0.5751850000000  0.5068880000000 1.0
C      1  0.5528120000000  0.5749610000000  0.4931120000000 1.0
C      1  0.5069150000000  0.5524230000000  0.4255280000000 1.0
C      1  0.4932080000000  0.4469030000000  0.4246610000000 1.0
C      1  0.5070140000000  0.4468340000000  0.5753430000000 1.0
C      1  0.4176280000000  0.5137930000000  0.5163630000000 1.0
C      1  0.5163460000000  0.4175340000000  0.5137090000000 1.0
C      1  0.5141740000000  0.5156960000000  0.4169180000000 1.0
C      1  0.5823130000000  0.5137050000000  0.4837460000000 1.0
C      1  0.4173990000000  0.4863850000000  0.4835920000000 1.0
C      1  0.5829870000000  0.4861820000000  0.5163640000000 1.0
C      1  0.4838260000000  0.4178070000000  0.4862630000000 1.0
C      1  0.5162370000000  0.5829750000000  0.4862310000000 1.0
C      1  0.4835110000000  0.5829350000000  0.5137640000000 1.0
C      1  0.4861160000000  0.5158270000000  0.5832610000000 1.0
C      1  0.5139800000000  0.4833490000000  0.5831400000000 1.0
C      1  0.4862810000000  0.4833760000000  0.4167190000000 1.0
C      1  0.4173990000000  0.4863850000000  0.5163820000000 1.0
C      1  0.5162370000000  0.5829750000000  0.5137440000000 1.0
C      1  0.5139800000000  0.4833490000000  0.4168340000000 1.0
C      1  0.5829870000000  0.4861820000000  0.4836100000000 1.0
C      1  0.4176280000000  0.5137930000000  0.4836120000000 1.0
C      1  0.5823130000000  0.5137050000000  0.5162280000000 1.0
C      1  0.4835110000000  0.5829350000000  0.4862110000000 1.0
C      1  0.5163460000000  0.4175340000000  0.4862660000000 1.0
C      1  0.4838260000000  0.4178070000000  0.5137120000000 1.0
C      1  0.4862810000000  0.4833760000000  0.5832560000000 1.0
C      1  0.5141740000000  0.5156960000000  0.5830570000000 1.0
C      1  0.4861160000000  0.5158280000000  0.4167140000000 1.0
C      1  0.4836400000000  0.4695430000000  0.4927320000000 1.0
C      1  0.4929900000000  0.4826810000000  0.4634140000000 1.0
C      1  0.4645890000000  0.4954730000000  0.4835730000000 1.0
C      1  0.5175180000000  0.4681650000000  0.5071030000000 1.0
C      1  0.4816720000000  0.5357060000000  0.5069620000000 1.0
C      1  0.5143150000000  0.5357670000000  0.4929910000000 1.0
C      1  0.5069220000000  0.4811620000000  0.5354490000000 1.0
C      1  0.4947790000000  0.5141380000000  0.5329500000000 1.0
C      1  0.5086510000000  0.5157820000000  0.4699970000000 1.0
C      1  0.5361130000000  0.4932420000000  0.5167340000000 1.0
C      1  0.4677380000000  0.5092160000000  0.5179400000000 1.0
C      1  0.5347370000000  0.5071610000000  0.4830780000000 1.0
C      1  0.4816720000000  0.5357060000000  0.4930130000000 1.0
C      1  0.4947790000000  0.5141380000000  0.4670250000000 1.0
C      1  0.4677380000000  0.5092160000000  0.4820350000000 1.0
C      1  0.5143150000000  0.5357670000000  0.5069840000000 1.0
C      1  0.4836400000000  0.4695430000000  0.5072430000000 1.0
C      1  0.5175180000000  0.4681650000000  0.4928720000000 1.0
C      1  0.5086510000000  0.5157820000000  0.5299780000000 1.0
C      1  0.4929900000000  0.4826810000000  0.5365610000000 1.0
C      1  0.5069220000000  0.4811620000000  0.4645260000000 1.0
C      1  0.5347370000000  0.5071610000000  0.5168970000000 1.0
C      1  0.4645890000000  0.4954730000000  0.5164020000000 1.0
C      1  0.5361130000000  0.4932420000000  0.4832400000000 1.0
C      1  0.4718180000000  0.5189350000000  0.5400280000000 1.0
C      1  0.5391460000000  0.4705490000000  0.5177050000000 1.0
C      1  0.5171670000000  0.5387810000000  0.4707280000000 1.0
C      1  0.5281910000000  0.5182560000000  0.4608790000000 1.0
C      1  0.4708980000000  0.4831240000000  0.4612520000000 1.0
C      1  0.5293150000000  0.4824260000000  0.5386050000000 1.0
C      1  0.4613600000000  0.4713750000000  0.4820490000000 1.0
C      1  0.5374880000000  0.5290190000000  0.4826690000000 1.0
C      1  0.4615720000000  0.5290990000000  0.5181180000000 1.0
C      1  0.4832250000000  0.5381730000000  0.5293570000000 1.0
C      1  0.5181650000000  0.4611700000000  0.5292730000000 1.0
C      1  0.4825020000000  0.4617830000000  0.4708980000000 1.0
C      1  0.4708980000000  0.4831240000000  0.5387230000000 1.0
C      1  0.5374880000000  0.5290190000000  0.5173060000000 1.0
C      1  0.5181650000000  0.4611700000000  0.4707020000000 1.0
C      1  0.5293150000000  0.4824260000000  0.4613690000000 1.0
C      1  0.4718180000000  0.5189350000000  0.4599470000000 1.0
C      1  0.5281910000000  0.5182560000000  0.5390960000000 1.0
C      1  0.4615720000000  0.5290990000000  0.4818570000000 1.0
C      1  0.5391460000000  0.4705490000000  0.4822700000000 1.0
C      1  0.4613600000000  0.4713750000000  0.5179260000000 1.0
C      1  0.4825020000000  0.4617830000000  0.5290770000000 1.0
C      1  0.5171670000000  0.5387810000000  0.5292460000000 1.0
C      1  0.4832240000000  0.5381730000000  0.4706180000000 1.0
C      1  0.4268270000000  0.5268880000000  0.4578550000000 1.0
C      1  0.4581910000000  0.4272300000000  0.5268710000000 1.0
C      1  0.5270900000000  0.4577110000000  0.4267030000000 1.0
C      1  0.5729950000000  0.5267880000000  0.5419030000000 1.0
C      1  0.4268630000000  0.4730580000000  0.5421060000000 1.0
C      1  0.5734230000000  0.4729100000000  0.4579070000000 1.0
C      1  0.5421470000000  0.4268890000000  0.4730950000000 1.0
C      1  0.4578230000000  0.5731730000000  0.4730230000000 1.0
C      1  0.5419620000000  0.5730980000000  0.5268870000000 1.0
C      1  0.4731020000000  0.4578180000000  0.5733700000000 1.0
C      1  0.5269230000000  0.5415610000000  0.5725120000000 1.0
C      1  0.4732790000000  0.5416490000000  0.4272690000000 1.0
C      1  0.4268630000000  0.4730580000000  0.4578690000000 1.0
C      1  0.4578230000000  0.5731730000000  0.5269520000000 1.0
C      1  0.5269230000000  0.5415610000000  0.4274630000000 1.0
C      1  0.5734230000000  0.4729100000000  0.5420680000000 1.0
C      1  0.4268270000000  0.5268880000000  0.5421200000000 1.0
C      1  0.5729950000000  0.5267880000000  0.4580720000000 1.0
C      1  0.5419620000000  0.5730980000000  0.4730870000000 1.0
C      1  0.4581910000000  0.4272300000000  0.4731040000000 1.0
C      1  0.5421470000000  0.4268890000000  0.5268790000000 1.0
C      1  0.4732790000000  0.5416490000000  0.5727060000000 1.0
C      1  0.5270900000000  0.4577110000000  0.5732710000000 1.0
C      1  0.4731020000000  0.4578180000000  0.4266050000000 1.0
C      1  0.5047740000000  0.5237160000000  0.4915450000000 1.0
C      1  0.4885840000000  0.5044100000000  0.5243440000000 1.0
C      1  0.5248670000000  0.4906320000000  0.5073880000000 1.0
C      1  0.4892410000000  0.5230830000000  0.5084370000000 1.0
C      1  0.5144970000000  0.4817980000000  0.5119700000000 1.0
C      1  0.4849260000000  0.4832130000000  0.4876980000000 1.0
C      1  0.5116340000000  0.5135640000000  0.4842830000000 1.0
C      1  0.4919940000000  0.4901100000000  0.4770030000000 1.0
C      1  0.5071700000000  0.4867350000000  0.5224850000000 1.0
C      1  0.4733610000000  0.4894180000000  0.4931590000000 1.0
C      1  0.5226370000000  0.5077930000000  0.4918570000000 1.0
C      1  0.4818280000000  0.5117660000000  0.5144350000000 1.0
C      1  0.5144970000000  0.4817980000000  0.4880040000000 1.0
C      1  0.4919940000000  0.4901100000000  0.5229720000000 1.0
C      1  0.5226370000000  0.5077930000000  0.5081180000000 1.0
C      1  0.4849260000000  0.4832130000000  0.5122770000000 1.0
C      1  0.5047740000000  0.5237160000000  0.5084300000000 1.0
C      1  0.4892410000000  0.5230830000000  0.4915380000000 1.0
C      1  0.5071700000000  0.4867350000000  0.4774900000000 1.0
C      1  0.4885840000000  0.5044100000000  0.4756310000000 1.0
C      1  0.5116340000000  0.5135640000000  0.5156920000000 1.0
C      1  0.4818280000000  0.5117660000000  0.4855400000000 1.0
C      1  0.5248670000000  0.4906320000000  0.4925870000000 1.0
C      1  0.4733610000000  0.4894180000000  0.5068160000000 1.0
C      1  0.5633860000000  0.4724320000000  0.5524370000000 1.0
C      1  0.5522670000000  0.5630250000000  0.4726290000000 1.0
C      1  0.4726910000000  0.5522620000000  0.5630100000000 1.0
C      1  0.4368220000000  0.4725820000000  0.4474250000000 1.0
C      1  0.5631710000000  0.5272050000000  0.4475470000000 1.0
C      1  0.4366440000000  0.5273140000000  0.5526970000000 1.0
C      1  0.4475100000000  0.5631300000000  0.5274360000000 1.0
C      1  0.5526840000000  0.4367140000000  0.5273720000000 1.0
C      1  0.4477460000000  0.4371530000000  0.4726020000000 1.0
C      1  0.5273120000000  0.5521620000000  0.4371730000000 1.0
C      1  0.4727110000000  0.4475800000000  0.4367450000000 1.0
C      1  0.5275430000000  0.4473840000000  0.5632330000000 1.0
C      1  0.5631710000000  0.5272050000000  0.5524280000000 1.0
C      1  0.5526840000000  0.4367140000000  0.4726020000000 1.0
C      1  0.4727110000000  0.4475800000000  0.5632290000000 1.0
C      1  0.4366440000000  0.5273140000000  0.4472780000000 1.0
C      1  0.5633860000000  0.4724320000000  0.4475370000000 1.0
C      1  0.4368220000000  0.4725820000000  0.5525500000000 1.0
C      1  0.4477460000000  0.4371530000000  0.5273730000000 1.0
C      1  0.5522670000000  0.5630250000000  0.5273460000000 1.0
C      1  0.4475100000000  0.5631300000000  0.4725390000000 1.0
C      1  0.5275430000000  0.4473840000000  0.4367410000000 1.0
C      1  0.4726910000000  0.5522620000000  0.4369650000000 1.0
C      1  0.5273120000000  0.5521620000000  0.5628020000000 1.0
C      1  0.5146830000000  0.5589450000000  0.4353410000000 1.0
C      1  0.4347660000000  0.5146290000000  0.5593780000000 1.0
C      1  0.5594700000000  0.4347830000000  0.5147360000000 1.0
C      1  0.4853600000000  0.5589710000000  0.5646970000000 1.0
C      1  0.5148470000000  0.4406600000000  0.5650590000000 1.0
C      1  0.4853690000000  0.4408250000000  0.4349840000000 1.0
C      1  0.5651010000000  0.5145340000000  0.4408480000000 1.0
C      1  0.4348970000000  0.4851680000000  0.4406340000000 1.0
C      1  0.5651700000000  0.4850750000000  0.5591540000000 1.0
C      1  0.4409920000000  0.4353390000000  0.4852580000000 1.0
C      1  0.5589800000000  0.5646940000000  0.4853000000000 1.0
C      1  0.4408110000000  0.5648760000000  0.5147310000000 1.0
C      1  0.5148470000000  0.4406610000000  0.4349160000000 1.0
C      1  0.4348970000000  0.4851680000000  0.5593410000000 1.0
C      1  0.5589800000000  0.5646940000000  0.5146750000000 1.0
C      1  0.4853690000000  0.4408240000000  0.5649910000000 1.0
C      1  0.5146830000000  0.5589450000000  0.5646340000000 1.0
C      1  0.4853600000000  0.5589720000000  0.4352780000000 1.0
C      1  0.5651700000000  0.4850750000000  0.4408210000000 1.0
C      1  0.4347660000000  0.5146290000000  0.4405970000000 1.0
C      1  0.5651010000000  0.5145340000000  0.5591270000000 1.0
C      1  0.4408110000000  0.5648760000000  0.4852430000000 1.0
C      1  0.5594700000000  0.4347830000000  0.4852380000000 1.0
C      1  0.4409920000000  0.4353390000000  0.5147170000000 1.0
C      1  0.4488030000000  0.5151820000000  0.4663450000000 1.0
C      1  0.4676970000000  0.4493240000000  0.5148490000000 1.0
C      1  0.5157790000000  0.4667150000000  0.4476460000000 1.0
C      1  0.5508730000000  0.5148660000000  0.5327690000000 1.0
C      1  0.4486280000000  0.4852390000000  0.5332720000000 1.0
C      1  0.5519540000000  0.4844080000000  0.4669710000000 1.0
C      1  0.5330740000000  0.4486620000000  0.4851760000000 1.0
C      1  0.4669830000000  0.5519970000000  0.4841700000000 1.0
C      1  0.5321250000000  0.5512640000000  0.5147380000000 1.0
C      1  0.4843570000000  0.4671320000000  0.5521810000000 1.0
C      1  0.5074250000000  0.5324910000000  0.5490880000000 1.0
C      1  0.4931680000000  0.5326400000000  0.4509240000000 1.0
C      1  0.4486280000000  0.4852390000000  0.4667030000000 1.0
C      1  0.4669830000000  0.5519970000000  0.5158040000000 1.0
C      1  0.5074250000000  0.5324910000000  0.4508870000000 1.0
C      1  0.5519540000000  0.4844080000000  0.5330040000000 1.0
C      1  0.4488030000000  0.5151820000000  0.5336300000000 1.0
C      1  0.5508730000000  0.5148660000000  0.4672060000000 1.0
C      1  0.5321250000000  0.5512640000000  0.4852370000000 1.0
C      1  0.4676970000000  0.4493240000000  0.4851260000000 1.0
C      1  0.5330740000000  0.4486620000000  0.5147990000000 1.0
C      1  0.4931680000000  0.5326400000000  0.5490510000000 1.0
C      1  0.5157790000000  0.4667150000000  0.5523290000000 1.0
C      1  0.4843570000000  0.4671320000000  0.4477940000000 1.0
C      1  0.4721260000000  0.5179990000000  0.4193590000000 1.0
C      1  0.4201670000000  0.4724570000000  0.5182820000000 1.0
C      1  0.5183480000000  0.4202420000000  0.4723530000000 1.0
C      1  0.5281210000000  0.5178130000000  0.5803120000000 1.0
C      1  0.4723000000000  0.4814750000000  0.5803400000000 1.0
C      1  0.5279050000000  0.4813830000000  0.4198930000000 1.0
C      1  0.5803380000000  0.4721920000000  0.4816360000000 1.0
C      1  0.4203710000000  0.5276810000000  0.4817080000000 1.0
C      1  0.5793520000000  0.5275730000000  0.5181220000000 1.0
C      1  0.4818980000000  0.4204650000000  0.5276360000000 1.0
C      1  0.5182130000000  0.5801360000000  0.5276770000000 1.0
C      1  0.4815360000000  0.5800430000000  0.4722760000000 1.0
C      1  0.4723000000000  0.4814750000000  0.4196340000000 1.0
C      1  0.4203710000000  0.5276810000000  0.5182670000000 1.0
C      1  0.5182130000000  0.5801360000000  0.4722980000000 1.0
C      1  0.5279050000000  0.4813830000000  0.5800820000000 1.0
C      1  0.4721260000000  0.5179980000000  0.5806160000000 1.0
C      1  0.5281210000000  0.5178130000000  0.4196630000000 1.0
C      1  0.5793520000000  0.5275730000000  0.4818530000000 1.0
C      1  0.4201670000000  0.4724570000000  0.4816920000000 1.0
C      1  0.5803380000000  0.4721920000000  0.5183390000000 1.0
C      1  0.4815360000000  0.5800430000000  0.5276990000000 1.0
C      1  0.5183480000000  0.4202420000000  0.5276210000000 1.0
C      1  0.4818980000000  0.4204650000000  0.4723390000000 1.0
C      1  0.4261150000000  0.5337250000000  0.5300680000000 1.0
C      1  0.5301400000000  0.4259620000000  0.5337500000000 1.0
C      1  0.5339180000000  0.5296350000000  0.4259290000000 1.0
C      1  0.5736750000000  0.5336830000000  0.4700690000000 1.0
C      1  0.4260040000000  0.4663080000000  0.4699580000000 1.0
C      1  0.5744930000000  0.4660260000000  0.5300780000000 1.0
C      1  0.4701570000000  0.4262510000000  0.4661910000000 1.0
C      1  0.5299400000000  0.5741400000000  0.4662480000000 1.0
C      1  0.4698390000000  0.5740410000000  0.5337450000000 1.0
C      1  0.4661830000000  0.5298100000000  0.5743880000000 1.0
C      1  0.5339720000000  0.4696900000000  0.5741430000000 1.0
C      1  0.4662370000000  0.4698130000000  0.4256490000000 1.0
C      1  0.4260040000000  0.4663080000000  0.5300160000000 1.0
C      1  0.5299400000000  0.5741400000000  0.5337270000000 1.0
C      1  0.5339720000000  0.4696900000000  0.4258320000000 1.0
C      1  0.5744930000000  0.4660260000000  0.4698970000000 1.0
C      1  0.4261150000000  0.5337250000000  0.4699070000000 1.0
C      1  0.5736750000000  0.5336830000000  0.5299060000000 1.0
C      1  0.4698390000000  0.5740410000000  0.4662300000000 1.0
C      1  0.5301400000000  0.4259620000000  0.4662250000000 1.0
C      1  0.4701570000000  0.4262510000000  0.5337830000000 1.0
C      1  0.4662370000000  0.4698130000000  0.5743260000000 1.0
C      1  0.5339180000000  0.5296350000000  0.5740450000000 1.0
C      1  0.4661830000000  0.5298100000000  0.4255870000000 1.0
C      1  0.5295590000000  0.5082190000000  0.4501140000000 1.0
C      1  0.4507800000000  0.5298100000000  0.5081150000000 1.0
C      1  0.5082120000000  0.4506160000000  0.5300120000000 1.0
C      1  0.4705460000000  0.5084820000000  0.5503060000000 1.0
C      1  0.5301790000000  0.4920980000000  0.5494940000000 1.0
C      1  0.4699100000000  0.4924660000000  0.4501190000000 1.0
C      1  0.5485830000000  0.5299080000000  0.4921710000000 1.0
C      1  0.4506570000000  0.4705290000000  0.4920050000000 1.0
C      1  0.5499260000000  0.4696690000000  0.5078860000000 1.0
C      1  0.4922010000000  0.4508450000000  0.4700260000000 1.0
C      1  0.5077960000000  0.5498510000000  0.4698760000000 1.0
C      1  0.4922120000000  0.5496310000000  0.5299750000000 1.0
C      1  0.5301790000000  0.4920980000000  0.4504810000000 1.0
C      1  0.4506570000000  0.4705290000000  0.5079700000000 1.0
C      1  0.5077960000000  0.5498510000000  0.5300990000000 1.0
C      1  0.4699100000000  0.4924660000000  0.5498560000000 1.0
C      1  0.5295600000000  0.5082190000000  0.5498610000000 1.0
C      1  0.4705460000000  0.5084820000000  0.4496690000000 1.0
C      1  0.5499260000000  0.4696690000000  0.4920880000000 1.0
C      1  0.4507800000000  0.5298100000000  0.4918600000000 1.0
C      1  0.5485830000000  0.5299080000000  0.5078040000000 1.0
C      1  0.4922120000000  0.5496310000000  0.4700000000000 1.0
C      1  0.5082120000000  0.4506160000000  0.4699630000000 1.0
C      1  0.4922010000000  0.4508450000000  0.5299490000000 1.0
C      1  0.5271290000000  0.5629720000000  0.5419180000000 1.0
C      1  0.5424760000000  0.5269570000000  0.5632530000000 1.0
C      1  0.5624860000000  0.5418250000000  0.5271390000000 1.0
C      1  0.4726770000000  0.5628580000000  0.4580200000000 1.0
C      1  0.5274160000000  0.4369760000000  0.4578300000000 1.0
C      1  0.4729140000000  0.4373590000000  0.5420430000000 1.0
C      1  0.4573290000000  0.5271840000000  0.4362010000000 1.0
C      1  0.5422190000000  0.4725200000000  0.4370010000000 1.0
C      1  0.4579670000000  0.4727500000000  0.5631960000000 1.0
C      1  0.4371550000000  0.5420250000000  0.4726730000000 1.0
C      1  0.5634620000000  0.4576260000000  0.4727120000000 1.0
C      1  0.4371840000000  0.4581530000000  0.5272120000000 1.0
C      1  0.5274160000000  0.4369760000000  0.5421450000000 1.0
C      1  0.5422190000000  0.4725200000000  0.5629740000000 1.0
C      1  0.5634620000000  0.4576260000000  0.5272620000000 1.0
C      1  0.4729140000000  0.4373590000000  0.4579310000000 1.0
C      1  0.5271290000000  0.5629720000000  0.4580570000000 1.0
C      1  0.4726770000000  0.5628580000000  0.5419550000000 1.0
C      1  0.4579670000000  0.4727500000000  0.4367790000000 1.0
C      1  0.5424750000000  0.5269570000000  0.4367220000000 1.0
C      1  0.4573290000000  0.5271840000000  0.5637740000000 1.0
C      1  0.4371840000000  0.4581530000000  0.4727630000000 1.0
C      1  0.5624860000000  0.5418250000000  0.4728360000000 1.0
C      1  0.4371550000000  0.5420250000000  0.5273020000000 1.0
C      1  0.4092500000000  0.5073620000000  0.4925940000000 1.0
C      1  0.4926080000000  0.4092880000000  0.5072270000000 1.0
C      1  0.5074350000000  0.4921730000000  0.4083300000000 1.0
C      1  0.5908810000000  0.5073320000000  0.5073750000000 1.0
C      1  0.4090790000000  0.4928570000000  0.5073970000000 1.0
C      1  0.5912300000000  0.4928030000000  0.4925730000000 1.0
C      1  0.5074200000000  0.4091570000000  0.4927420000000 1.0
C      1  0.4924590000000  0.5913250000000  0.4927130000000 1.0
C      1  0.5072790000000  0.5913680000000  0.5072560000000 1.0
C      1  0.4928970000000  0.4921960000000  0.5917160000000 1.0
C      1  0.5074420000000  0.5070330000000  0.5915750000000 1.0
C      1  0.4929050000000  0.5070730000000  0.4083310000000 1.0
C      1  0.4090790000000  0.4928570000000  0.4925780000000 1.0
C      1  0.4924590000000  0.5913250000000  0.5072620000000 1.0
C      1  0.5074410000000  0.5070330000000  0.4083990000000 1.0
C      1  0.5912300000000  0.4928030000000  0.5074020000000 1.0
C      1  0.4092500000000  0.5073620000000  0.5073810000000 1.0
C      1  0.5908810000000  0.5073320000000  0.4926000000000 1.0
C      1  0.5072790000000  0.5913680000000  0.4927180000000 1.0
C      1  0.4926080000000  0.4092880000000  0.4927480000000 1.0
C      1  0.5074200000000  0.4091570000000  0.5072330000000 1.0
C      1  0.4929050000000  0.5070720000000  0.5916440000000 1.0
C      1  0.5074350000000  0.4921730000000  0.5916440000000 1.0
C      1  0.4928970000000  0.4921970000000  0.4082590000000 1.0
C      1  0.4822120000000  0.4730390000000  0.5394830000000 1.0
C      1  0.5393110000000  0.4826150000000  0.4730070000000 1.0
C      1  0.4727160000000  0.5393010000000  0.4818850000000 1.0
C      1  0.5181100000000  0.4723280000000  0.4603670000000 1.0
C      1  0.4852630000000  0.5260930000000  0.4620090000000 1.0
C      1  0.5159400000000  0.5269190000000  0.5378180000000 1.0
C      1  0.4612460000000  0.4839660000000  0.5270630000000 1.0
C      1  0.5380700000000  0.5176800000000  0.5272100000000 1.0
C      1  0.4616530000000  0.5182880000000  0.4715570000000 1.0
C      1  0.5257440000000  0.5387610000000  0.5168510000000 1.0
C      1  0.4734680000000  0.4620690000000  0.5170110000000 1.0
C      1  0.5271030000000  0.4612820000000  0.4828670000000 1.0
C      1  0.4852630000000  0.5260930000000  0.5379660000000 1.0
C      1  0.5380700000000  0.5176800000000  0.4727650000000 1.0
C      1  0.4734680000000  0.4620690000000  0.4829640000000 1.0
C      1  0.5159400000000  0.5269190000000  0.4621570000000 1.0
C      1  0.4822120000000  0.4730390000000  0.4604920000000 1.0
C      1  0.5181100000000  0.4723280000000  0.5396080000000 1.0
C      1  0.4616530000000  0.5182880000000  0.5284180000000 1.0
C      1  0.5393120000000  0.4826150000000  0.5269670000000 1.0
C      1  0.4612460000000  0.4839660000000  0.4729110000000 1.0
C      1  0.5271030000000  0.4612820000000  0.5171070000000 1.0
C      1  0.4727160000000  0.5393010000000  0.5180900000000 1.0
C      1  0.5257440000000  0.5387610000000  0.4831240000000 1.0
C      1  0.4872650000000  0.5609210000000  0.5407630000000 1.0
C      1  0.5409830000000  0.4871100000000  0.5608460000000 1.0
C      1  0.5601560000000  0.5405140000000  0.4873510000000 1.0
C      1  0.5125470000000  0.5610630000000  0.4592130000000 1.0
C      1  0.4875050000000  0.4394930000000  0.4591740000000 1.0
C      1  0.5128260000000  0.4392020000000  0.5409020000000 1.0
C      1  0.4590810000000  0.4873340000000  0.4387460000000 1.0
C      1  0.5411490000000  0.5124190000000  0.4388500000000 1.0
C      1  0.4587450000000  0.5126360000000  0.5616560000000 1.0
C      1  0.4394740000000  0.5406940000000  0.5126910000000 1.0
C      1  0.5614360000000  0.4588210000000  0.5126540000000 1.0
C      1  0.4392950000000  0.4594560000000  0.4873390000000 1.0
C      1  0.4875050000000  0.4394930000000  0.5408010000000 1.0
C      1  0.5411490000000  0.5124180000000  0.5611250000000 1.0
C      1  0.5614360000000  0.4588210000000  0.4873200000000 1.0
C      1  0.5128260000000  0.4392020000000  0.4590730000000 1.0
C      1  0.4872650000000  0.5609210000000  0.4592120000000 1.0
C      1  0.5125470000000  0.5610630000000  0.5407620000000 1.0
C      1  0.4587450000000  0.5126360000000  0.4383190000000 1.0
C      1  0.5409830000000  0.4871100000000  0.4391290000000 1.0
C      1  0.4590810000000  0.4873340000000  0.5612290000000 1.0
C      1  0.4392950000000  0.4594560000000  0.5126360000000 1.0
C      1  0.5601560000000  0.5405130000000  0.5126230000000 1.0
C      1  0.4394740000000  0.5406940000000  0.4872840000000 1.0
C      1  0.5601560000000  0.5178210000000  0.4926940000000 1.0
C      1  0.4925840000000  0.5609520000000  0.5181170000000 1.0
C      1  0.5182800000000  0.4924320000000  0.5611170000000 1.0
C      1  0.4398170000000  0.5179350000000  0.5073150000000 1.0
C      1  0.5612160000000  0.4814690000000  0.5072920000000 1.0
C      1  0.4393840000000  0.4821130000000  0.4926780000000 1.0
C      1  0.5071700000000  0.5611830000000  0.4818020000000 1.0
C      1  0.4929200000000  0.4398130000000  0.4819770000000 1.0
C      1  0.5074770000000  0.4396480000000  0.5180650000000 1.0
C      1  0.4816960000000  0.4926030000000  0.4384160000000 1.0
C      1  0.5182220000000  0.5070300000000  0.4389660000000 1.0
C      1  0.4819230000000  0.5071800000000  0.5613380000000 1.0
C      1  0.5612160000000  0.4814690000000  0.4926830000000 1.0
C      1  0.4929200000000  0.4398130000000  0.5179980000000 1.0
C      1  0.5182220000000  0.5070300000000  0.5610090000000 1.0
C      1  0.4393840000000  0.4821130000000  0.5072970000000 1.0
C      1  0.5601560000000  0.5178210000000  0.5072800000000 1.0
C      1  0.4398170000000  0.5179350000000  0.4926600000000 1.0
C      1  0.5074770000000  0.4396480000000  0.4819090000000 1.0
C      1  0.4925840000000  0.5609520000000  0.4818580000000 1.0
C      1  0.5071700000000  0.5611830000000  0.5181730000000 1.0
C      1  0.4819230000000  0.5071810000000  0.4386370000000 1.0
C      1  0.5182800000000  0.4924320000000  0.4388570000000 1.0
C      1  0.4816960000000  0.4926030000000  0.5615580000000 1.0
C      1  0.4651650000000  0.5540430000000  0.4492150000000 1.0
C      1  0.4492400000000  0.4652750000000  0.5543600000000 1.0
C      1  0.5545800000000  0.4489860000000  0.4651340000000 1.0
C      1  0.5346600000000  0.5539780000000  0.5505490000000 1.0
C      1  0.4653210000000  0.4459240000000  0.5508930000000 1.0
C      1  0.5350410000000  0.4455870000000  0.4490390000000 1.0
C      1  0.5510650000000  0.4649900000000  0.4456750000000 1.0
C      1  0.4487650000000  0.5348570000000  0.4451490000000 1.0
C      1  0.5509480000000  0.5346280000000  0.5543350000000 1.0
C      1  0.4459720000000  0.4494400000000  0.5347850000000 1.0
C      1  0.5539530000000  0.5506590000000  0.5347380000000 1.0
C      1  0.4456930000000  0.5508320000000  0.4649940000000 1.0
C      1  0.4653210000000  0.4459240000000  0.4490810000000 1.0
C      1  0.4487650000000  0.5348570000000  0.5548260000000 1.0
C      1  0.5539530000000  0.5506590000000  0.4652370000000 1.0
C      1  0.5350410000000  0.4455870000000  0.5509350000000 1.0
C      1  0.4651650000000  0.5540430000000  0.5507600000000 1.0
C      1  0.5346600000000  0.5539780000000  0.4494260000000 1.0
C      1  0.5509480000000  0.5346280000000  0.4456400000000 1.0
C      1  0.4492400000000  0.4652750000000  0.4456150000000 1.0
C      1  0.5510650000000  0.4649900000000  0.5542990000000 1.0
C      1  0.4456930000000  0.5508320000000  0.5349800000000 1.0
C      1  0.5545800000000  0.4489860000000  0.5348400000000 1.0
C      1  0.4459720000000  0.4494400000000  0.4651900000000 1.0
C      1  0.4377650000000  0.5537610000000  0.4930630000000 1.0
C      1  0.4931900000000  0.4376700000000  0.5539040000000 1.0
C      1  0.5541100000000  0.4927990000000  0.4374400000000 1.0
C      1  0.5621800000000  0.5535900000000  0.5069130000000 1.0
C      1  0.4376140000000  0.4463680000000  0.5069150000000 1.0
C      1  0.5631030000000  0.4457400000000  0.4930450000000 1.0
C      1  0.5070420000000  0.4375260000000  0.4460240000000 1.0
C      1  0.4930310000000  0.5627520000000  0.4461660000000 1.0
C      1  0.5068930000000  0.5627870000000  0.5538290000000 1.0
C      1  0.4459000000000  0.4929470000000  0.5628230000000 1.0
C      1  0.5541420000000  0.5066440000000  0.5624320000000 1.0
C      1  0.4457700000000  0.5067910000000  0.4372420000000 1.0
C      1  0.4376140000000  0.4463680000000  0.4930600000000 1.0
C      1  0.4930310000000  0.5627520000000  0.5538090000000 1.0
C      1  0.5541420000000  0.5066440000000  0.4375430000000 1.0
C      1  0.5631030000000  0.4457400000000  0.5069300000000 1.0
C      1  0.4377650000000  0.5537610000000  0.5069120000000 1.0
C      1  0.5621800000000  0.5535900000000  0.4930620000000 1.0
C      1  0.5068930000000  0.5627870000000  0.4461460000000 1.0
C      1  0.4931900000000  0.4376700000000  0.4460710000000 1.0
C      1  0.5070420000000  0.4375260000000  0.5539510000000 1.0
C      1  0.4457700000000  0.5067910000000  0.5627320000000 1.0
C      1  0.5541100000000  0.4927990000000  0.5625340000000 1.0
C      1  0.4459000000000  0.4929470000000  0.4371520000000 1.0
C      1  0.4923810000000  0.5711310000000  0.5307400000000 1.0
C      1  0.5309000000000  0.4922030000000  0.5710340000000 1.0
C      1  0.5701560000000  0.5304390000000  0.4925190000000 1.0
C      1  0.5073400000000  0.5712410000000  0.4692310000000 1.0
C      1  0.4927090000000  0.4293970000000  0.4692360000000 1.0
C      1  0.5075840000000  0.4292600000000  0.5307500000000 1.0
C      1  0.4691650000000  0.4923790000000  0.4285350000000 1.0
C      1  0.5313530000000  0.5070700000000  0.4285890000000 1.0
C      1  0.4686410000000  0.5072700000000  0.5718180000000 1.0
C      1  0.4293410000000  0.5307100000000  0.5074280000000 1.0
C      1  0.5714400000000  0.4689790000000  0.5074920000000 1.0
C      1  0.4291410000000  0.4694550000000  0.4925150000000 1.0
C      1  0.4927100000000  0.4293970000000  0.5307390000000 1.0
C      1  0.5313530000000  0.5070700000000  0.5713860000000 1.0
C      1  0.5714400000000  0.4689790000000  0.4924830000000 1.0
C      1  0.5075840000000  0.4292600000000  0.4692250000000 1.0
C      1  0.4923810000000  0.5711310000000  0.4692350000000 1.0
C      1  0.5073400000000  0.5712410000000  0.5307440000000 1.0
C      1  0.4686410000000  0.5072700000000  0.4281560000000 1.0
C      1  0.5309000000000  0.4922030000000  0.4289400000000 1.0
C      1  0.4691650000000  0.4923790000000  0.5714400000000 1.0
C      1  0.4291410000000  0.4694550000000  0.5074600000000 1.0
C      1  0.5701560000000  0.5304390000000  0.5074550000000 1.0
C      1  0.4293410000000  0.5307100000000  0.4925470000000 1.0
C      1  0.4240020000000  0.4869430000000  0.4597140000000 1.0
C      1  0.4601110000000  0.4245560000000  0.4869910000000 1.0
C      1  0.4869850000000  0.4595760000000  0.4236200000000 1.0
C      1  0.5762290000000  0.4868090000000  0.5402070000000 1.0
C      1  0.4240090000000  0.5130170000000  0.5402020000000 1.0
C      1  0.5758360000000  0.5129060000000  0.4599830000000 1.0
C      1  0.5402340000000  0.4241150000000  0.5130090000000 1.0
C      1  0.4596290000000  0.5761460000000  0.5130680000000 1.0
C      1  0.5400680000000  0.5759040000000  0.4869770000000 1.0
C      1  0.5132260000000  0.4595070000000  0.5763100000000 1.0
C      1  0.4871820000000  0.5396860000000  0.5750550000000 1.0
C      1  0.5130610000000  0.5396310000000  0.4249520000000 1.0
C      1  0.4240090000000  0.5130170000000  0.4597730000000 1.0
C      1  0.4596290000000  0.5761460000000  0.4869070000000 1.0
C      1  0.4871820000000  0.5396860000000  0.4249190000000 1.0
C      1  0.5758360000000  0.5129060000000  0.5399920000000 1.0
C      1  0.4240020000000  0.4869430000000  0.5402610000000 1.0
C      1  0.5762290000000  0.4868090000000  0.4597680000000 1.0
C      1  0.5400680000000  0.5759040000000  0.5129980000000 1.0
C      1  0.4601110000000  0.4245560000000  0.5129840000000 1.0
C      1  0.5402340000000  0.4241150000000  0.4869660000000 1.0
C      1  0.5130620000000  0.5396310000000  0.5750230000000 1.0
C      1  0.4869850000000  0.4595760000000  0.5763550000000 1.0
C      1  0.5132260000000  0.4595070000000  0.4236650000000 1.0
C      1  0.4535470000000  0.4535880000000  0.5466570000000 1.0
C      1  0.5469050000000  0.4531770000000  0.4532870000000 1.0
C      1  0.4530730000000  0.5466460000000  0.4530300000000 1.0
C      1  0.4530730000000  0.5466460000000  0.5469440000000 1.0
C      1  0.5465320000000  0.5463810000000  0.4534390000000 1.0
C      1  0.5469050000000  0.4531770000000  0.5466880000000 1.0
C      1  0.5465320000000  0.5463810000000  0.5465360000000 1.0
C      1  0.4535470000000  0.4535880000000  0.4533180000000 1.0
END
