TITL C-1892081-8120-4 -2.49896924940252e-07 1000000 -3474.16501491124 0 0 500 (C1) n - 1
REM
REM in /nfs/bkarasulu/CARBON/AIRSS/Generating-Clusters/GAP-ML-2020/Higher-Symm/Selected-Sizes/TryA-Only_Ih-Symm/Larger-Clusters
REM
REM
REM
REM
REM
REM ./C.cell (2cf5181f0f1d4d5b12b972d32ad12063)
REM
REM compiler GCC version 9.2.1 20190827 (Red Hat 9.2.1-1)
REM options -cpp -mtune=generic -march=x86-64 -g -O0 -fpre-include=/usr/include/finclude/math-vector-fortran.h
REM seed 803493172 1092527056 -1097271858 632899959 1337831248 1701328326 727292339 -1766641073 277096592 -245118122 64228833 488545506 1685364090 -94348088 -56809075 -1208350281 -1139426928 1346130821 369600693 -1682985921 -578390732 1947415952 -390173735 -1963828843 -794474632 -315966881 1913339032 -549871714 4827108 -161906059 1755022224 1767570734 517104957
REM
CELL 1.54180  100.00000  100.00000  100.00000   90.00000   90.00000   90.00000
LATT -1
SFAC C  
C      1  0.4925460000000  0.5355500000000  0.4228360000000 1.0
C      1  0.5340390000000  0.4246640000000  0.4927900000000 1.0
C      1  0.4231170000000  0.4928420000000  0.5351600000000 1.0
C      1  0.5068040000000  0.4652970000000  0.4234360000000 1.0
C      1  0.4928000000000  0.4658400000000  0.5761140000000 1.0
C      1  0.5069840000000  0.5341670000000  0.5758850000000 1.0
C      1  0.4656720000000  0.5757580000000  0.4926430000000 1.0
C      1  0.5343710000000  0.5763740000000  0.5074640000000 1.0
C      1  0.4652310000000  0.4238850000000  0.5074720000000 1.0
C      1  0.5766090000000  0.5074090000000  0.5352600000000 1.0
C      1  0.4241660000000  0.5073800000000  0.4657220000000 1.0
C      1  0.5755450000000  0.4930130000000  0.4657050000000 1.0
C      1  0.4925240000000  0.5341380000000  0.5757080000000 1.0
C      1  0.5342970000000  0.4239700000000  0.5072420000000 1.0
C      1  0.4241480000000  0.4929580000000  0.4657800000000 1.0
C      1  0.5072840000000  0.4658000000000  0.5761330000000 1.0
C      1  0.4922620000000  0.4650910000000  0.4232050000000 1.0
C      1  0.5071300000000  0.5355450000000  0.4232590000000 1.0
C      1  0.4654080000000  0.5763710000000  0.5071110000000 1.0
C      1  0.5341410000000  0.5757530000000  0.4930170000000 1.0
C      1  0.4654590000000  0.4244280000000  0.4930110000000 1.0
C      1  0.5755820000000  0.5074290000000  0.4657170000000 1.0
C      1  0.4231490000000  0.5073990000000  0.5350220000000 1.0
C      1  0.5766630000000  0.4928370000000  0.5352080000000 1.0
C      1  0.4323300000000  0.4834950000000  0.4428020000000 1.0
C      1  0.4831920000000  0.4425580000000  0.4328250000000 1.0
C      1  0.4428680000000  0.4333110000000  0.4835410000000 1.0
C      1  0.5668080000000  0.5167020000000  0.4429890000000 1.0
C      1  0.4323070000000  0.5169470000000  0.5575070000000 1.0
C      1  0.5676070000000  0.4833110000000  0.5578200000000 1.0
C      1  0.5163210000000  0.5579900000000  0.4328940000000 1.0
C      1  0.4831840000000  0.5571150000000  0.5671520000000 1.0
C      1  0.5165970000000  0.4428670000000  0.5674110000000 1.0
C      1  0.5567950000000  0.5670400000000  0.4835680000000 1.0
C      1  0.4425770000000  0.5674290000000  0.5162250000000 1.0
C      1  0.5571250000000  0.4328340000000  0.5164340000000 1.0
C      1  0.4324580000000  0.4836170000000  0.5578470000000 1.0
C      1  0.4833140000000  0.4429220000000  0.5674960000000 1.0
C      1  0.4424630000000  0.4329380000000  0.5166210000000 1.0
C      1  0.5673710000000  0.5167200000000  0.5579100000000 1.0
C      1  0.4325830000000  0.5166370000000  0.4427870000000 1.0
C      1  0.5666450000000  0.4838270000000  0.4430160000000 1.0
C      1  0.5163710000000  0.5571220000000  0.5673390000000 1.0
C      1  0.4830960000000  0.5579710000000  0.4323150000000 1.0
C      1  0.5162970000000  0.4428670000000  0.4328360000000 1.0
C      1  0.5571690000000  0.5674580000000  0.5166510000000 1.0
C      1  0.4430160000000  0.5670080000000  0.4831730000000 1.0
C      1  0.5567110000000  0.4333840000000  0.4833650000000 1.0
C      1  0.4924660000000  0.5324940000000  0.4439460000000 1.0
C      1  0.5305770000000  0.4468190000000  0.4931060000000 1.0
C      1  0.4442750000000  0.4930000000000  0.5323850000000 1.0
C      1  0.5066020000000  0.4687530000000  0.4449350000000 1.0
C      1  0.4928700000000  0.4690030000000  0.5542460000000 1.0
C      1  0.5070650000000  0.5310010000000  0.5539160000000 1.0
C      1  0.4690490000000  0.5537010000000  0.4929370000000 1.0
C      1  0.5317420000000  0.5544130000000  0.5075610000000 1.0
C      1  0.4680470000000  0.4457940000000  0.5076830000000 1.0
C      1  0.5553700000000  0.5074000000000  0.5322390000000 1.0
C      1  0.4465590000000  0.5074180000000  0.4685770000000 1.0
C      1  0.5531900000000  0.4930620000000  0.4689330000000 1.0
C      1  0.4926360000000  0.5308700000000  0.5537080000000 1.0
C      1  0.5316510000000  0.4459260000000  0.5075010000000 1.0
C      1  0.4465190000000  0.4930600000000  0.4686150000000 1.0
C      1  0.5073170000000  0.4690450000000  0.5542540000000 1.0
C      1  0.4920610000000  0.4684350000000  0.4446750000000 1.0
C      1  0.5070830000000  0.5320230000000  0.4443980000000 1.0
C      1  0.4680760000000  0.5544750000000  0.5073700000000 1.0
C      1  0.5305540000000  0.5535930000000  0.4931740000000 1.0
C      1  0.4689340000000  0.4464440000000  0.4932480000000 1.0
C      1  0.5532200000000  0.5074380000000  0.4689180000000 1.0
C      1  0.4442630000000  0.5075840000000  0.5318990000000 1.0
C      1  0.5553800000000  0.4928170000000  0.5322680000000 1.0
C      1  0.4311320000000  0.4397700000000  0.4881460000000 1.0
C      1  0.4380880000000  0.4881860000000  0.4306290000000 1.0
C      1  0.4880150000000  0.4311660000000  0.4397720000000 1.0
C      1  0.5686750000000  0.5608150000000  0.4881890000000 1.0
C      1  0.4307910000000  0.5610900000000  0.5114190000000 1.0
C      1  0.5689470000000  0.4391480000000  0.5116710000000 1.0
C      1  0.5607100000000  0.5120370000000  0.4310370000000 1.0
C      1  0.4392480000000  0.5121750000000  0.5689110000000 1.0
C      1  0.5607700000000  0.4881260000000  0.5693050000000 1.0
C      1  0.5116220000000  0.5693870000000  0.4399430000000 1.0
C      1  0.4878640000000  0.5692070000000  0.5612560000000 1.0
C      1  0.5118680000000  0.4308520000000  0.5613790000000 1.0
C      1  0.4307550000000  0.4393880000000  0.5117810000000 1.0
C      1  0.4394230000000  0.4884190000000  0.5692770000000 1.0
C      1  0.4880110000000  0.4309090000000  0.5614310000000 1.0
C      1  0.5689850000000  0.5611420000000  0.5118750000000 1.0
C      1  0.4311870000000  0.5607030000000  0.4877760000000 1.0
C      1  0.5686050000000  0.4395800000000  0.4879890000000 1.0
C      1  0.5605810000000  0.5119800000000  0.5694750000000 1.0
C      1  0.4381920000000  0.5120750000000  0.4304990000000 1.0
C      1  0.5605280000000  0.4884370000000  0.4310670000000 1.0
C      1  0.5116900000000  0.5691880000000  0.5613900000000 1.0
C      1  0.4879580000000  0.5691330000000  0.4395570000000 1.0
C      1  0.5116340000000  0.4314120000000  0.4397500000000 1.0
C      1  0.4848560000000  0.4304660000000  0.4548460000000 1.0
C      1  0.4300840000000  0.4548170000000  0.4850150000000 1.0
C      1  0.4530720000000  0.4849030000000  0.4288860000000 1.0
C      1  0.5148290000000  0.5699560000000  0.4549970000000 1.0
C      1  0.4846010000000  0.5708410000000  0.5462530000000 1.0
C      1  0.5151530000000  0.4293170000000  0.5463650000000 1.0
C      1  0.5698760000000  0.5457760000000  0.4850580000000 1.0
C      1  0.4295030000000  0.5460710000000  0.5146790000000 1.0
C      1  0.5703000000000  0.4541460000000  0.5149880000000 1.0
C      1  0.5457040000000  0.5152380000000  0.4296530000000 1.0
C      1  0.4542160000000  0.5152340000000  0.5697110000000 1.0
C      1  0.5457800000000  0.4849900000000  0.5702340000000 1.0
C      1  0.4846660000000  0.4293650000000  0.5464580000000 1.0
C      1  0.4295890000000  0.4544010000000  0.5150090000000 1.0
C      1  0.4544760000000  0.4851240000000  0.5701110000000 1.0
C      1  0.5150250000000  0.5707910000000  0.5464090000000 1.0
C      1  0.4849270000000  0.5696740000000  0.4545650000000 1.0
C      1  0.5146950000000  0.4307130000000  0.4547990000000 1.0
C      1  0.5703110000000  0.5461280000000  0.5151340000000 1.0
C      1  0.4300390000000  0.5456410000000  0.4846940000000 1.0
C      1  0.5698180000000  0.4546400000000  0.4849210000000 1.0
C      1  0.5455260000000  0.5152340000000  0.5703540000000 1.0
C      1  0.4532160000000  0.5153460000000  0.4287130000000 1.0
C      1  0.5454640000000  0.4852980000000  0.4297220000000 1.0
C      1  0.4735120000000  0.4493490000000  0.5595230000000 1.0
C      1  0.4495650000000  0.5588910000000  0.4736190000000 1.0
C      1  0.5584970000000  0.4741930000000  0.4494280000000 1.0
C      1  0.5261400000000  0.5507520000000  0.5592760000000 1.0
C      1  0.4731680000000  0.5513510000000  0.4400050000000 1.0
C      1  0.5260140000000  0.4495570000000  0.4406500000000 1.0
C      1  0.5501340000000  0.4415340000000  0.4738530000000 1.0
C      1  0.4488080000000  0.4407690000000  0.5266050000000 1.0
C      1  0.5508580000000  0.5595170000000  0.5265800000000 1.0
C      1  0.4408590000000  0.5262680000000  0.4490860000000 1.0
C      1  0.5596890000000  0.5266970000000  0.5513600000000 1.0
C      1  0.4401110000000  0.4735920000000  0.5513040000000 1.0
C      1  0.4732050000000  0.4490210000000  0.4405000000000 1.0
C      1  0.4488480000000  0.5595340000000  0.5262040000000 1.0
C      1  0.5598450000000  0.4734000000000  0.5512600000000 1.0
C      1  0.5262360000000  0.5513180000000  0.4404980000000 1.0
C      1  0.4734780000000  0.5507490000000  0.5590430000000 1.0
C      1  0.5263720000000  0.4492610000000  0.5593810000000 1.0
C      1  0.5508510000000  0.4407490000000  0.5264050000000 1.0
C      1  0.4494340000000  0.4413370000000  0.4739260000000 1.0
C      1  0.5502230000000  0.5589380000000  0.4740080000000 1.0
C      1  0.4400460000000  0.5268160000000  0.5508930000000 1.0
C      1  0.5587070000000  0.5263740000000  0.4494280000000 1.0
C      1  0.4404840000000  0.4737860000000  0.4491580000000 1.0
C      1  0.4864370000000  0.5372310000000  0.5116850000000 1.0
C      1  0.5339310000000  0.5119690000000  0.4870840000000 1.0
C      1  0.5132750000000  0.4853080000000  0.5337720000000 1.0
C      1  0.5132070000000  0.4630550000000  0.5118400000000 1.0
C      1  0.4861590000000  0.4672240000000  0.4882660000000 1.0
C      1  0.5138060000000  0.5320030000000  0.4875480000000 1.0
C      1  0.4671060000000  0.4881190000000  0.4855420000000 1.0
C      1  0.5366380000000  0.4884580000000  0.5146320000000 1.0
C      1  0.4629280000000  0.5113980000000  0.5139990000000 1.0
C      1  0.4865660000000  0.5149170000000  0.5324410000000 1.0
C      1  0.5121120000000  0.5144600000000  0.4642070000000 1.0
C      1  0.4867840000000  0.4864920000000  0.4627340000000 1.0
C      1  0.4859600000000  0.5324540000000  0.4877300000000 1.0
C      1  0.5366670000000  0.5117500000000  0.5145860000000 1.0
C      1  0.5109450000000  0.4867370000000  0.4640710000000 1.0
C      1  0.5138430000000  0.4683550000000  0.4874520000000 1.0
C      1  0.4862990000000  0.4632360000000  0.5120940000000 1.0
C      1  0.5133470000000  0.5372650000000  0.5118720000000 1.0
C      1  0.4633290000000  0.4879670000000  0.5152730000000 1.0
C      1  0.5340090000000  0.4885700000000  0.4871600000000 1.0
C      1  0.4663720000000  0.5115790000000  0.4864930000000 1.0
C      1  0.4884870000000  0.5137510000000  0.4605360000000 1.0
C      1  0.5133170000000  0.5147550000000  0.5336760000000 1.0
C      1  0.4873380000000  0.4849540000000  0.5336050000000 1.0
C      1  0.4608400000000  0.5069670000000  0.4381670000000 1.0
C      1  0.5065050000000  0.4405590000000  0.4622340000000 1.0
C      1  0.4393610000000  0.4620200000000  0.5068540000000 1.0
C      1  0.5378870000000  0.4935090000000  0.4394120000000 1.0
C      1  0.4620950000000  0.4934080000000  0.5605730000000 1.0
C      1  0.5380560000000  0.5068470000000  0.5607860000000 1.0
C      1  0.4930850000000  0.5598550000000  0.4620330000000 1.0
C      1  0.5066210000000  0.5615010000000  0.5386470000000 1.0
C      1  0.4930650000000  0.4385730000000  0.5386560000000 1.0
C      1  0.5606010000000  0.5384720000000  0.5070250000000 1.0
C      1  0.4396160000000  0.5380540000000  0.4930210000000 1.0
C      1  0.5603140000000  0.4621980000000  0.4933430000000 1.0
C      1  0.4618790000000  0.5069490000000  0.5602120000000 1.0
C      1  0.5067000000000  0.4385980000000  0.5386640000000 1.0
C      1  0.4396990000000  0.4624290000000  0.4932780000000 1.0
C      1  0.5381350000000  0.4932780000000  0.5607610000000 1.0
C      1  0.4608210000000  0.4933220000000  0.4381890000000 1.0
C      1  0.5380170000000  0.5070880000000  0.4393300000000 1.0
C      1  0.4929950000000  0.5615450000000  0.5385320000000 1.0
C      1  0.5066050000000  0.5600740000000  0.4623370000000 1.0
C      1  0.4929790000000  0.4404310000000  0.4622070000000 1.0
C      1  0.5603560000000  0.5381800000000  0.4934370000000 1.0
C      1  0.4392910000000  0.5384270000000  0.5065970000000 1.0
C      1  0.5605740000000  0.4618360000000  0.5069290000000 1.0
C      1  0.4731580000000  0.5588420000000  0.4725580000000 1.0
C      1  0.5590540000000  0.4728380000000  0.4731630000000 1.0
C      1  0.4724370000000  0.4731760000000  0.5594080000000 1.0
C      1  0.5264890000000  0.4416110000000  0.4727560000000 1.0
C      1  0.4725840000000  0.4400490000000  0.5281110000000 1.0
C      1  0.5271120000000  0.5601630000000  0.5280480000000 1.0
C      1  0.4407960000000  0.5275760000000  0.4728640000000 1.0
C      1  0.5601100000000  0.5278820000000  0.5273860000000 1.0
C      1  0.4398640000000  0.4725740000000  0.5271850000000 1.0
C      1  0.5275060000000  0.5270080000000  0.5593670000000 1.0
C      1  0.4718230000000  0.5274580000000  0.4389460000000 1.0
C      1  0.5271000000000  0.4733700000000  0.4400070000000 1.0
C      1  0.4726050000000  0.5602250000000  0.5278120000000 1.0
C      1  0.5601270000000  0.4723570000000  0.5273250000000 1.0
C      1  0.4715730000000  0.4728360000000  0.4392690000000 1.0
C      1  0.5271290000000  0.4400240000000  0.5279700000000 1.0
C      1  0.4730540000000  0.4412100000000  0.4728610000000 1.0
C      1  0.5265910000000  0.5589790000000  0.4728540000000 1.0
C      1  0.4396450000000  0.5278830000000  0.5269140000000 1.0
C      1  0.5591320000000  0.5276530000000  0.4731980000000 1.0
C      1  0.4408360000000  0.4728030000000  0.4731010000000 1.0
C      1  0.5274660000000  0.5273730000000  0.4398110000000 1.0
C      1  0.4722660000000  0.5269720000000  0.5588750000000 1.0
C      1  0.5276990000000  0.4730630000000  0.5594660000000 1.0
C      1  0.4635330000000  0.5566290000000  0.5503850000000 1.0
C      1  0.5560040000000  0.5503230000000  0.4640320000000 1.0
C      1  0.5506360000000  0.4636990000000  0.5567810000000 1.0
C      1  0.5362940000000  0.4434680000000  0.5506200000000 1.0
C      1  0.4635930000000  0.4435090000000  0.4497680000000 1.0
C      1  0.5359050000000  0.5566960000000  0.4498000000000 1.0
C      1  0.4436260000000  0.4500420000000  0.4640120000000 1.0
C      1  0.5567590000000  0.4494940000000  0.5362810000000 1.0
C      1  0.4429780000000  0.5507310000000  0.5360330000000 1.0
C      1  0.4492840000000  0.5364640000000  0.5564150000000 1.0
C      1  0.5501460000000  0.5363040000000  0.4434980000000 1.0
C      1  0.4490450000000  0.4638120000000  0.4432360000000 1.0
C      1  0.4636340000000  0.5567410000000  0.4494290000000 1.0
C      1  0.5567250000000  0.5507140000000  0.5364270000000 1.0
C      1  0.5498590000000  0.4643300000000  0.4435010000000 1.0
C      1  0.5357110000000  0.4440410000000  0.4497920000000 1.0
C      1  0.4635460000000  0.4436000000000  0.5507750000000 1.0
C      1  0.5361470000000  0.5566200000000  0.5506710000000 1.0
C      1  0.4430230000000  0.4496690000000  0.5364050000000 1.0
C      1  0.5559170000000  0.4501960000000  0.4639220000000 1.0
C      1  0.4437260000000  0.5502350000000  0.4636990000000 1.0
C      1  0.4492900000000  0.5362870000000  0.4430750000000 1.0
C      1  0.5504510000000  0.5364100000000  0.5568380000000 1.0
C      1  0.4493910000000  0.4639190000000  0.5568100000000 1.0
C      1  0.5258990000000  0.4344780000000  0.4865820000000 1.0
C      1  0.4324490000000  0.4862670000000  0.5269780000000 1.0
C      1  0.4857270000000  0.5273590000000  0.4319130000000 1.0
C      1  0.4738020000000  0.5659850000000  0.4863830000000 1.0
C      1  0.5266940000000  0.5667940000000  0.5141020000000 1.0
C      1  0.4729980000000  0.4333860000000  0.5141670000000 1.0
C      1  0.5673560000000  0.5140790000000  0.5270560000000 1.0
C      1  0.4340220000000  0.5137230000000  0.4735100000000 1.0
C      1  0.5657800000000  0.4867210000000  0.4736170000000 1.0
C      1  0.5132480000000  0.4736370000000  0.4327990000000 1.0
C      1  0.4862340000000  0.4738760000000  0.5664880000000 1.0
C      1  0.5136440000000  0.5262310000000  0.5662910000000 1.0
C      1  0.5266310000000  0.4334870000000  0.5139840000000 1.0
C      1  0.4340890000000  0.4867070000000  0.4736090000000 1.0
C      1  0.4860150000000  0.5261100000000  0.5660390000000 1.0
C      1  0.4731000000000  0.5668880000000  0.5138710000000 1.0
C      1  0.5259830000000  0.5660070000000  0.4867050000000 1.0
C      1  0.4736160000000  0.4341470000000  0.4867170000000 1.0
C      1  0.5658180000000  0.5137380000000  0.4736260000000 1.0
C      1  0.4322480000000  0.5141040000000  0.5266410000000 1.0
C      1  0.5673690000000  0.4861720000000  0.5270290000000 1.0
C      1  0.5139190000000  0.4738270000000  0.5665910000000 1.0
C      1  0.4854610000000  0.4731910000000  0.4323490000000 1.0
C      1  0.5137490000000  0.5270990000000  0.4323400000000 1.0
C      1  0.5830450000000  0.5425230000000  0.5062700000000 1.0
C      1  0.5418020000000  0.5067590000000  0.5833470000000 1.0
C      1  0.5061830000000  0.5835310000000  0.5427530000000 1.0
C      1  0.4167810000000  0.4580930000000  0.5063040000000 1.0
C      1  0.5828030000000  0.4581650000000  0.4934470000000 1.0
C      1  0.4170710000000  0.5421670000000  0.4932720000000 1.0
C      1  0.4581920000000  0.4935460000000  0.5831740000000 1.0
C      1  0.5420230000000  0.4938580000000  0.4167950000000 1.0
C      1  0.4568060000000  0.5065420000000  0.4160470000000 1.0
C      1  0.4936130000000  0.4166190000000  0.5428090000000 1.0
C      1  0.5060360000000  0.4178670000000  0.4583760000000 1.0
C      1  0.4939130000000  0.5824130000000  0.4578940000000 1.0
C      1  0.5828420000000  0.5421940000000  0.4935930000000 1.0
C      1  0.5422440000000  0.5065380000000  0.4167890000000 1.0
C      1  0.5065110000000  0.5830050000000  0.4588090000000 1.0
C      1  0.4171640000000  0.4583870000000  0.4936440000000 1.0
C      1  0.5830160000000  0.4577780000000  0.5061220000000 1.0
C      1  0.4167070000000  0.5424600000000  0.5059390000000 1.0
C      1  0.4565810000000  0.4938480000000  0.4161950000000 1.0
C      1  0.5424220000000  0.4941190000000  0.5829680000000 1.0
C      1  0.4574140000000  0.5061540000000  0.5825210000000 1.0
C      1  0.4933800000000  0.4175700000000  0.4586040000000 1.0
C      1  0.5063140000000  0.4165610000000  0.5427020000000 1.0
C      1  0.4934840000000  0.5835790000000  0.5426630000000 1.0
C      1  0.4691170000000  0.5145880000000  0.4473540000000 1.0
C      1  0.5141070000000  0.4505010000000  0.4699510000000 1.0
C      1  0.4487640000000  0.4699690000000  0.5144510000000 1.0
C      1  0.5297060000000  0.4859320000000  0.4488430000000 1.0
C      1  0.4697320000000  0.4857750000000  0.5507120000000 1.0
C      1  0.5304500000000  0.5143760000000  0.5508520000000 1.0
C      1  0.4854810000000  0.5497920000000  0.4696570000000 1.0
C      1  0.5141950000000  0.5520290000000  0.5305620000000 1.0
C      1  0.4854410000000  0.4481090000000  0.5306690000000 1.0
C      1  0.5512680000000  0.5304290000000  0.5147350000000 1.0
C      1  0.4493580000000  0.5299710000000  0.4854540000000 1.0
C      1  0.5506850000000  0.4703460000000  0.4858560000000 1.0
C      1  0.4694770000000  0.5144070000000  0.5500670000000 1.0
C      1  0.5142400000000  0.4481360000000  0.5306150000000 1.0
C      1  0.4495670000000  0.4703870000000  0.4856980000000 1.0
C      1  0.5304870000000  0.4857040000000  0.5508550000000 1.0
C      1  0.4689320000000  0.4856320000000  0.4475080000000 1.0
C      1  0.5299240000000  0.5147430000000  0.4486880000000 1.0
C      1  0.4854130000000  0.5521130000000  0.5304020000000 1.0
C      1  0.5142290000000  0.5501290000000  0.4699460000000 1.0
C      1  0.4853650000000  0.4502590000000  0.4699860000000 1.0
C      1  0.5507060000000  0.5300940000000  0.4859030000000 1.0
C      1  0.4486030000000  0.5303880000000  0.5143150000000 1.0
C      1  0.5512480000000  0.4698450000000  0.5146810000000 1.0
C      1  0.5214620000000  0.5387870000000  0.5518580000000 1.0
C      1  0.5387500000000  0.5522650000000  0.5220900000000 1.0
C      1  0.5527740000000  0.5219360000000  0.5392330000000 1.0
C      1  0.4783500000000  0.4612660000000  0.5521600000000 1.0
C      1  0.5210970000000  0.4617120000000  0.4474900000000 1.0
C      1  0.4777870000000  0.5390770000000  0.4467500000000 1.0
C      1  0.4609560000000  0.4479630000000  0.5221370000000 1.0
C      1  0.5382060000000  0.4489140000000  0.4788610000000 1.0
C      1  0.4614910000000  0.5515510000000  0.4786250000000 1.0
C      1  0.4470870000000  0.4783590000000  0.5392280000000 1.0
C      1  0.5512050000000  0.4788420000000  0.4615210000000 1.0
C      1  0.4483680000000  0.5216100000000  0.4610790000000 1.0
C      1  0.5213680000000  0.5391020000000  0.4472060000000 1.0
C      1  0.5382660000000  0.5515760000000  0.4789570000000 1.0
C      1  0.5513710000000  0.5217220000000  0.4614850000000 1.0
C      1  0.4776930000000  0.4613450000000  0.4472520000000 1.0
C      1  0.5216370000000  0.4612400000000  0.5520600000000 1.0
C      1  0.4783030000000  0.5388250000000  0.5516790000000 1.0
C      1  0.4614060000000  0.4485890000000  0.4788940000000 1.0
C      1  0.5387170000000  0.4479980000000  0.5219800000000 1.0
C      1  0.4609960000000  0.5523110000000  0.5217820000000 1.0
C      1  0.4480360000000  0.4785060000000  0.4610220000000 1.0
C      1  0.5528250000000  0.4782560000000  0.5392090000000 1.0
C      1  0.4469640000000  0.5219570000000  0.5387870000000 1.0
C      1  0.5135140000000  0.5139300000000  0.5195530000000 1.0
C      1  0.5069900000000  0.5249060000000  0.5134910000000 1.0
C      1  0.5233530000000  0.5078200000000  0.5103240000000 1.0
C      1  0.4868590000000  0.4865280000000  0.5195830000000 1.0
C      1  0.5056790000000  0.4919950000000  0.4767050000000 1.0
C      1  0.4919810000000  0.5080550000000  0.4723720000000 1.0
C      1  0.4926900000000  0.4766220000000  0.5099680000000 1.0
C      1  0.5083450000000  0.4830040000000  0.4891610000000 1.0
C      1  0.4917380000000  0.5197080000000  0.4943280000000 1.0
C      1  0.4760100000000  0.4929770000000  0.5138130000000 1.0
C      1  0.5207500000000  0.4919470000000  0.4946410000000 1.0
C      1  0.4799050000000  0.5077430000000  0.4942320000000 1.0
C      1  0.5062530000000  0.5088410000000  0.4763180000000 1.0
C      1  0.5082640000000  0.5172230000000  0.4890900000000 1.0
C      1  0.5207090000000  0.5083520000000  0.4946110000000 1.0
C      1  0.4898670000000  0.4937580000000  0.4751510000000 1.0
C      1  0.5134860000000  0.4862380000000  0.5196240000000 1.0
C      1  0.4863340000000  0.5138850000000  0.5183550000000 1.0
C      1  0.4919880000000  0.4802950000000  0.4943490000000 1.0
C      1  0.5068800000000  0.4754520000000  0.5133880000000 1.0
C      1  0.4929540000000  0.5239640000000  0.5097810000000 1.0
C      1  0.4821660000000  0.4920800000000  0.4886070000000 1.0
C      1  0.5233470000000  0.4924040000000  0.5103790000000 1.0
C      1  0.4762740000000  0.5068490000000  0.5098160000000 1.0
C      1  0.5747440000000  0.4928540000000  0.4509170000000 1.0
C      1  0.4926260000000  0.4510370000000  0.5751200000000 1.0
C      1  0.4509050000000  0.5749950000000  0.4922950000000 1.0
C      1  0.4248130000000  0.5075010000000  0.4509280000000 1.0
C      1  0.5753930000000  0.5074610000000  0.5500740000000 1.0
C      1  0.4243870000000  0.4928350000000  0.5500050000000 1.0
C      1  0.5071030000000  0.5489770000000  0.5749650000000 1.0
C      1  0.4924640000000  0.5503740000000  0.4242140000000 1.0
C      1  0.5070750000000  0.4505160000000  0.4246880000000 1.0
C      1  0.5488060000000  0.4253740000000  0.4924490000000 1.0
C      1  0.4504030000000  0.4249620000000  0.5074310000000 1.0
C      1  0.5492050000000  0.5753850000000  0.5074370000000 1.0
C      1  0.5754890000000  0.4926930000000  0.5500170000000 1.0
C      1  0.4923230000000  0.4503020000000  0.4245830000000 1.0
C      1  0.4505780000000  0.5753540000000  0.5070370000000 1.0
C      1  0.4243270000000  0.5075900000000  0.5498190000000 1.0
C      1  0.5747950000000  0.5076070000000  0.4509240000000 1.0
C      1  0.4247490000000  0.4927390000000  0.4509770000000 1.0
C      1  0.5072240000000  0.5503230000000  0.4245750000000 1.0
C      1  0.4923740000000  0.5489280000000  0.5748070000000 1.0
C      1  0.5073570000000  0.4510010000000  0.5750900000000 1.0
C      1  0.5491270000000  0.4249580000000  0.5071960000000 1.0
C      1  0.4506910000000  0.4252640000000  0.4926830000000 1.0
C      1  0.5488990000000  0.5750360000000  0.4926840000000 1.0
C      1  0.4808420000000  0.4930280000000  0.5432740000000 1.0
C      1  0.4929550000000  0.5424200000000  0.4808410000000 1.0
C      1  0.5447170000000  0.4818800000000  0.4934530000000 1.0
C      1  0.5194430000000  0.5069690000000  0.5437410000000 1.0
C      1  0.4805860000000  0.5069020000000  0.4517430000000 1.0
C      1  0.5182620000000  0.4935320000000  0.4546160000000 1.0
C      1  0.5068110000000  0.4578100000000  0.4811990000000 1.0
C      1  0.4928640000000  0.4532930000000  0.5190210000000 1.0
C      1  0.5067940000000  0.5474850000000  0.5187130000000 1.0
C      1  0.4556080000000  0.5183910000000  0.4928900000000 1.0
C      1  0.5456660000000  0.5189020000000  0.5072890000000 1.0
C      1  0.4548540000000  0.4814380000000  0.5068710000000 1.0
C      1  0.4804220000000  0.4931360000000  0.4524450000000 1.0
C      1  0.4928920000000  0.5471410000000  0.5187470000000 1.0
C      1  0.5456590000000  0.4813980000000  0.5072840000000 1.0
C      1  0.5184560000000  0.5072970000000  0.4543990000000 1.0
C      1  0.4805590000000  0.5069750000000  0.5426700000000 1.0
C      1  0.5194110000000  0.4931100000000  0.5438000000000 1.0
C      1  0.5067560000000  0.4528840000000  0.5188570000000 1.0
C      1  0.4929500000000  0.4574230000000  0.4811990000000 1.0
C      1  0.5068500000000  0.5424710000000  0.4810960000000 1.0
C      1  0.4543890000000  0.5189540000000  0.5067400000000 1.0
C      1  0.5446730000000  0.5185490000000  0.4934540000000 1.0
C      1  0.4565250000000  0.4819520000000  0.4930060000000 1.0
C      1  0.4725160000000  0.4609790000000  0.5083510000000 1.0
C      1  0.4622350000000  0.5079390000000  0.4723480000000 1.0
C      1  0.5071060000000  0.4733130000000  0.4601130000000 1.0
C      1  0.5273790000000  0.5391070000000  0.5081560000000 1.0
C      1  0.4728630000000  0.5380790000000  0.4923990000000 1.0
C      1  0.5269190000000  0.4626890000000  0.4925550000000 1.0
C      1  0.5376540000000  0.4925060000000  0.4731770000000 1.0
C      1  0.4591950000000  0.4924790000000  0.5282070000000 1.0
C      1  0.5403050000000  0.5078460000000  0.5279790000000 1.0
C      1  0.4920310000000  0.5275730000000  0.4587240000000 1.0
C      1  0.5076490000000  0.5277170000000  0.5386180000000 1.0
C      1  0.4923580000000  0.4721220000000  0.5388900000000 1.0
C      1  0.4728990000000  0.4619610000000  0.4927450000000 1.0
C      1  0.4593410000000  0.5078840000000  0.5275040000000 1.0
C      1  0.5078790000000  0.4722930000000  0.5389170000000 1.0
C      1  0.5269150000000  0.5377130000000  0.4926010000000 1.0
C      1  0.4725140000000  0.5392280000000  0.5080090000000 1.0
C      1  0.5272810000000  0.4612400000000  0.5081170000000 1.0
C      1  0.5403110000000  0.4923370000000  0.5280090000000 1.0
C      1  0.4618460000000  0.4922280000000  0.4720840000000 1.0
C      1  0.5377340000000  0.5080920000000  0.4731380000000 1.0
C      1  0.4919990000000  0.5277350000000  0.5382540000000 1.0
C      1  0.5076330000000  0.5275650000000  0.4597810000000 1.0
C      1  0.4913740000000  0.4730800000000  0.4598150000000 1.0
C      1  0.4614350000000  0.4821180000000  0.5387280000000 1.0
C      1  0.4815880000000  0.5380460000000  0.4611700000000 1.0
C      1  0.5379680000000  0.4632070000000  0.4824010000000 1.0
C      1  0.5384040000000  0.5182170000000  0.5386310000000 1.0
C      1  0.4627450000000  0.5182050000000  0.4611040000000 1.0
C      1  0.5368040000000  0.4823240000000  0.4618830000000 1.0
C      1  0.5175730000000  0.4626370000000  0.4618390000000 1.0
C      1  0.4821710000000  0.4610900000000  0.5379060000000 1.0
C      1  0.5176770000000  0.5389360000000  0.5375540000000 1.0
C      1  0.4619690000000  0.5372520000000  0.4820870000000 1.0
C      1  0.5383590000000  0.5378110000000  0.5184760000000 1.0
C      1  0.4614160000000  0.4624310000000  0.5185080000000 1.0
C      1  0.4623040000000  0.4820320000000  0.4608460000000 1.0
C      1  0.4820450000000  0.5389640000000  0.5374150000000 1.0
C      1  0.5383060000000  0.4624740000000  0.5184300000000 1.0
C      1  0.5369810000000  0.5183210000000  0.4618170000000 1.0
C      1  0.4614050000000  0.5183460000000  0.5380620000000 1.0
C      1  0.5384380000000  0.4819200000000  0.5386350000000 1.0
C      1  0.5178560000000  0.4611130000000  0.5377400000000 1.0
C      1  0.4813160000000  0.4621750000000  0.4617100000000 1.0
C      1  0.5178780000000  0.5383180000000  0.4615590000000 1.0
C      1  0.4614380000000  0.5378210000000  0.5182160000000 1.0
C      1  0.5380130000000  0.5372780000000  0.4824750000000 1.0
C      1  0.4619630000000  0.4628860000000  0.4824140000000 1.0
C      1  0.4578310000000  0.5292830000000  0.4335690000000 1.0
C      1  0.5284740000000  0.4355090000000  0.4590430000000 1.0
C      1  0.4342540000000  0.4586750000000  0.5289610000000 1.0
C      1  0.5409970000000  0.4714670000000  0.4344440000000 1.0
C      1  0.4586370000000  0.4712780000000  0.5653070000000 1.0
C      1  0.5412560000000  0.5290460000000  0.5654010000000 1.0
C      1  0.4711090000000  0.5650050000000  0.4588310000000 1.0
C      1  0.5289800000000  0.5658120000000  0.5419330000000 1.0
C      1  0.4706990000000  0.4343920000000  0.5420140000000 1.0
C      1  0.5656770000000  0.5417920000000  0.5291290000000 1.0
C      1  0.4348640000000  0.5412850000000  0.4709290000000 1.0
C      1  0.5648970000000  0.4590670000000  0.4711490000000 1.0
C      1  0.4585250000000  0.5290320000000  0.5649230000000 1.0
C      1  0.5290820000000  0.4343340000000  0.5418410000000 1.0
C      1  0.4348650000000  0.4590970000000  0.4712580000000 1.0
C      1  0.5414840000000  0.4711040000000  0.5654210000000 1.0
C      1  0.4576250000000  0.4709270000000  0.4338030000000 1.0
C      1  0.5413550000000  0.5291610000000  0.4343450000000 1.0
C      1  0.4706720000000  0.5658800000000  0.5417050000000 1.0
C      1  0.5286200000000  0.5651050000000  0.4591350000000 1.0
C      1  0.4710270000000  0.4351720000000  0.4590920000000 1.0
C      1  0.5649700000000  0.5414180000000  0.4712570000000 1.0
C      1  0.4340990000000  0.5417840000000  0.5286670000000 1.0
C      1  0.5656950000000  0.4584370000000  0.5290010000000 1.0
C      1  0.4997850000000  0.5744120000000  0.4361430000000 1.0
C      1  0.4999360000000  0.4260860000000  0.5654180000000 1.0
C      1  0.4260610000000  0.5649820000000  0.4994400000000 1.0
C      1  0.5736780000000  0.4352850000000  0.4996780000000 1.0
C      1  0.4998780000000  0.4261960000000  0.4359350000000 1.0
C      1  0.4259690000000  0.4355480000000  0.4998090000000 1.0
C      1  0.4340140000000  0.5001220000000  0.4258650000000 1.0
C      1  0.4997550000000  0.5739780000000  0.5654120000000 1.0
C      1  0.5737380000000  0.5650470000000  0.4999060000000 1.0
C      1  0.5648200000000  0.5001950000000  0.4260580000000 1.0
C      1  0.4357290000000  0.5003600000000  0.5741340000000 1.0
C      1  0.5642880000000  0.5000390000000  0.5743190000000 1.0
C      1  0.4516860000000  0.5482740000000  0.4514940000000 1.0
C      1  0.4514150000000  0.4518340000000  0.5485210000000 1.0
C      1  0.5477260000000  0.4523090000000  0.4518410000000 1.0
C      1  0.5483410000000  0.5484670000000  0.5485030000000 1.0
C      1  0.4513630000000  0.5485000000000  0.5481270000000 1.0
C      1  0.5478910000000  0.5483100000000  0.4518670000000 1.0
C      1  0.5484530000000  0.4516720000000  0.5484240000000 1.0
C      1  0.4515490000000  0.4519160000000  0.4517550000000 1.0
END
