TITL C-1892085-2338-60 -7.41458478178228e-07 1000000 -2618.23098762437 0 0 380 (Th) n - 1
REM
REM in /nfs/bkarasulu/CARBON/AIRSS/Generating-Clusters/GAP-ML-2020/Higher-Symm/Selected-Sizes/TryA-Only_Ih-Symm/Larger-Clusters
REM
REM
REM
REM
REM
REM ./C.cell (2cf5181f0f1d4d5b12b972d32ad12063)
REM
REM compiler GCC version 9.2.1 20190827 (Red Hat 9.2.1-1)
REM options -cpp -mtune=generic -march=x86-64 -g -O0 -fpre-include=/usr/include/finclude/math-vector-fortran.h
REM seed -1790466465 -2145608555 -392755152 972415759 -900375569 370294639 574114853 -42680096 1055752629 -1555355423 1371119444 -343006028 1998644851 -2027179601 1777981111 -1880205705 -856282570 -260088210 1554358195 512754945 -1745062997 933718891 1620798532 966735293 131706479 274956950 1364769136 -2126296983 2130761665 -1274164873 -1283261385 1430505300 961102666
REM
CELL 1.54180  100.00000  100.00000  100.00000   90.00000   90.00000   90.00000
LATT -1
SFAC C  
C      1  0.5178290000000  0.4634880000000  0.5211500000000 1.0
C      1  0.5210470000000  0.5176750000000  0.4637440000000 1.0
C      1  0.4636410000000  0.5208930000000  0.5179310000000 1.0
C      1  0.5178290000000  0.5363070000000  0.4791580000000 1.0
C      1  0.4822730000000  0.5363070000000  0.5211500000000 1.0
C      1  0.4822730000000  0.4634880000000  0.4791580000000 1.0
C      1  0.5210470000000  0.4821200000000  0.5365630000000 1.0
C      1  0.4790550000000  0.4821200000000  0.4637440000000 1.0
C      1  0.4790550000000  0.5176750000000  0.5365630000000 1.0
C      1  0.4636410000000  0.4789010000000  0.4823760000000 1.0
C      1  0.5364610000000  0.4789010000000  0.5179310000000 1.0
C      1  0.5364610000000  0.5208930000000  0.4823760000000 1.0
C      1  0.4822730000000  0.4634880000000  0.5211500000000 1.0
C      1  0.4790550000000  0.5176750000000  0.4637440000000 1.0
C      1  0.5364610000000  0.5208930000000  0.5179310000000 1.0
C      1  0.4822730000000  0.5363070000000  0.4791580000000 1.0
C      1  0.5178290000000  0.5363070000000  0.5211500000000 1.0
C      1  0.5178290000000  0.4634880000000  0.4791580000000 1.0
C      1  0.4790550000000  0.4821200000000  0.5365630000000 1.0
C      1  0.5210470000000  0.4821200000000  0.4637440000000 1.0
C      1  0.5210470000000  0.5176750000000  0.5365630000000 1.0
C      1  0.5364610000000  0.4789010000000  0.4823760000000 1.0
C      1  0.4636410000000  0.4789010000000  0.5179310000000 1.0
C      1  0.4636410000000  0.5208930000000  0.4823760000000 1.0
C      1  0.5146210000000  0.4929370000000  0.4407090000000 1.0
C      1  0.4406060000000  0.5144670000000  0.4931930000000 1.0
C      1  0.4930900000000  0.4404520000000  0.5147240000000 1.0
C      1  0.5146210000000  0.5068580000000  0.5595990000000 1.0
C      1  0.4854810000000  0.5068580000000  0.4407090000000 1.0
C      1  0.4854810000000  0.4929370000000  0.5595990000000 1.0
C      1  0.4406060000000  0.4853270000000  0.5071140000000 1.0
C      1  0.5594960000000  0.4853270000000  0.4931930000000 1.0
C      1  0.5594960000000  0.5144670000000  0.5071140000000 1.0
C      1  0.4930900000000  0.5593420000000  0.4855840000000 1.0
C      1  0.5070120000000  0.5593420000000  0.5147240000000 1.0
C      1  0.5070120000000  0.4404520000000  0.4855840000000 1.0
C      1  0.4854810000000  0.4929370000000  0.4407090000000 1.0
C      1  0.5594960000000  0.5144670000000  0.4931930000000 1.0
C      1  0.5070120000000  0.4404520000000  0.5147240000000 1.0
C      1  0.4854810000000  0.5068580000000  0.5595990000000 1.0
C      1  0.5146210000000  0.5068580000000  0.4407090000000 1.0
C      1  0.5146210000000  0.4929370000000  0.5595990000000 1.0
C      1  0.5594960000000  0.4853270000000  0.5071140000000 1.0
C      1  0.4406060000000  0.4853270000000  0.4931930000000 1.0
C      1  0.4406060000000  0.5144670000000  0.5071140000000 1.0
C      1  0.5070120000000  0.5593420000000  0.4855840000000 1.0
C      1  0.4930900000000  0.5593420000000  0.5147240000000 1.0
C      1  0.4930900000000  0.4404520000000  0.4855840000000 1.0
C      1  0.5572100000000  0.4816600000000  0.5432190000000 1.0
C      1  0.5431160000000  0.5570570000000  0.4819160000000 1.0
C      1  0.4818140000000  0.5429630000000  0.5573130000000 1.0
C      1  0.5572100000000  0.5181350000000  0.4570880000000 1.0
C      1  0.4428920000000  0.5181350000000  0.5432190000000 1.0
C      1  0.4428920000000  0.4816600000000  0.4570880000000 1.0
C      1  0.5431160000000  0.4427380000000  0.5183910000000 1.0
C      1  0.4569860000000  0.4427380000000  0.4819160000000 1.0
C      1  0.4569860000000  0.5570570000000  0.5183910000000 1.0
C      1  0.4818140000000  0.4568320000000  0.4429940000000 1.0
C      1  0.5182880000000  0.4568320000000  0.5573130000000 1.0
C      1  0.5182880000000  0.5429630000000  0.4429940000000 1.0
C      1  0.4428920000000  0.4816600000000  0.5432190000000 1.0
C      1  0.4569860000000  0.5570570000000  0.4819160000000 1.0
C      1  0.5182880000000  0.5429630000000  0.5573130000000 1.0
C      1  0.4428920000000  0.5181350000000  0.4570880000000 1.0
C      1  0.5572100000000  0.5181350000000  0.5432190000000 1.0
C      1  0.5572100000000  0.4816600000000  0.4570880000000 1.0
C      1  0.4569860000000  0.4427380000000  0.5183910000000 1.0
C      1  0.5431160000000  0.4427380000000  0.4819160000000 1.0
C      1  0.5431160000000  0.5570570000000  0.5183910000000 1.0
C      1  0.5182880000000  0.4568320000000  0.4429940000000 1.0
C      1  0.4818140000000  0.4568320000000  0.5573130000000 1.0
C      1  0.4818140000000  0.5429630000000  0.4429940000000 1.0
C      1  0.4494770000000  0.5458800000000  0.4429270000000 1.0
C      1  0.4428240000000  0.4493230000000  0.5461370000000 1.0
C      1  0.5460340000000  0.4426710000000  0.4495790000000 1.0
C      1  0.4494770000000  0.4539140000000  0.5573800000000 1.0
C      1  0.5506250000000  0.4539140000000  0.4429270000000 1.0
C      1  0.5506250000000  0.5458800000000  0.5573800000000 1.0
C      1  0.4428240000000  0.5504720000000  0.4541710000000 1.0
C      1  0.5572780000000  0.5504720000000  0.5461370000000 1.0
C      1  0.5572780000000  0.4493230000000  0.4541710000000 1.0
C      1  0.5460340000000  0.5571240000000  0.5507280000000 1.0
C      1  0.4540680000000  0.5571240000000  0.4495790000000 1.0
C      1  0.4540680000000  0.4426710000000  0.5507280000000 1.0
C      1  0.5506250000000  0.5458800000000  0.4429270000000 1.0
C      1  0.5572780000000  0.4493230000000  0.5461370000000 1.0
C      1  0.4540680000000  0.4426710000000  0.4495790000000 1.0
C      1  0.5506250000000  0.4539140000000  0.5573800000000 1.0
C      1  0.4494770000000  0.4539140000000  0.4429270000000 1.0
C      1  0.4494770000000  0.5458800000000  0.5573800000000 1.0
C      1  0.5572780000000  0.5504720000000  0.4541710000000 1.0
C      1  0.4428240000000  0.5504720000000  0.5461370000000 1.0
C      1  0.4428240000000  0.4493230000000  0.4541710000000 1.0
C      1  0.4540680000000  0.5571240000000  0.5507280000000 1.0
C      1  0.5460340000000  0.5571240000000  0.4495790000000 1.0
C      1  0.5460340000000  0.4426710000000  0.5507280000000 1.0
C      1  0.4506350000000  0.4704570000000  0.5419920000000 1.0
C      1  0.5418890000000  0.4504810000000  0.4707130000000 1.0
C      1  0.4706100000000  0.5417350000000  0.4507380000000 1.0
C      1  0.4506350000000  0.5293380000000  0.4583160000000 1.0
C      1  0.5494670000000  0.5293380000000  0.5419920000000 1.0
C      1  0.5494670000000  0.4704570000000  0.4583160000000 1.0
C      1  0.5418890000000  0.5493130000000  0.5295940000000 1.0
C      1  0.4582130000000  0.5493130000000  0.4707130000000 1.0
C      1  0.4582130000000  0.4504810000000  0.5295940000000 1.0
C      1  0.4706100000000  0.4580590000000  0.5495700000000 1.0
C      1  0.5294920000000  0.4580590000000  0.4507380000000 1.0
C      1  0.5294920000000  0.5417350000000  0.5495700000000 1.0
C      1  0.5494670000000  0.4704570000000  0.5419920000000 1.0
C      1  0.4582130000000  0.4504810000000  0.4707130000000 1.0
C      1  0.5294920000000  0.5417350000000  0.4507380000000 1.0
C      1  0.5494670000000  0.5293380000000  0.4583160000000 1.0
C      1  0.4506350000000  0.5293380000000  0.5419920000000 1.0
C      1  0.4506350000000  0.4704570000000  0.4583160000000 1.0
C      1  0.4582130000000  0.5493130000000  0.5295940000000 1.0
C      1  0.5418890000000  0.5493130000000  0.4707130000000 1.0
C      1  0.5418890000000  0.4504810000000  0.5295940000000 1.0
C      1  0.5294920000000  0.4580590000000  0.5495700000000 1.0
C      1  0.4706100000000  0.4580590000000  0.4507380000000 1.0
C      1  0.4706100000000  0.5417350000000  0.5495700000000 1.0
C      1  0.5501330000000  0.5523000000000  0.4929330000000 1.0
C      1  0.4928300000000  0.5499790000000  0.5525570000000 1.0
C      1  0.5524540000000  0.4926760000000  0.5502360000000 1.0
C      1  0.5501330000000  0.4474940000000  0.5073750000000 1.0
C      1  0.4499690000000  0.4474940000000  0.4929330000000 1.0
C      1  0.4499690000000  0.5523000000000  0.5073750000000 1.0
C      1  0.4928300000000  0.4498150000000  0.4477510000000 1.0
C      1  0.5072720000000  0.4498150000000  0.5525570000000 1.0
C      1  0.5072720000000  0.5499790000000  0.4477510000000 1.0
C      1  0.5524540000000  0.5071180000000  0.4500720000000 1.0
C      1  0.4476480000000  0.5071180000000  0.5502360000000 1.0
C      1  0.4476480000000  0.4926760000000  0.4500720000000 1.0
C      1  0.4499690000000  0.5523000000000  0.4929330000000 1.0
C      1  0.5072720000000  0.5499790000000  0.5525570000000 1.0
C      1  0.4476480000000  0.4926760000000  0.5502360000000 1.0
C      1  0.4499690000000  0.4474940000000  0.5073750000000 1.0
C      1  0.5501330000000  0.4474940000000  0.4929330000000 1.0
C      1  0.5501330000000  0.5523000000000  0.5073750000000 1.0
C      1  0.5072720000000  0.4498150000000  0.4477510000000 1.0
C      1  0.4928300000000  0.4498150000000  0.5525570000000 1.0
C      1  0.4928300000000  0.5499790000000  0.4477510000000 1.0
C      1  0.4476480000000  0.5071180000000  0.4500720000000 1.0
C      1  0.5524540000000  0.5071180000000  0.5502360000000 1.0
C      1  0.5524540000000  0.4926760000000  0.4500720000000 1.0
C      1  0.4625960000000  0.5211730000000  0.4381110000000 1.0
C      1  0.4380080000000  0.4624420000000  0.5214290000000 1.0
C      1  0.5213270000000  0.4378540000000  0.4626990000000 1.0
C      1  0.4625960000000  0.4786220000000  0.5621970000000 1.0
C      1  0.5375060000000  0.4786220000000  0.4381110000000 1.0
C      1  0.5375060000000  0.5211730000000  0.5621970000000 1.0
C      1  0.4380080000000  0.5373520000000  0.4788780000000 1.0
C      1  0.5620940000000  0.5373520000000  0.5214290000000 1.0
C      1  0.5620940000000  0.4624420000000  0.4788780000000 1.0
C      1  0.5213270000000  0.5619400000000  0.5376090000000 1.0
C      1  0.4787750000000  0.5619400000000  0.4626990000000 1.0
C      1  0.4787750000000  0.4378540000000  0.5376090000000 1.0
C      1  0.5375060000000  0.5211730000000  0.4381110000000 1.0
C      1  0.5620940000000  0.4624420000000  0.5214290000000 1.0
C      1  0.4787750000000  0.4378540000000  0.4626990000000 1.0
C      1  0.5375060000000  0.4786220000000  0.5621970000000 1.0
C      1  0.4625960000000  0.4786220000000  0.4381110000000 1.0
C      1  0.4625960000000  0.5211730000000  0.5621970000000 1.0
C      1  0.5620940000000  0.5373520000000  0.4788780000000 1.0
C      1  0.4380080000000  0.5373520000000  0.5214290000000 1.0
C      1  0.4380080000000  0.4624420000000  0.4788780000000 1.0
C      1  0.4787750000000  0.5619400000000  0.5376090000000 1.0
C      1  0.5213270000000  0.5619400000000  0.4626990000000 1.0
C      1  0.5213270000000  0.4378540000000  0.5376090000000 1.0
C      1  0.4759200000000  0.5701360000000  0.5270570000000 1.0
C      1  0.5269540000000  0.4757660000000  0.5703930000000 1.0
C      1  0.5702900000000  0.5268000000000  0.4760220000000 1.0
C      1  0.4759200000000  0.4296580000000  0.4732510000000 1.0
C      1  0.5241820000000  0.4296580000000  0.5270570000000 1.0
C      1  0.5241820000000  0.5701360000000  0.4732510000000 1.0
C      1  0.5269540000000  0.5240290000000  0.4299150000000 1.0
C      1  0.4731480000000  0.5240290000000  0.5703930000000 1.0
C      1  0.4731480000000  0.4757660000000  0.4299150000000 1.0
C      1  0.5702900000000  0.4729940000000  0.5242850000000 1.0
C      1  0.4298120000000  0.4729940000000  0.4760220000000 1.0
C      1  0.4298120000000  0.5268000000000  0.5242850000000 1.0
C      1  0.5241820000000  0.5701360000000  0.5270570000000 1.0
C      1  0.4731480000000  0.4757660000000  0.5703930000000 1.0
C      1  0.4298120000000  0.5268000000000  0.4760220000000 1.0
C      1  0.5241820000000  0.4296580000000  0.4732510000000 1.0
C      1  0.4759200000000  0.4296580000000  0.5270570000000 1.0
C      1  0.4759200000000  0.5701360000000  0.4732510000000 1.0
C      1  0.4731480000000  0.5240290000000  0.4299150000000 1.0
C      1  0.5269540000000  0.5240290000000  0.5703930000000 1.0
C      1  0.5269540000000  0.4757660000000  0.4299150000000 1.0
C      1  0.4298120000000  0.4729940000000  0.5242850000000 1.0
C      1  0.5702900000000  0.4729940000000  0.4760220000000 1.0
C      1  0.5702900000000  0.5268000000000  0.5242850000000 1.0
C      1  0.4813860000000  0.4918260000000  0.5451550000000 1.0
C      1  0.5450530000000  0.4812320000000  0.4920830000000 1.0
C      1  0.4919800000000  0.5448990000000  0.4814890000000 1.0
C      1  0.4813860000000  0.5079680000000  0.4551520000000 1.0
C      1  0.5187160000000  0.5079680000000  0.5451550000000 1.0
C      1  0.5187160000000  0.4918260000000  0.4551520000000 1.0
C      1  0.5450530000000  0.5185620000000  0.5082250000000 1.0
C      1  0.4550490000000  0.5185620000000  0.4920830000000 1.0
C      1  0.4550490000000  0.4812320000000  0.5082250000000 1.0
C      1  0.4919800000000  0.4548960000000  0.5188190000000 1.0
C      1  0.5081220000000  0.4548960000000  0.4814890000000 1.0
C      1  0.5081220000000  0.5448990000000  0.5188190000000 1.0
C      1  0.5187160000000  0.4918260000000  0.5451550000000 1.0
C      1  0.4550490000000  0.4812320000000  0.4920830000000 1.0
C      1  0.5081220000000  0.5448990000000  0.4814890000000 1.0
C      1  0.5187160000000  0.5079680000000  0.4551520000000 1.0
C      1  0.4813860000000  0.5079680000000  0.5451550000000 1.0
C      1  0.4813860000000  0.4918260000000  0.4551520000000 1.0
C      1  0.4550490000000  0.5185620000000  0.5082250000000 1.0
C      1  0.5450530000000  0.5185620000000  0.4920830000000 1.0
C      1  0.5450530000000  0.4812320000000  0.5082250000000 1.0
C      1  0.5081220000000  0.4548960000000  0.5188190000000 1.0
C      1  0.4919800000000  0.4548960000000  0.4814890000000 1.0
C      1  0.4919800000000  0.5448990000000  0.5188190000000 1.0
C      1  0.4920740000000  0.4905720000000  0.4156130000000 1.0
C      1  0.4155110000000  0.4919200000000  0.4908280000000 1.0
C      1  0.4907260000000  0.4153570000000  0.4921770000000 1.0
C      1  0.4920740000000  0.5092230000000  0.5846940000000 1.0
C      1  0.5080280000000  0.5092230000000  0.4156130000000 1.0
C      1  0.5080280000000  0.4905720000000  0.5846940000000 1.0
C      1  0.4155110000000  0.5078740000000  0.5094790000000 1.0
C      1  0.5845910000000  0.5078740000000  0.4908280000000 1.0
C      1  0.5845910000000  0.4919200000000  0.5094790000000 1.0
C      1  0.4907260000000  0.5844380000000  0.5081310000000 1.0
C      1  0.5093760000000  0.5844380000000  0.4921770000000 1.0
C      1  0.5093760000000  0.4153570000000  0.5081310000000 1.0
C      1  0.5080280000000  0.4905720000000  0.4156130000000 1.0
C      1  0.5845910000000  0.4919200000000  0.4908280000000 1.0
C      1  0.5093760000000  0.4153570000000  0.4921770000000 1.0
C      1  0.5080280000000  0.5092230000000  0.5846940000000 1.0
C      1  0.4920740000000  0.5092230000000  0.4156130000000 1.0
C      1  0.4920740000000  0.4905720000000  0.5846940000000 1.0
C      1  0.5845910000000  0.5078740000000  0.5094790000000 1.0
C      1  0.4155110000000  0.5078740000000  0.4908280000000 1.0
C      1  0.4155110000000  0.4919200000000  0.5094790000000 1.0
C      1  0.5093760000000  0.5844380000000  0.5081310000000 1.0
C      1  0.4907260000000  0.5844380000000  0.4921770000000 1.0
C      1  0.4907260000000  0.4153570000000  0.5081310000000 1.0
C      1  0.5688270000000  0.5180760000000  0.5357010000000 1.0
C      1  0.5355980000000  0.5686730000000  0.5183330000000 1.0
C      1  0.5182300000000  0.5354450000000  0.5689300000000 1.0
C      1  0.5688270000000  0.4817180000000  0.4646060000000 1.0
C      1  0.4312750000000  0.4817180000000  0.5357010000000 1.0
C      1  0.4312750000000  0.5180760000000  0.4646060000000 1.0
C      1  0.5355980000000  0.4311210000000  0.4819750000000 1.0
C      1  0.4645040000000  0.4311210000000  0.5183330000000 1.0
C      1  0.4645040000000  0.5686730000000  0.4819750000000 1.0
C      1  0.5182300000000  0.4643500000000  0.4313780000000 1.0
C      1  0.4818720000000  0.4643500000000  0.5689300000000 1.0
C      1  0.4818720000000  0.5354450000000  0.4313780000000 1.0
C      1  0.4312750000000  0.5180760000000  0.5357010000000 1.0
C      1  0.4645040000000  0.5686730000000  0.5183330000000 1.0
C      1  0.4818720000000  0.5354450000000  0.5689300000000 1.0
C      1  0.4312750000000  0.4817180000000  0.4646060000000 1.0
C      1  0.5688270000000  0.4817180000000  0.5357010000000 1.0
C      1  0.5688270000000  0.5180760000000  0.4646060000000 1.0
C      1  0.4645040000000  0.4311210000000  0.4819750000000 1.0
C      1  0.5355980000000  0.4311210000000  0.5183330000000 1.0
C      1  0.5355980000000  0.5686730000000  0.4819750000000 1.0
C      1  0.4818720000000  0.4643500000000  0.4313780000000 1.0
C      1  0.5182300000000  0.4643500000000  0.5689300000000 1.0
C      1  0.5182300000000  0.5354450000000  0.4313780000000 1.0
C      1  0.5066570000000  0.4711610000000  0.4271460000000 1.0
C      1  0.4270430000000  0.5065040000000  0.4714170000000 1.0
C      1  0.4713150000000  0.4268890000000  0.5067600000000 1.0
C      1  0.5066570000000  0.5286340000000  0.5731620000000 1.0
C      1  0.4934450000000  0.5286340000000  0.4271460000000 1.0
C      1  0.4934450000000  0.4711610000000  0.5731620000000 1.0
C      1  0.4270430000000  0.4932910000000  0.5288900000000 1.0
C      1  0.5730590000000  0.4932910000000  0.4714170000000 1.0
C      1  0.5730590000000  0.5065040000000  0.5288900000000 1.0
C      1  0.4713150000000  0.5729050000000  0.4935470000000 1.0
C      1  0.5287870000000  0.5729050000000  0.5067600000000 1.0
C      1  0.5287870000000  0.4268890000000  0.4935470000000 1.0
C      1  0.4934450000000  0.4711610000000  0.4271460000000 1.0
C      1  0.5730590000000  0.5065040000000  0.4714170000000 1.0
C      1  0.5287870000000  0.4268890000000  0.5067600000000 1.0
C      1  0.4934450000000  0.5286340000000  0.5731620000000 1.0
C      1  0.5066570000000  0.5286340000000  0.4271460000000 1.0
C      1  0.5066570000000  0.4711610000000  0.5731620000000 1.0
C      1  0.5730590000000  0.4932910000000  0.5288900000000 1.0
C      1  0.4270430000000  0.4932910000000  0.4714170000000 1.0
C      1  0.4270430000000  0.5065040000000  0.5288900000000 1.0
C      1  0.5287870000000  0.5729050000000  0.4935470000000 1.0
C      1  0.4713150000000  0.5729050000000  0.5067600000000 1.0
C      1  0.4713150000000  0.4268890000000  0.4935470000000 1.0
C      1  0.5528250000000  0.4591040000000  0.5330590000000 1.0
C      1  0.5329560000000  0.5526710000000  0.4593610000000 1.0
C      1  0.4592580000000  0.5328030000000  0.5529280000000 1.0
C      1  0.5528250000000  0.5406900000000  0.4672480000000 1.0
C      1  0.4472770000000  0.5406900000000  0.5330590000000 1.0
C      1  0.4472770000000  0.4591040000000  0.4672480000000 1.0
C      1  0.5329560000000  0.4471230000000  0.5409470000000 1.0
C      1  0.4671460000000  0.4471230000000  0.4593610000000 1.0
C      1  0.4671460000000  0.5526710000000  0.5409470000000 1.0
C      1  0.4592580000000  0.4669920000000  0.4473800000000 1.0
C      1  0.5408440000000  0.4669920000000  0.5529280000000 1.0
C      1  0.5408440000000  0.5328030000000  0.4473800000000 1.0
C      1  0.4472770000000  0.4591040000000  0.5330590000000 1.0
C      1  0.4671460000000  0.5526710000000  0.4593610000000 1.0
C      1  0.5408440000000  0.5328030000000  0.5529280000000 1.0
C      1  0.4472770000000  0.5406900000000  0.4672480000000 1.0
C      1  0.5528250000000  0.5406900000000  0.5330590000000 1.0
C      1  0.5528250000000  0.4591040000000  0.4672480000000 1.0
C      1  0.4671460000000  0.4471230000000  0.5409470000000 1.0
C      1  0.5329560000000  0.4471230000000  0.4593610000000 1.0
C      1  0.5329560000000  0.5526710000000  0.5409470000000 1.0
C      1  0.5408440000000  0.4669920000000  0.4473800000000 1.0
C      1  0.4592580000000  0.4669920000000  0.5529280000000 1.0
C      1  0.4592580000000  0.5328030000000  0.4473800000000 1.0
C      1  0.5079840000000  0.5597590000000  0.5420820000000 1.0
C      1  0.5419790000000  0.5078310000000  0.5600150000000 1.0
C      1  0.5599120000000  0.5418260000000  0.5080870000000 1.0
C      1  0.5079840000000  0.4400360000000  0.4582250000000 1.0
C      1  0.4921180000000  0.4400360000000  0.5420820000000 1.0
C      1  0.4921180000000  0.5597590000000  0.4582250000000 1.0
C      1  0.5419790000000  0.4919640000000  0.4402920000000 1.0
C      1  0.4581230000000  0.4919640000000  0.5600150000000 1.0
C      1  0.4581230000000  0.5078310000000  0.4402920000000 1.0
C      1  0.5599120000000  0.4579690000000  0.4922200000000 1.0
C      1  0.4401900000000  0.4579690000000  0.5080870000000 1.0
C      1  0.4401900000000  0.5418260000000  0.4922200000000 1.0
C      1  0.4921180000000  0.5597590000000  0.5420820000000 1.0
C      1  0.4581230000000  0.5078310000000  0.5600150000000 1.0
C      1  0.4401900000000  0.5418260000000  0.5080870000000 1.0
C      1  0.4921180000000  0.4400360000000  0.4582250000000 1.0
C      1  0.5079840000000  0.4400360000000  0.5420820000000 1.0
C      1  0.5079840000000  0.5597590000000  0.4582250000000 1.0
C      1  0.4581230000000  0.4919640000000  0.4402920000000 1.0
C      1  0.5419790000000  0.4919640000000  0.5600150000000 1.0
C      1  0.5419790000000  0.5078310000000  0.4402920000000 1.0
C      1  0.4401900000000  0.4579690000000  0.4922200000000 1.0
C      1  0.5599120000000  0.4579690000000  0.5080870000000 1.0
C      1  0.5599120000000  0.5418260000000  0.4922200000000 1.0
C      1  0.5144780000000  0.4847110000000  0.4281210000000 1.0
C      1  0.4280190000000  0.5143240000000  0.4849680000000 1.0
C      1  0.4848650000000  0.4278650000000  0.5145800000000 1.0
C      1  0.5144780000000  0.5150830000000  0.5721860000000 1.0
C      1  0.4856240000000  0.5150830000000  0.4281210000000 1.0
C      1  0.4856240000000  0.4847110000000  0.5721860000000 1.0
C      1  0.4280190000000  0.4854710000000  0.5153400000000 1.0
C      1  0.5720830000000  0.4854710000000  0.4849680000000 1.0
C      1  0.5720830000000  0.5143240000000  0.5153400000000 1.0
C      1  0.4848650000000  0.5719300000000  0.4857270000000 1.0
C      1  0.5152370000000  0.5719300000000  0.5145800000000 1.0
C      1  0.5152370000000  0.4278650000000  0.4857270000000 1.0
C      1  0.4856240000000  0.4847110000000  0.4281210000000 1.0
C      1  0.5720830000000  0.5143240000000  0.4849680000000 1.0
C      1  0.5152370000000  0.4278650000000  0.5145800000000 1.0
C      1  0.4856240000000  0.5150830000000  0.5721860000000 1.0
C      1  0.5144780000000  0.5150830000000  0.4281210000000 1.0
C      1  0.5144780000000  0.4847110000000  0.5721860000000 1.0
C      1  0.5720830000000  0.4854710000000  0.5153400000000 1.0
C      1  0.4280190000000  0.4854710000000  0.4849680000000 1.0
C      1  0.4280190000000  0.5143240000000  0.5153400000000 1.0
C      1  0.5152370000000  0.5719300000000  0.4857270000000 1.0
C      1  0.4848650000000  0.5719300000000  0.5145800000000 1.0
C      1  0.4848650000000  0.4278650000000  0.4857270000000 1.0
C      1  0.5000510000000  0.5933730000000  0.5139840000000 1.0
C      1  0.5935260000000  0.5137270000000  0.5001540000000 1.0
C      1  0.5000510000000  0.4064220000000  0.4863240000000 1.0
C      1  0.5000510000000  0.4064220000000  0.5139840000000 1.0
C      1  0.5000510000000  0.5933730000000  0.4863240000000 1.0
C      1  0.4862210000000  0.4998970000000  0.5936290000000 1.0
C      1  0.5935260000000  0.4860670000000  0.5001540000000 1.0
C      1  0.4065760000000  0.4860670000000  0.5001540000000 1.0
C      1  0.4065760000000  0.5137270000000  0.5001540000000 1.0
C      1  0.5138810000000  0.4998970000000  0.4066780000000 1.0
C      1  0.5138810000000  0.4998970000000  0.5936290000000 1.0
C      1  0.4862210000000  0.4998970000000  0.4066780000000 1.0
C      1  0.5249420000000  0.5247880000000  0.4752630000000 1.0
C      1  0.4751600000000  0.5247880000000  0.5250450000000 1.0
C      1  0.5249420000000  0.4750060000000  0.5250450000000 1.0
C      1  0.4751600000000  0.4750060000000  0.4752630000000 1.0
C      1  0.4751600000000  0.5247880000000  0.4752630000000 1.0
C      1  0.4751600000000  0.4750060000000  0.5250450000000 1.0
C      1  0.5249420000000  0.4750060000000  0.4752630000000 1.0
C      1  0.5249420000000  0.5247880000000  0.5250450000000 1.0
END
