TITL C-1892071-372-20 8.84045857649743e-07 1000000 -2893.61855974491 0 0 420 (Th) n - 1
REM
REM in /nfs/bkarasulu/CARBON/AIRSS/Generating-Clusters/GAP-ML-2020/Higher-Symm/Selected-Sizes/TryA-Only_Ih-Symm/Larger-Clusters
REM
REM
REM
REM
REM
REM ./C.cell (2cf5181f0f1d4d5b12b972d32ad12063)
REM
REM compiler GCC version 9.2.1 20190827 (Red Hat 9.2.1-1)
REM options -cpp -mtune=generic -march=x86-64 -g -O0 -fpre-include=/usr/include/finclude/math-vector-fortran.h
REM seed -1537363846 1340524278 576611969 -1135643869 2140535492 52496491 1231055730 -372464552 1125898216 -436186779 -1684377946 -105560751 -1508029940 -427741689 1477411672 -1518588958 990785978 -1737195574 -58552769 162969822 831324170 -1149385119 -1700013904 -2064613906 1176849425 793235839 1672687142 -1264833864 588855944 -1394467229 449196965 518854911 -1214414341
REM
CELL 1.54180  100.00000  100.00000  100.00000   90.00000   90.00000   90.00000
LATT -1
SFAC C  
C      1  0.4927930000000  0.5186670000000  0.4842890000000 1.0
C      1  0.5186670000000  0.4842890000000  0.4927930000000 1.0
C      1  0.4842890000000  0.4927930000000  0.5186670000000 1.0
C      1  0.5072070000000  0.5186670000000  0.5157110000000 1.0
C      1  0.5072070000000  0.4813330000000  0.4842890000000 1.0
C      1  0.4927930000000  0.4813330000000  0.5157110000000 1.0
C      1  0.4813330000000  0.4842890000000  0.5072070000000 1.0
C      1  0.4813330000000  0.5157110000000  0.4927930000000 1.0
C      1  0.5186670000000  0.5157110000000  0.5072070000000 1.0
C      1  0.5157110000000  0.4927930000000  0.4813330000000 1.0
C      1  0.5157110000000  0.5072070000000  0.5186670000000 1.0
C      1  0.4842890000000  0.5072070000000  0.4813330000000 1.0
C      1  0.4927930000000  0.4813330000000  0.4842890000000 1.0
C      1  0.5186670000000  0.5157110000000  0.4927930000000 1.0
C      1  0.4842890000000  0.5072070000000  0.5186670000000 1.0
C      1  0.5072070000000  0.4813330000000  0.5157110000000 1.0
C      1  0.5072070000000  0.5186670000000  0.4842890000000 1.0
C      1  0.4927930000000  0.5186670000000  0.5157110000000 1.0
C      1  0.4813330000000  0.5157110000000  0.5072070000000 1.0
C      1  0.4813330000000  0.4842890000000  0.4927930000000 1.0
C      1  0.5186670000000  0.4842890000000  0.5072070000000 1.0
C      1  0.5157110000000  0.5072070000000  0.4813330000000 1.0
C      1  0.5157110000000  0.4927930000000  0.5186670000000 1.0
C      1  0.4842890000000  0.4927930000000  0.4813330000000 1.0
C      1  0.4920520000000  0.5305730000000  0.5248610000000 1.0
C      1  0.5305730000000  0.5248610000000  0.4920520000000 1.0
C      1  0.5248610000000  0.4920520000000  0.5305730000000 1.0
C      1  0.5079480000000  0.5305730000000  0.4751390000000 1.0
C      1  0.5079480000000  0.4694270000000  0.5248610000000 1.0
C      1  0.4920520000000  0.4694270000000  0.4751390000000 1.0
C      1  0.4694270000000  0.5248610000000  0.5079480000000 1.0
C      1  0.4694270000000  0.4751390000000  0.4920520000000 1.0
C      1  0.5305730000000  0.4751390000000  0.5079480000000 1.0
C      1  0.4751390000000  0.4920520000000  0.4694270000000 1.0
C      1  0.4751390000000  0.5079480000000  0.5305730000000 1.0
C      1  0.5248610000000  0.5079480000000  0.4694270000000 1.0
C      1  0.4920520000000  0.4694270000000  0.5248610000000 1.0
C      1  0.5305730000000  0.4751390000000  0.4920520000000 1.0
C      1  0.5248610000000  0.5079480000000  0.5305730000000 1.0
C      1  0.5079480000000  0.4694270000000  0.4751390000000 1.0
C      1  0.5079480000000  0.5305730000000  0.5248610000000 1.0
C      1  0.4920520000000  0.5305730000000  0.4751390000000 1.0
C      1  0.4694270000000  0.4751390000000  0.5079480000000 1.0
C      1  0.4694270000000  0.5248610000000  0.4920520000000 1.0
C      1  0.5305730000000  0.5248610000000  0.5079480000000 1.0
C      1  0.4751390000000  0.5079480000000  0.4694270000000 1.0
C      1  0.4751390000000  0.4920520000000  0.5305730000000 1.0
C      1  0.5248610000000  0.4920520000000  0.4694270000000 1.0
C      1  0.5394910000000  0.4725090000000  0.5553160000000 1.0
C      1  0.4725090000000  0.5553160000000  0.5394910000000 1.0
C      1  0.5553160000000  0.5394910000000  0.4725090000000 1.0
C      1  0.4605090000000  0.4725090000000  0.4446840000000 1.0
C      1  0.4605090000000  0.5274910000000  0.5553160000000 1.0
C      1  0.5394910000000  0.5274910000000  0.4446840000000 1.0
C      1  0.5274910000000  0.5553160000000  0.4605090000000 1.0
C      1  0.5274910000000  0.4446840000000  0.5394910000000 1.0
C      1  0.4725090000000  0.4446840000000  0.4605090000000 1.0
C      1  0.4446840000000  0.5394910000000  0.5274910000000 1.0
C      1  0.4446840000000  0.4605090000000  0.4725090000000 1.0
C      1  0.5553160000000  0.4605090000000  0.5274910000000 1.0
C      1  0.5394910000000  0.5274910000000  0.5553160000000 1.0
C      1  0.4725090000000  0.4446840000000  0.5394910000000 1.0
C      1  0.5553160000000  0.4605090000000  0.4725090000000 1.0
C      1  0.4605090000000  0.5274910000000  0.4446840000000 1.0
C      1  0.4605090000000  0.4725090000000  0.5553160000000 1.0
C      1  0.5394910000000  0.4725090000000  0.4446840000000 1.0
C      1  0.5274910000000  0.4446840000000  0.4605090000000 1.0
C      1  0.5274910000000  0.5553160000000  0.5394910000000 1.0
C      1  0.4725090000000  0.5553160000000  0.4605090000000 1.0
C      1  0.4446840000000  0.4605090000000  0.5274910000000 1.0
C      1  0.4446840000000  0.5394910000000  0.4725090000000 1.0
C      1  0.5553160000000  0.5394910000000  0.5274910000000 1.0
C      1  0.4433450000000  0.4638230000000  0.5067270000000 1.0
C      1  0.4638230000000  0.5067270000000  0.4433450000000 1.0
C      1  0.5067270000000  0.4433450000000  0.4638230000000 1.0
C      1  0.5566550000000  0.4638230000000  0.4932730000000 1.0
C      1  0.5566550000000  0.5361770000000  0.5067270000000 1.0
C      1  0.4433450000000  0.5361770000000  0.4932730000000 1.0
C      1  0.5361770000000  0.5067270000000  0.5566550000000 1.0
C      1  0.5361770000000  0.4932730000000  0.4433450000000 1.0
C      1  0.4638230000000  0.4932730000000  0.5566550000000 1.0
C      1  0.4932730000000  0.4433450000000  0.5361770000000 1.0
C      1  0.4932730000000  0.5566550000000  0.4638230000000 1.0
C      1  0.5067270000000  0.5566550000000  0.5361770000000 1.0
C      1  0.4433450000000  0.5361770000000  0.5067270000000 1.0
C      1  0.4638230000000  0.4932730000000  0.4433450000000 1.0
C      1  0.5067270000000  0.5566550000000  0.4638230000000 1.0
C      1  0.5566550000000  0.5361770000000  0.4932730000000 1.0
C      1  0.5566550000000  0.4638230000000  0.5067270000000 1.0
C      1  0.4433450000000  0.4638230000000  0.4932730000000 1.0
C      1  0.5361770000000  0.4932730000000  0.5566550000000 1.0
C      1  0.5361770000000  0.5067270000000  0.4433450000000 1.0
C      1  0.4638230000000  0.5067270000000  0.5566550000000 1.0
C      1  0.4932730000000  0.5566550000000  0.5361770000000 1.0
C      1  0.4932730000000  0.4433450000000  0.4638230000000 1.0
C      1  0.5067270000000  0.4433450000000  0.5361770000000 1.0
C      1  0.5069910000000  0.4722510000000  0.4387510000000 1.0
C      1  0.4722510000000  0.4387510000000  0.5069910000000 1.0
C      1  0.4387510000000  0.5069910000000  0.4722510000000 1.0
C      1  0.4930090000000  0.4722510000000  0.5612490000000 1.0
C      1  0.4930090000000  0.5277490000000  0.4387510000000 1.0
C      1  0.5069910000000  0.5277490000000  0.5612490000000 1.0
C      1  0.5277490000000  0.4387510000000  0.4930090000000 1.0
C      1  0.5277490000000  0.5612490000000  0.5069910000000 1.0
C      1  0.4722510000000  0.5612490000000  0.4930090000000 1.0
C      1  0.5612490000000  0.5069910000000  0.5277490000000 1.0
C      1  0.5612490000000  0.4930090000000  0.4722510000000 1.0
C      1  0.4387510000000  0.4930090000000  0.5277490000000 1.0
C      1  0.5069910000000  0.5277490000000  0.4387510000000 1.0
C      1  0.4722510000000  0.5612490000000  0.5069910000000 1.0
C      1  0.4387510000000  0.4930090000000  0.4722510000000 1.0
C      1  0.4930090000000  0.5277490000000  0.5612490000000 1.0
C      1  0.4930090000000  0.4722510000000  0.4387510000000 1.0
C      1  0.5069910000000  0.4722510000000  0.5612490000000 1.0
C      1  0.5277490000000  0.5612490000000  0.4930090000000 1.0
C      1  0.5277490000000  0.4387510000000  0.5069910000000 1.0
C      1  0.4722510000000  0.4387510000000  0.4930090000000 1.0
C      1  0.5612490000000  0.4930090000000  0.5277490000000 1.0
C      1  0.5612490000000  0.5069910000000  0.4722510000000 1.0
C      1  0.4387510000000  0.5069910000000  0.5277490000000 1.0
C      1  0.5261200000000  0.4606160000000  0.4922790000000 1.0
C      1  0.4606160000000  0.4922790000000  0.5261200000000 1.0
C      1  0.4922790000000  0.5261200000000  0.4606160000000 1.0
C      1  0.4738800000000  0.4606160000000  0.5077210000000 1.0
C      1  0.4738800000000  0.5393840000000  0.4922790000000 1.0
C      1  0.5261200000000  0.5393840000000  0.5077210000000 1.0
C      1  0.5393840000000  0.4922790000000  0.4738800000000 1.0
C      1  0.5393840000000  0.5077210000000  0.5261200000000 1.0
C      1  0.4606160000000  0.5077210000000  0.4738800000000 1.0
C      1  0.5077210000000  0.5261200000000  0.5393840000000 1.0
C      1  0.5077210000000  0.4738800000000  0.4606160000000 1.0
C      1  0.4922790000000  0.4738800000000  0.5393840000000 1.0
C      1  0.5261200000000  0.5393840000000  0.4922790000000 1.0
C      1  0.4606160000000  0.5077210000000  0.5261200000000 1.0
C      1  0.4922790000000  0.4738800000000  0.4606160000000 1.0
C      1  0.4738800000000  0.5393840000000  0.5077210000000 1.0
C      1  0.4738800000000  0.4606160000000  0.4922790000000 1.0
C      1  0.5261200000000  0.4606160000000  0.5077210000000 1.0
C      1  0.5393840000000  0.5077210000000  0.4738800000000 1.0
C      1  0.5393840000000  0.4922790000000  0.5261200000000 1.0
C      1  0.4606160000000  0.4922790000000  0.4738800000000 1.0
C      1  0.5077210000000  0.4738800000000  0.5393840000000 1.0
C      1  0.5077210000000  0.5261200000000  0.4606160000000 1.0
C      1  0.4922790000000  0.5261200000000  0.5393840000000 1.0
C      1  0.5159460000000  0.4576910000000  0.5196750000000 1.0
C      1  0.4576910000000  0.5196750000000  0.5159460000000 1.0
C      1  0.5196750000000  0.5159460000000  0.4576910000000 1.0
C      1  0.4840540000000  0.4576910000000  0.4803250000000 1.0
C      1  0.4840540000000  0.5423090000000  0.5196750000000 1.0
C      1  0.5159460000000  0.5423090000000  0.4803250000000 1.0
C      1  0.5423090000000  0.5196750000000  0.4840540000000 1.0
C      1  0.5423090000000  0.4803250000000  0.5159460000000 1.0
C      1  0.4576910000000  0.4803250000000  0.4840540000000 1.0
C      1  0.4803250000000  0.5159460000000  0.5423090000000 1.0
C      1  0.4803250000000  0.4840540000000  0.4576910000000 1.0
C      1  0.5196750000000  0.4840540000000  0.5423090000000 1.0
C      1  0.5159460000000  0.5423090000000  0.5196750000000 1.0
C      1  0.4576910000000  0.4803250000000  0.5159460000000 1.0
C      1  0.5196750000000  0.4840540000000  0.4576910000000 1.0
C      1  0.4840540000000  0.5423090000000  0.4803250000000 1.0
C      1  0.4840540000000  0.4576910000000  0.5196750000000 1.0
C      1  0.5159460000000  0.4576910000000  0.4803250000000 1.0
C      1  0.5423090000000  0.4803250000000  0.4840540000000 1.0
C      1  0.5423090000000  0.5196750000000  0.5159460000000 1.0
C      1  0.4576910000000  0.5196750000000  0.4840540000000 1.0
C      1  0.4803250000000  0.4840540000000  0.5423090000000 1.0
C      1  0.4803250000000  0.5159460000000  0.4576910000000 1.0
C      1  0.5196750000000  0.5159460000000  0.5423090000000 1.0
C      1  0.4621120000000  0.5370340000000  0.5655180000000 1.0
C      1  0.5370340000000  0.5655180000000  0.4621120000000 1.0
C      1  0.5655180000000  0.4621120000000  0.5370340000000 1.0
C      1  0.5378880000000  0.5370340000000  0.4344820000000 1.0
C      1  0.5378880000000  0.4629660000000  0.5655180000000 1.0
C      1  0.4621120000000  0.4629660000000  0.4344820000000 1.0
C      1  0.4629660000000  0.5655180000000  0.5378880000000 1.0
C      1  0.4629660000000  0.4344820000000  0.4621120000000 1.0
C      1  0.5370340000000  0.4344820000000  0.5378880000000 1.0
C      1  0.4344820000000  0.4621120000000  0.4629660000000 1.0
C      1  0.4344820000000  0.5378880000000  0.5370340000000 1.0
C      1  0.5655180000000  0.5378880000000  0.4629660000000 1.0
C      1  0.4621120000000  0.4629660000000  0.5655180000000 1.0
C      1  0.5370340000000  0.4344820000000  0.4621120000000 1.0
C      1  0.5655180000000  0.5378880000000  0.5370340000000 1.0
C      1  0.5378880000000  0.4629660000000  0.4344820000000 1.0
C      1  0.5378880000000  0.5370340000000  0.5655180000000 1.0
C      1  0.4621120000000  0.5370340000000  0.4344820000000 1.0
C      1  0.4629660000000  0.4344820000000  0.5378880000000 1.0
C      1  0.4629660000000  0.5655180000000  0.4621120000000 1.0
C      1  0.5370340000000  0.5655180000000  0.5378880000000 1.0
C      1  0.4344820000000  0.5378880000000  0.4629660000000 1.0
C      1  0.4344820000000  0.4621120000000  0.5370340000000 1.0
C      1  0.5655180000000  0.4621120000000  0.4629660000000 1.0
C      1  0.5510660000000  0.5469950000000  0.4856480000000 1.0
C      1  0.5469950000000  0.4856480000000  0.5510660000000 1.0
C      1  0.4856480000000  0.5510660000000  0.5469950000000 1.0
C      1  0.4489340000000  0.5469950000000  0.5143520000000 1.0
C      1  0.4489340000000  0.4530050000000  0.4856480000000 1.0
C      1  0.5510660000000  0.4530050000000  0.5143520000000 1.0
C      1  0.4530050000000  0.4856480000000  0.4489340000000 1.0
C      1  0.4530050000000  0.5143520000000  0.5510660000000 1.0
C      1  0.5469950000000  0.5143520000000  0.4489340000000 1.0
C      1  0.5143520000000  0.5510660000000  0.4530050000000 1.0
C      1  0.5143520000000  0.4489340000000  0.5469950000000 1.0
C      1  0.4856480000000  0.4489340000000  0.4530050000000 1.0
C      1  0.5510660000000  0.4530050000000  0.4856480000000 1.0
C      1  0.5469950000000  0.5143520000000  0.5510660000000 1.0
C      1  0.4856480000000  0.4489340000000  0.5469950000000 1.0
C      1  0.4489340000000  0.4530050000000  0.5143520000000 1.0
C      1  0.4489340000000  0.5469950000000  0.4856480000000 1.0
C      1  0.5510660000000  0.5469950000000  0.5143520000000 1.0
C      1  0.4530050000000  0.5143520000000  0.4489340000000 1.0
C      1  0.4530050000000  0.4856480000000  0.5510660000000 1.0
C      1  0.5469950000000  0.4856480000000  0.4489340000000 1.0
C      1  0.5143520000000  0.4489340000000  0.4530050000000 1.0
C      1  0.5143520000000  0.5510660000000  0.5469950000000 1.0
C      1  0.4856480000000  0.5510660000000  0.4530050000000 1.0
C      1  0.5144900000000  0.4648310000000  0.4501990000000 1.0
C      1  0.4648310000000  0.4501990000000  0.5144900000000 1.0
C      1  0.4501990000000  0.5144900000000  0.4648310000000 1.0
C      1  0.4855100000000  0.4648310000000  0.5498010000000 1.0
C      1  0.4855100000000  0.5351690000000  0.4501990000000 1.0
C      1  0.5144900000000  0.5351690000000  0.5498010000000 1.0
C      1  0.5351690000000  0.4501990000000  0.4855100000000 1.0
C      1  0.5351690000000  0.5498010000000  0.5144900000000 1.0
C      1  0.4648310000000  0.5498010000000  0.4855100000000 1.0
C      1  0.5498010000000  0.5144900000000  0.5351690000000 1.0
C      1  0.5498010000000  0.4855100000000  0.4648310000000 1.0
C      1  0.4501990000000  0.4855100000000  0.5351690000000 1.0
C      1  0.5144900000000  0.5351690000000  0.4501990000000 1.0
C      1  0.4648310000000  0.5498010000000  0.5144900000000 1.0
C      1  0.4501990000000  0.4855100000000  0.4648310000000 1.0
C      1  0.4855100000000  0.5351690000000  0.5498010000000 1.0
C      1  0.4855100000000  0.4648310000000  0.4501990000000 1.0
C      1  0.5144900000000  0.4648310000000  0.5498010000000 1.0
C      1  0.5351690000000  0.5498010000000  0.4855100000000 1.0
C      1  0.5351690000000  0.4501990000000  0.5144900000000 1.0
C      1  0.4648310000000  0.4501990000000  0.4855100000000 1.0
C      1  0.5498010000000  0.4855100000000  0.5351690000000 1.0
C      1  0.5498010000000  0.5144900000000  0.4648310000000 1.0
C      1  0.4501990000000  0.5144900000000  0.5351690000000 1.0
C      1  0.5660830000000  0.4852320000000  0.5161800000000 1.0
C      1  0.4852320000000  0.5161800000000  0.5660830000000 1.0
C      1  0.5161800000000  0.5660830000000  0.4852320000000 1.0
C      1  0.4339170000000  0.4852320000000  0.4838200000000 1.0
C      1  0.4339170000000  0.5147680000000  0.5161800000000 1.0
C      1  0.5660830000000  0.5147680000000  0.4838200000000 1.0
C      1  0.5147680000000  0.5161800000000  0.4339170000000 1.0
C      1  0.5147680000000  0.4838200000000  0.5660830000000 1.0
C      1  0.4852320000000  0.4838200000000  0.4339170000000 1.0
C      1  0.4838200000000  0.5660830000000  0.5147680000000 1.0
C      1  0.4838200000000  0.4339170000000  0.4852320000000 1.0
C      1  0.5161800000000  0.4339170000000  0.5147680000000 1.0
C      1  0.5660830000000  0.5147680000000  0.5161800000000 1.0
C      1  0.4852320000000  0.4838200000000  0.5660830000000 1.0
C      1  0.5161800000000  0.4339170000000  0.4852320000000 1.0
C      1  0.4339170000000  0.5147680000000  0.4838200000000 1.0
C      1  0.4339170000000  0.4852320000000  0.5161800000000 1.0
C      1  0.5660830000000  0.4852320000000  0.4838200000000 1.0
C      1  0.5147680000000  0.4838200000000  0.4339170000000 1.0
C      1  0.5147680000000  0.5161800000000  0.5660830000000 1.0
C      1  0.4852320000000  0.5161800000000  0.4339170000000 1.0
C      1  0.4838200000000  0.4339170000000  0.5147680000000 1.0
C      1  0.4838200000000  0.5660830000000  0.4852320000000 1.0
C      1  0.5161800000000  0.5660830000000  0.5147680000000 1.0
C      1  0.4926720000000  0.5559920000000  0.4400120000000 1.0
C      1  0.5559920000000  0.4400120000000  0.4926720000000 1.0
C      1  0.4400120000000  0.4926720000000  0.5559920000000 1.0
C      1  0.5073280000000  0.5559920000000  0.5599880000000 1.0
C      1  0.5073280000000  0.4440080000000  0.4400120000000 1.0
C      1  0.4926720000000  0.4440080000000  0.5599880000000 1.0
C      1  0.4440080000000  0.4400120000000  0.5073280000000 1.0
C      1  0.4440080000000  0.5599880000000  0.4926720000000 1.0
C      1  0.5559920000000  0.5599880000000  0.5073280000000 1.0
C      1  0.5599880000000  0.4926720000000  0.4440080000000 1.0
C      1  0.5599880000000  0.5073280000000  0.5559920000000 1.0
C      1  0.4400120000000  0.5073280000000  0.4440080000000 1.0
C      1  0.4926720000000  0.4440080000000  0.4400120000000 1.0
C      1  0.5559920000000  0.5599880000000  0.4926720000000 1.0
C      1  0.4400120000000  0.5073280000000  0.5559920000000 1.0
C      1  0.5073280000000  0.4440080000000  0.5599880000000 1.0
C      1  0.5073280000000  0.5559920000000  0.4400120000000 1.0
C      1  0.4926720000000  0.5559920000000  0.5599880000000 1.0
C      1  0.4440080000000  0.5599880000000  0.5073280000000 1.0
C      1  0.4440080000000  0.4400120000000  0.4926720000000 1.0
C      1  0.5559920000000  0.4400120000000  0.5073280000000 1.0
C      1  0.5599880000000  0.5073280000000  0.4440080000000 1.0
C      1  0.5599880000000  0.4926720000000  0.5559920000000 1.0
C      1  0.4400120000000  0.4926720000000  0.4440080000000 1.0
C      1  0.5186480000000  0.4886370000000  0.4214970000000 1.0
C      1  0.4886370000000  0.4214970000000  0.5186480000000 1.0
C      1  0.4214970000000  0.5186480000000  0.4886370000000 1.0
C      1  0.4813520000000  0.4886370000000  0.5785030000000 1.0
C      1  0.4813520000000  0.5113630000000  0.4214970000000 1.0
C      1  0.5186480000000  0.5113630000000  0.5785030000000 1.0
C      1  0.5113630000000  0.4214970000000  0.4813520000000 1.0
C      1  0.5113630000000  0.5785030000000  0.5186480000000 1.0
C      1  0.4886370000000  0.5785030000000  0.4813520000000 1.0
C      1  0.5785030000000  0.5186480000000  0.5113630000000 1.0
C      1  0.5785030000000  0.4813520000000  0.4886370000000 1.0
C      1  0.4214970000000  0.4813520000000  0.5113630000000 1.0
C      1  0.5186480000000  0.5113630000000  0.4214970000000 1.0
C      1  0.4886370000000  0.5785030000000  0.5186480000000 1.0
C      1  0.4214970000000  0.4813520000000  0.4886370000000 1.0
C      1  0.4813520000000  0.5113630000000  0.5785030000000 1.0
C      1  0.4813520000000  0.4886370000000  0.4214970000000 1.0
C      1  0.5186480000000  0.4886370000000  0.5785030000000 1.0
C      1  0.5113630000000  0.5785030000000  0.4813520000000 1.0
C      1  0.5113630000000  0.4214970000000  0.5186480000000 1.0
C      1  0.4886370000000  0.4214970000000  0.4813520000000 1.0
C      1  0.5785030000000  0.4813520000000  0.5113630000000 1.0
C      1  0.5785030000000  0.5186480000000  0.4886370000000 1.0
C      1  0.4214970000000  0.5186480000000  0.5113630000000 1.0
C      1  0.4317360000000  0.4716530000000  0.4544240000000 1.0
C      1  0.4716530000000  0.4544240000000  0.4317360000000 1.0
C      1  0.4544240000000  0.4317360000000  0.4716530000000 1.0
C      1  0.5682640000000  0.4716530000000  0.5455760000000 1.0
C      1  0.5682640000000  0.5283470000000  0.4544240000000 1.0
C      1  0.4317360000000  0.5283470000000  0.5455760000000 1.0
C      1  0.5283470000000  0.4544240000000  0.5682640000000 1.0
C      1  0.5283470000000  0.5455760000000  0.4317360000000 1.0
C      1  0.4716530000000  0.5455760000000  0.5682640000000 1.0
C      1  0.5455760000000  0.4317360000000  0.5283470000000 1.0
C      1  0.5455760000000  0.5682640000000  0.4716530000000 1.0
C      1  0.4544240000000  0.5682640000000  0.5283470000000 1.0
C      1  0.4317360000000  0.5283470000000  0.4544240000000 1.0
C      1  0.4716530000000  0.5455760000000  0.4317360000000 1.0
C      1  0.4544240000000  0.5682640000000  0.4716530000000 1.0
C      1  0.5682640000000  0.5283470000000  0.5455760000000 1.0
C      1  0.5682640000000  0.4716530000000  0.4544240000000 1.0
C      1  0.4317360000000  0.4716530000000  0.5455760000000 1.0
C      1  0.5283470000000  0.5455760000000  0.5682640000000 1.0
C      1  0.5283470000000  0.4544240000000  0.4317360000000 1.0
C      1  0.4716530000000  0.4544240000000  0.5682640000000 1.0
C      1  0.5455760000000  0.5682640000000  0.5283470000000 1.0
C      1  0.5455760000000  0.4317360000000  0.4716530000000 1.0
C      1  0.4544240000000  0.4317360000000  0.5283470000000 1.0
C      1  0.4520120000000  0.4726020000000  0.5278540000000 1.0
C      1  0.4726020000000  0.5278540000000  0.4520120000000 1.0
C      1  0.5278540000000  0.4520120000000  0.4726020000000 1.0
C      1  0.5479880000000  0.4726020000000  0.4721460000000 1.0
C      1  0.5479880000000  0.5273980000000  0.5278540000000 1.0
C      1  0.4520120000000  0.5273980000000  0.4721460000000 1.0
C      1  0.5273980000000  0.5278540000000  0.5479880000000 1.0
C      1  0.5273980000000  0.4721460000000  0.4520120000000 1.0
C      1  0.4726020000000  0.4721460000000  0.5479880000000 1.0
C      1  0.4721460000000  0.4520120000000  0.5273980000000 1.0
C      1  0.4721460000000  0.5479880000000  0.4726020000000 1.0
C      1  0.5278540000000  0.5479880000000  0.5273980000000 1.0
C      1  0.4520120000000  0.5273980000000  0.5278540000000 1.0
C      1  0.4726020000000  0.4721460000000  0.4520120000000 1.0
C      1  0.5278540000000  0.5479880000000  0.4726020000000 1.0
C      1  0.5479880000000  0.5273980000000  0.4721460000000 1.0
C      1  0.5479880000000  0.4726020000000  0.5278540000000 1.0
C      1  0.4520120000000  0.4726020000000  0.4721460000000 1.0
C      1  0.5273980000000  0.4721460000000  0.5479880000000 1.0
C      1  0.5273980000000  0.5278540000000  0.4520120000000 1.0
C      1  0.4726020000000  0.5278540000000  0.5479880000000 1.0
C      1  0.4721460000000  0.5479880000000  0.5273980000000 1.0
C      1  0.4721460000000  0.4520120000000  0.4726020000000 1.0
C      1  0.5278540000000  0.4520120000000  0.5273980000000 1.0
C      1  0.5083150000000  0.4448670000000  0.5210000000000 1.0
C      1  0.4448670000000  0.5210000000000  0.5083150000000 1.0
C      1  0.5210000000000  0.5083150000000  0.4448670000000 1.0
C      1  0.4916850000000  0.4448670000000  0.4790000000000 1.0
C      1  0.4916850000000  0.5551330000000  0.5210000000000 1.0
C      1  0.5083150000000  0.5551330000000  0.4790000000000 1.0
C      1  0.5551330000000  0.5210000000000  0.4916850000000 1.0
C      1  0.5551330000000  0.4790000000000  0.5083150000000 1.0
C      1  0.4448670000000  0.4790000000000  0.4916850000000 1.0
C      1  0.4790000000000  0.5083150000000  0.5551330000000 1.0
C      1  0.4790000000000  0.4916850000000  0.4448670000000 1.0
C      1  0.5210000000000  0.4916850000000  0.5551330000000 1.0
C      1  0.5083150000000  0.5551330000000  0.5210000000000 1.0
C      1  0.4448670000000  0.4790000000000  0.5083150000000 1.0
C      1  0.5210000000000  0.4916850000000  0.4448670000000 1.0
C      1  0.4916850000000  0.5551330000000  0.4790000000000 1.0
C      1  0.4916850000000  0.4448670000000  0.5210000000000 1.0
C      1  0.5083150000000  0.4448670000000  0.4790000000000 1.0
C      1  0.5551330000000  0.4790000000000  0.4916850000000 1.0
C      1  0.5551330000000  0.5210000000000  0.5083150000000 1.0
C      1  0.4448670000000  0.5210000000000  0.4916850000000 1.0
C      1  0.4790000000000  0.4916850000000  0.5551330000000 1.0
C      1  0.4790000000000  0.5083150000000  0.4448670000000 1.0
C      1  0.5210000000000  0.5083150000000  0.5551330000000 1.0
C      1  0.4311290000000  0.4821300000000  0.5532590000000 1.0
C      1  0.4821300000000  0.5532590000000  0.4311290000000 1.0
C      1  0.5532590000000  0.4311290000000  0.4821300000000 1.0
C      1  0.5688710000000  0.4821300000000  0.4467410000000 1.0
C      1  0.5688710000000  0.5178700000000  0.5532590000000 1.0
C      1  0.4311290000000  0.5178700000000  0.4467410000000 1.0
C      1  0.5178700000000  0.5532590000000  0.5688710000000 1.0
C      1  0.5178700000000  0.4467410000000  0.4311290000000 1.0
C      1  0.4821300000000  0.4467410000000  0.5688710000000 1.0
C      1  0.4467410000000  0.4311290000000  0.5178700000000 1.0
C      1  0.4467410000000  0.5688710000000  0.4821300000000 1.0
C      1  0.5532590000000  0.5688710000000  0.5178700000000 1.0
C      1  0.4311290000000  0.5178700000000  0.5532590000000 1.0
C      1  0.4821300000000  0.4467410000000  0.4311290000000 1.0
C      1  0.5532590000000  0.5688710000000  0.4821300000000 1.0
C      1  0.5688710000000  0.5178700000000  0.4467410000000 1.0
C      1  0.5688710000000  0.4821300000000  0.5532590000000 1.0
C      1  0.4311290000000  0.4821300000000  0.4467410000000 1.0
C      1  0.5178700000000  0.4467410000000  0.5688710000000 1.0
C      1  0.5178700000000  0.5532590000000  0.4311290000000 1.0
C      1  0.4821300000000  0.5532590000000  0.5688710000000 1.0
C      1  0.4467410000000  0.5688710000000  0.5178700000000 1.0
C      1  0.4467410000000  0.4311290000000  0.4821300000000 1.0
C      1  0.5532590000000  0.4311290000000  0.5178700000000 1.0
C      1  0.4792980000000  0.5000000000000  0.5847160000000 1.0
C      1  0.5000000000000  0.5847160000000  0.4792980000000 1.0
C      1  0.5847160000000  0.4792980000000  0.5000000000000 1.0
C      1  0.5207020000000  0.5000000000000  0.4152840000000 1.0
C      1  0.4792980000000  0.5000000000000  0.4152840000000 1.0
C      1  0.5000000000000  0.4152840000000  0.4792980000000 1.0
C      1  0.4152840000000  0.4792980000000  0.5000000000000 1.0
C      1  0.4152840000000  0.5207020000000  0.5000000000000 1.0
C      1  0.5847160000000  0.5207020000000  0.5000000000000 1.0
C      1  0.5207020000000  0.5000000000000  0.5847160000000 1.0
C      1  0.5000000000000  0.4152840000000  0.5207020000000 1.0
C      1  0.5000000000000  0.5847160000000  0.5207020000000 1.0
END
