TITL C-1892077-1691-38 -1.8887141366554e-06 1000000 -3033.95412370993 0 0 440 (Th) n - 1
REM
REM in /nfs/bkarasulu/CARBON/AIRSS/Generating-Clusters/GAP-ML-2020/Higher-Symm/Selected-Sizes/TryA-Only_Ih-Symm/Larger-Clusters
REM
REM
REM
REM
REM
REM ./C.cell (2cf5181f0f1d4d5b12b972d32ad12063)
REM
REM compiler GCC version 9.2.1 20190827 (Red Hat 9.2.1-1)
REM options -cpp -mtune=generic -march=x86-64 -g -O0 -fpre-include=/usr/include/finclude/math-vector-fortran.h
REM seed -1345694645 -798215368 1041669497 -1192847666 -632021975 -3112795 -393688160 -1141004196 -1125396964 460453190 -1397104911 1525949800 -362347029 1785103857 2078035654 1209747127 -1503181392 1319676040 1705981217 876909134 1248376892 -2064430141 -1394012626 -936872786 1595482275 1999695720 850272680 -711696359 635566297 -85323484 2072404357 1076418401 -656255556
REM
CELL 1.54180  100.00000  100.00000  100.00000   90.00000   90.00000   90.00000
LATT -1
SFAC C  
C      1  0.4801970000000  0.4211050000000  0.5199100000000 1.0
C      1  0.5194440000000  0.4804080000000  0.4213600000000 1.0
C      1  0.4208940000000  0.5196550000000  0.4806630000000 1.0
C      1  0.5192930000000  0.4211050000000  0.4805120000000 1.0
C      1  0.4801970000000  0.5788070000000  0.4805120000000 1.0
C      1  0.5192930000000  0.5788070000000  0.5199100000000 1.0
C      1  0.4800470000000  0.4804080000000  0.5790620000000 1.0
C      1  0.5194440000000  0.5195040000000  0.5790620000000 1.0
C      1  0.4800470000000  0.5195040000000  0.4213600000000 1.0
C      1  0.5785970000000  0.5196550000000  0.5197590000000 1.0
C      1  0.4208940000000  0.4802570000000  0.5197590000000 1.0
C      1  0.5785970000000  0.4802570000000  0.4806630000000 1.0
C      1  0.4801970000000  0.5788070000000  0.5199100000000 1.0
C      1  0.5194440000000  0.5195040000000  0.4213600000000 1.0
C      1  0.4208940000000  0.4802570000000  0.4806630000000 1.0
C      1  0.5192930000000  0.5788070000000  0.4805120000000 1.0
C      1  0.4801970000000  0.4211050000000  0.4805120000000 1.0
C      1  0.5192930000000  0.4211050000000  0.5199100000000 1.0
C      1  0.4800470000000  0.5195040000000  0.5790620000000 1.0
C      1  0.5194440000000  0.4804080000000  0.5790620000000 1.0
C      1  0.4800470000000  0.4804080000000  0.4213600000000 1.0
C      1  0.5785970000000  0.4802570000000  0.5197590000000 1.0
C      1  0.4208940000000  0.5196550000000  0.5197590000000 1.0
C      1  0.5785970000000  0.5196550000000  0.4806630000000 1.0
C      1  0.4874310000000  0.5354020000000  0.5326430000000 1.0
C      1  0.5321770000000  0.4876420000000  0.5356570000000 1.0
C      1  0.5351910000000  0.5323880000000  0.4878970000000 1.0
C      1  0.5120590000000  0.5354020000000  0.4677790000000 1.0
C      1  0.4874310000000  0.4645100000000  0.4677790000000 1.0
C      1  0.5120590000000  0.4645100000000  0.5326430000000 1.0
C      1  0.4673130000000  0.4876420000000  0.4647650000000 1.0
C      1  0.5321770000000  0.5122700000000  0.4647650000000 1.0
C      1  0.4673130000000  0.5122700000000  0.5356570000000 1.0
C      1  0.4642990000000  0.5323880000000  0.5125250000000 1.0
C      1  0.5351910000000  0.4675240000000  0.5125250000000 1.0
C      1  0.4642990000000  0.4675240000000  0.4878970000000 1.0
C      1  0.4874310000000  0.4645100000000  0.5326430000000 1.0
C      1  0.5321770000000  0.5122700000000  0.5356570000000 1.0
C      1  0.5351910000000  0.4675240000000  0.4878970000000 1.0
C      1  0.5120590000000  0.4645100000000  0.4677790000000 1.0
C      1  0.4874310000000  0.5354020000000  0.4677790000000 1.0
C      1  0.5120590000000  0.5354020000000  0.5326430000000 1.0
C      1  0.4673130000000  0.5122700000000  0.4647650000000 1.0
C      1  0.5321770000000  0.4876420000000  0.4647650000000 1.0
C      1  0.4673130000000  0.4876420000000  0.5356570000000 1.0
C      1  0.4642990000000  0.4675240000000  0.5125250000000 1.0
C      1  0.5351910000000  0.5323880000000  0.5125250000000 1.0
C      1  0.4642990000000  0.5323880000000  0.4878970000000 1.0
C      1  0.5241850000000  0.5389360000000  0.4932190000000 1.0
C      1  0.4927530000000  0.5243960000000  0.5391910000000 1.0
C      1  0.5387250000000  0.4929640000000  0.5246500000000 1.0
C      1  0.4753060000000  0.5389360000000  0.5072030000000 1.0
C      1  0.5241850000000  0.4609760000000  0.5072030000000 1.0
C      1  0.4753060000000  0.4609760000000  0.4932190000000 1.0
C      1  0.5067370000000  0.5243960000000  0.4612310000000 1.0
C      1  0.4927530000000  0.4755170000000  0.4612310000000 1.0
C      1  0.5067370000000  0.4755170000000  0.5391910000000 1.0
C      1  0.4607660000000  0.4929640000000  0.4757710000000 1.0
C      1  0.5387250000000  0.5069480000000  0.4757710000000 1.0
C      1  0.4607660000000  0.5069480000000  0.5246500000000 1.0
C      1  0.5241850000000  0.4609760000000  0.4932190000000 1.0
C      1  0.4927530000000  0.4755170000000  0.5391910000000 1.0
C      1  0.5387250000000  0.5069480000000  0.5246500000000 1.0
C      1  0.4753060000000  0.4609760000000  0.5072030000000 1.0
C      1  0.5241850000000  0.5389360000000  0.5072030000000 1.0
C      1  0.4753060000000  0.5389360000000  0.4932190000000 1.0
C      1  0.5067370000000  0.4755170000000  0.4612310000000 1.0
C      1  0.4927530000000  0.5243960000000  0.4612310000000 1.0
C      1  0.5067370000000  0.5243960000000  0.5391910000000 1.0
C      1  0.4607660000000  0.5069480000000  0.4757710000000 1.0
C      1  0.5387250000000  0.4929640000000  0.4757710000000 1.0
C      1  0.4607660000000  0.4929640000000  0.5246500000000 1.0
C      1  0.5813910000000  0.5196540000000  0.5064970000000 1.0
C      1  0.5060320000000  0.5816020000000  0.5199080000000 1.0
C      1  0.5194430000000  0.5062430000000  0.5818570000000 1.0
C      1  0.4181000000000  0.5196540000000  0.4939240000000 1.0
C      1  0.5813910000000  0.4802590000000  0.4939240000000 1.0
C      1  0.4181000000000  0.4802590000000  0.5064970000000 1.0
C      1  0.4934590000000  0.5816020000000  0.4805130000000 1.0
C      1  0.5060320000000  0.4183100000000  0.4805130000000 1.0
C      1  0.4934590000000  0.4183100000000  0.5199080000000 1.0
C      1  0.4800480000000  0.5062430000000  0.4185650000000 1.0
C      1  0.5194430000000  0.4936700000000  0.4185650000000 1.0
C      1  0.4800480000000  0.4936700000000  0.5818570000000 1.0
C      1  0.5813910000000  0.4802590000000  0.5064970000000 1.0
C      1  0.5060320000000  0.4183100000000  0.5199080000000 1.0
C      1  0.5194430000000  0.4936700000000  0.5818570000000 1.0
C      1  0.4181000000000  0.4802590000000  0.4939240000000 1.0
C      1  0.5813910000000  0.5196540000000  0.4939240000000 1.0
C      1  0.4181000000000  0.5196540000000  0.5064970000000 1.0
C      1  0.4934590000000  0.4183100000000  0.4805130000000 1.0
C      1  0.5060320000000  0.5816020000000  0.4805130000000 1.0
C      1  0.4934590000000  0.5816020000000  0.5199080000000 1.0
C      1  0.4800480000000  0.4936700000000  0.4185650000000 1.0
C      1  0.5194430000000  0.5062430000000  0.4185650000000 1.0
C      1  0.4800480000000  0.5062430000000  0.5818570000000 1.0
C      1  0.5250220000000  0.5482550000000  0.5655570000000 1.0
C      1  0.5650920000000  0.5252330000000  0.5485090000000 1.0
C      1  0.5480440000000  0.5653030000000  0.5254880000000 1.0
C      1  0.4744690000000  0.5482550000000  0.4348640000000 1.0
C      1  0.5250220000000  0.4516580000000  0.4348640000000 1.0
C      1  0.4744690000000  0.4516580000000  0.5655570000000 1.0
C      1  0.4343990000000  0.5252330000000  0.4519120000000 1.0
C      1  0.5650920000000  0.4746800000000  0.4519120000000 1.0
C      1  0.4343990000000  0.4746800000000  0.5485090000000 1.0
C      1  0.4514470000000  0.5653030000000  0.4749340000000 1.0
C      1  0.5480440000000  0.4346100000000  0.4749340000000 1.0
C      1  0.4514470000000  0.4346100000000  0.5254880000000 1.0
C      1  0.5250220000000  0.4516580000000  0.5655570000000 1.0
C      1  0.5650920000000  0.4746800000000  0.5485090000000 1.0
C      1  0.5480440000000  0.4346100000000  0.5254880000000 1.0
C      1  0.4744690000000  0.4516580000000  0.4348640000000 1.0
C      1  0.5250220000000  0.5482550000000  0.4348640000000 1.0
C      1  0.4744690000000  0.5482550000000  0.5655570000000 1.0
C      1  0.4343990000000  0.4746800000000  0.4519120000000 1.0
C      1  0.5650920000000  0.5252330000000  0.4519120000000 1.0
C      1  0.4343990000000  0.5252330000000  0.5485090000000 1.0
C      1  0.4514470000000  0.4346100000000  0.4749340000000 1.0
C      1  0.5480440000000  0.5653030000000  0.4749340000000 1.0
C      1  0.4514470000000  0.5653030000000  0.5254880000000 1.0
C      1  0.4693240000000  0.4510410000000  0.4717480000000 1.0
C      1  0.4712820000000  0.4695350000000  0.4512950000000 1.0
C      1  0.4508300000000  0.4714930000000  0.4697900000000 1.0
C      1  0.5301670000000  0.4510410000000  0.5286740000000 1.0
C      1  0.4693240000000  0.5488720000000  0.5286740000000 1.0
C      1  0.5301670000000  0.5488720000000  0.4717480000000 1.0
C      1  0.5282080000000  0.4695350000000  0.5491260000000 1.0
C      1  0.4712820000000  0.5303770000000  0.5491260000000 1.0
C      1  0.5282080000000  0.5303770000000  0.4512950000000 1.0
C      1  0.5486610000000  0.4714930000000  0.5306320000000 1.0
C      1  0.4508300000000  0.5284190000000  0.5306320000000 1.0
C      1  0.5486610000000  0.5284190000000  0.4697900000000 1.0
C      1  0.4693240000000  0.5488720000000  0.4717480000000 1.0
C      1  0.4712820000000  0.5303770000000  0.4512950000000 1.0
C      1  0.4508300000000  0.5284190000000  0.4697900000000 1.0
C      1  0.5301670000000  0.5488720000000  0.5286740000000 1.0
C      1  0.4693240000000  0.4510410000000  0.5286740000000 1.0
C      1  0.5301670000000  0.4510410000000  0.4717480000000 1.0
C      1  0.5282080000000  0.5303770000000  0.5491260000000 1.0
C      1  0.4712820000000  0.4695350000000  0.5491260000000 1.0
C      1  0.5282080000000  0.4695350000000  0.4512950000000 1.0
C      1  0.5486610000000  0.5284190000000  0.5306320000000 1.0
C      1  0.4508300000000  0.4714930000000  0.5306320000000 1.0
C      1  0.5486610000000  0.4714930000000  0.4697900000000 1.0
C      1  0.4746920000000  0.4613320000000  0.4630330000000 1.0
C      1  0.4625670000000  0.4749030000000  0.4615870000000 1.0
C      1  0.4611220000000  0.4627780000000  0.4751580000000 1.0
C      1  0.5247980000000  0.4613320000000  0.5373890000000 1.0
C      1  0.4746920000000  0.5385800000000  0.5373890000000 1.0
C      1  0.5247980000000  0.5385800000000  0.4630330000000 1.0
C      1  0.5369230000000  0.4749030000000  0.5388350000000 1.0
C      1  0.4625670000000  0.5250090000000  0.5388350000000 1.0
C      1  0.5369230000000  0.5250090000000  0.4615870000000 1.0
C      1  0.5383690000000  0.4627780000000  0.5252640000000 1.0
C      1  0.4611220000000  0.5371340000000  0.5252640000000 1.0
C      1  0.5383690000000  0.5371340000000  0.4751580000000 1.0
C      1  0.4746920000000  0.5385800000000  0.4630330000000 1.0
C      1  0.4625670000000  0.5250090000000  0.4615870000000 1.0
C      1  0.4611220000000  0.5371340000000  0.4751580000000 1.0
C      1  0.5247980000000  0.5385800000000  0.5373890000000 1.0
C      1  0.4746920000000  0.4613320000000  0.5373890000000 1.0
C      1  0.5247980000000  0.4613320000000  0.4630330000000 1.0
C      1  0.5369230000000  0.5250090000000  0.5388350000000 1.0
C      1  0.4625670000000  0.4749030000000  0.5388350000000 1.0
C      1  0.5369230000000  0.4749030000000  0.4615870000000 1.0
C      1  0.5383690000000  0.5371340000000  0.5252640000000 1.0
C      1  0.4611220000000  0.4627780000000  0.5252640000000 1.0
C      1  0.5383690000000  0.4627780000000  0.4751580000000 1.0
C      1  0.5586710000000  0.4617690000000  0.4930580000000 1.0
C      1  0.4925930000000  0.5588820000000  0.4620230000000 1.0
C      1  0.4615580000000  0.4928030000000  0.5591360000000 1.0
C      1  0.4408200000000  0.4617690000000  0.5073640000000 1.0
C      1  0.5586710000000  0.5381440000000  0.5073640000000 1.0
C      1  0.4408200000000  0.5381440000000  0.4930580000000 1.0
C      1  0.5068980000000  0.5588820000000  0.5383980000000 1.0
C      1  0.4925930000000  0.4410310000000  0.5383980000000 1.0
C      1  0.5068980000000  0.4410310000000  0.4620230000000 1.0
C      1  0.5379330000000  0.4928030000000  0.4412850000000 1.0
C      1  0.4615580000000  0.5071090000000  0.4412850000000 1.0
C      1  0.5379330000000  0.5071090000000  0.5591360000000 1.0
C      1  0.5586710000000  0.5381440000000  0.4930580000000 1.0
C      1  0.4925930000000  0.4410310000000  0.4620230000000 1.0
C      1  0.4615580000000  0.5071090000000  0.5591360000000 1.0
C      1  0.4408200000000  0.5381440000000  0.5073640000000 1.0
C      1  0.5586710000000  0.4617690000000  0.5073640000000 1.0
C      1  0.4408200000000  0.4617690000000  0.4930580000000 1.0
C      1  0.5068980000000  0.4410310000000  0.5383980000000 1.0
C      1  0.4925930000000  0.5588820000000  0.5383980000000 1.0
C      1  0.5068980000000  0.5588820000000  0.4620230000000 1.0
C      1  0.5379330000000  0.5071090000000  0.4412850000000 1.0
C      1  0.4615580000000  0.4928030000000  0.4412850000000 1.0
C      1  0.5379330000000  0.4928030000000  0.5591360000000 1.0
C      1  0.4921160000000  0.4519490000000  0.4742170000000 1.0
C      1  0.4737520000000  0.4923260000000  0.4522040000000 1.0
C      1  0.4517380000000  0.4739630000000  0.4925810000000 1.0
C      1  0.5073750000000  0.4519490000000  0.5262040000000 1.0
C      1  0.4921160000000  0.5479630000000  0.5262040000000 1.0
C      1  0.5073750000000  0.5479630000000  0.4742170000000 1.0
C      1  0.5257390000000  0.4923260000000  0.5482180000000 1.0
C      1  0.4737520000000  0.5075860000000  0.5482180000000 1.0
C      1  0.5257390000000  0.5075860000000  0.4522040000000 1.0
C      1  0.5477520000000  0.4739630000000  0.5078410000000 1.0
C      1  0.4517380000000  0.5259500000000  0.5078410000000 1.0
C      1  0.5477520000000  0.5259500000000  0.4925810000000 1.0
C      1  0.4921160000000  0.5479630000000  0.4742170000000 1.0
C      1  0.4737520000000  0.5075860000000  0.4522040000000 1.0
C      1  0.4517380000000  0.5259500000000  0.4925810000000 1.0
C      1  0.5073750000000  0.5479630000000  0.5262040000000 1.0
C      1  0.4921160000000  0.4519490000000  0.5262040000000 1.0
C      1  0.5073750000000  0.4519490000000  0.4742170000000 1.0
C      1  0.5257390000000  0.5075860000000  0.5482180000000 1.0
C      1  0.4737520000000  0.4923260000000  0.5482180000000 1.0
C      1  0.5257390000000  0.4923260000000  0.4522040000000 1.0
C      1  0.5477520000000  0.5259500000000  0.5078410000000 1.0
C      1  0.4517380000000  0.4739630000000  0.5078410000000 1.0
C      1  0.5477520000000  0.4739630000000  0.4925810000000 1.0
C      1  0.5284310000000  0.5299970000000  0.5755680000000 1.0
C      1  0.5751030000000  0.5286420000000  0.5302520000000 1.0
C      1  0.5297860000000  0.5753130000000  0.5288970000000 1.0
C      1  0.4710590000000  0.5299970000000  0.4248540000000 1.0
C      1  0.5284310000000  0.4699150000000  0.4248540000000 1.0
C      1  0.4710590000000  0.4699150000000  0.5755680000000 1.0
C      1  0.4243880000000  0.5286420000000  0.4701700000000 1.0
C      1  0.5751030000000  0.4712700000000  0.4701700000000 1.0
C      1  0.4243880000000  0.4712700000000  0.5302520000000 1.0
C      1  0.4697050000000  0.5753130000000  0.4715250000000 1.0
C      1  0.5297860000000  0.4245990000000  0.4715250000000 1.0
C      1  0.4697050000000  0.4245990000000  0.5288970000000 1.0
C      1  0.5284310000000  0.4699150000000  0.5755680000000 1.0
C      1  0.5751030000000  0.4712700000000  0.5302520000000 1.0
C      1  0.5297860000000  0.4245990000000  0.5288970000000 1.0
C      1  0.4710590000000  0.4699150000000  0.4248540000000 1.0
C      1  0.5284310000000  0.5299970000000  0.4248540000000 1.0
C      1  0.4710590000000  0.5299970000000  0.5755680000000 1.0
C      1  0.4243880000000  0.4712700000000  0.4701700000000 1.0
C      1  0.5751030000000  0.5286420000000  0.4701700000000 1.0
C      1  0.4243880000000  0.5286420000000  0.5302520000000 1.0
C      1  0.4697050000000  0.4245990000000  0.4715250000000 1.0
C      1  0.5297860000000  0.5753130000000  0.4715250000000 1.0
C      1  0.4697050000000  0.5753130000000  0.5288970000000 1.0
C      1  0.4738370000000  0.5585390000000  0.4444670000000 1.0
C      1  0.4440010000000  0.4740480000000  0.5587930000000 1.0
C      1  0.5583280000000  0.4442120000000  0.4743030000000 1.0
C      1  0.5256530000000  0.5585390000000  0.5559550000000 1.0
C      1  0.4738370000000  0.4413740000000  0.5559550000000 1.0
C      1  0.5256530000000  0.4413740000000  0.4444670000000 1.0
C      1  0.5554900000000  0.4740480000000  0.4416280000000 1.0
C      1  0.4440010000000  0.5258640000000  0.4416280000000 1.0
C      1  0.5554900000000  0.5258640000000  0.5587930000000 1.0
C      1  0.4411630000000  0.4442120000000  0.5261190000000 1.0
C      1  0.5583280000000  0.5557000000000  0.5261190000000 1.0
C      1  0.4411630000000  0.5557000000000  0.4743030000000 1.0
C      1  0.4738370000000  0.4413740000000  0.4444670000000 1.0
C      1  0.4440010000000  0.5258640000000  0.5587930000000 1.0
C      1  0.5583280000000  0.5557000000000  0.4743030000000 1.0
C      1  0.5256530000000  0.4413740000000  0.5559550000000 1.0
C      1  0.4738370000000  0.5585390000000  0.5559550000000 1.0
C      1  0.5256530000000  0.5585390000000  0.4444670000000 1.0
C      1  0.5554900000000  0.5258640000000  0.4416280000000 1.0
C      1  0.4440010000000  0.4740480000000  0.4416280000000 1.0
C      1  0.5554900000000  0.4740480000000  0.5587930000000 1.0
C      1  0.4411630000000  0.5557000000000  0.5261190000000 1.0
C      1  0.5583280000000  0.4442120000000  0.5261190000000 1.0
C      1  0.4411630000000  0.4442120000000  0.4743030000000 1.0
C      1  0.4609530000000  0.4409080000000  0.4516270000000 1.0
C      1  0.4511610000000  0.4611630000000  0.4411630000000 1.0
C      1  0.4406970000000  0.4513720000000  0.4614180000000 1.0
C      1  0.5385380000000  0.4409080000000  0.5487950000000 1.0
C      1  0.4609530000000  0.5590040000000  0.5487950000000 1.0
C      1  0.5385380000000  0.5590040000000  0.4516270000000 1.0
C      1  0.5483300000000  0.4611630000000  0.5592590000000 1.0
C      1  0.4511610000000  0.5387490000000  0.5592590000000 1.0
C      1  0.5483300000000  0.5387490000000  0.4411630000000 1.0
C      1  0.5587930000000  0.4513720000000  0.5390040000000 1.0
C      1  0.4406970000000  0.5485400000000  0.5390040000000 1.0
C      1  0.5587930000000  0.5485400000000  0.4614180000000 1.0
C      1  0.4609530000000  0.5590040000000  0.4516270000000 1.0
C      1  0.4511610000000  0.5387490000000  0.4411630000000 1.0
C      1  0.4406970000000  0.5485400000000  0.4614180000000 1.0
C      1  0.5385380000000  0.5590040000000  0.5487950000000 1.0
C      1  0.4609530000000  0.4409080000000  0.5487950000000 1.0
C      1  0.5385380000000  0.4409080000000  0.4516270000000 1.0
C      1  0.5483300000000  0.5387490000000  0.5592590000000 1.0
C      1  0.4511610000000  0.4611630000000  0.5592590000000 1.0
C      1  0.5483300000000  0.4611630000000  0.4411630000000 1.0
C      1  0.5587930000000  0.5485400000000  0.5390040000000 1.0
C      1  0.4406970000000  0.4513720000000  0.5390040000000 1.0
C      1  0.5587930000000  0.4513720000000  0.4614180000000 1.0
C      1  0.5475350000000  0.5153080000000  0.4380340000000 1.0
C      1  0.4375690000000  0.5477450000000  0.5155630000000 1.0
C      1  0.5150970000000  0.4377790000000  0.5480000000000 1.0
C      1  0.4519560000000  0.5153080000000  0.5623880000000 1.0
C      1  0.5475350000000  0.4846040000000  0.5623880000000 1.0
C      1  0.4519560000000  0.4846040000000  0.4380340000000 1.0
C      1  0.5619220000000  0.5477450000000  0.4848590000000 1.0
C      1  0.4375690000000  0.4521670000000  0.4848590000000 1.0
C      1  0.5619220000000  0.4521670000000  0.5155630000000 1.0
C      1  0.4843940000000  0.4377790000000  0.4524220000000 1.0
C      1  0.5150970000000  0.5621330000000  0.4524220000000 1.0
C      1  0.4843940000000  0.5621330000000  0.5480000000000 1.0
C      1  0.5475350000000  0.4846040000000  0.4380340000000 1.0
C      1  0.4375690000000  0.4521670000000  0.5155630000000 1.0
C      1  0.5150970000000  0.5621330000000  0.5480000000000 1.0
C      1  0.4519560000000  0.4846040000000  0.5623880000000 1.0
C      1  0.5475350000000  0.5153080000000  0.5623880000000 1.0
C      1  0.4519560000000  0.5153080000000  0.4380340000000 1.0
C      1  0.5619220000000  0.4521670000000  0.4848590000000 1.0
C      1  0.4375690000000  0.5477450000000  0.4848590000000 1.0
C      1  0.5619220000000  0.5477450000000  0.5155630000000 1.0
C      1  0.4843940000000  0.5621330000000  0.4524220000000 1.0
C      1  0.5150970000000  0.4377790000000  0.4524220000000 1.0
C      1  0.4843940000000  0.4377790000000  0.5480000000000 1.0
C      1  0.4708990000000  0.5735640000000  0.5082900000000 1.0
C      1  0.5078250000000  0.4711100000000  0.5738190000000 1.0
C      1  0.5733530000000  0.5080360000000  0.4713650000000 1.0
C      1  0.5285910000000  0.5735640000000  0.4921310000000 1.0
C      1  0.4708990000000  0.4263480000000  0.4921310000000 1.0
C      1  0.5285910000000  0.4263480000000  0.5082900000000 1.0
C      1  0.4916660000000  0.4711100000000  0.4266030000000 1.0
C      1  0.5078250000000  0.5288020000000  0.4266030000000 1.0
C      1  0.4916660000000  0.5288020000000  0.5738190000000 1.0
C      1  0.4261370000000  0.5080360000000  0.5290570000000 1.0
C      1  0.5733530000000  0.4918770000000  0.5290570000000 1.0
C      1  0.4261370000000  0.4918770000000  0.4713650000000 1.0
C      1  0.4708990000000  0.4263480000000  0.5082900000000 1.0
C      1  0.5078250000000  0.5288020000000  0.5738190000000 1.0
C      1  0.5733530000000  0.4918770000000  0.4713650000000 1.0
C      1  0.5285910000000  0.4263480000000  0.4921310000000 1.0
C      1  0.4708990000000  0.5735640000000  0.4921310000000 1.0
C      1  0.5285910000000  0.5735640000000  0.5082900000000 1.0
C      1  0.4916660000000  0.5288020000000  0.4266030000000 1.0
C      1  0.5078250000000  0.4711100000000  0.4266030000000 1.0
C      1  0.4916660000000  0.4711100000000  0.5738190000000 1.0
C      1  0.4261370000000  0.4918770000000  0.5290570000000 1.0
C      1  0.5733530000000  0.5080360000000  0.5290570000000 1.0
C      1  0.4261370000000  0.5080360000000  0.4713650000000 1.0
C      1  0.4787750000000  0.5605780000000  0.4932390000000 1.0
C      1  0.4927730000000  0.4789850000000  0.5608320000000 1.0
C      1  0.5603670000000  0.4929840000000  0.4792400000000 1.0
C      1  0.5207160000000  0.5605780000000  0.5071830000000 1.0
C      1  0.4787750000000  0.4393350000000  0.5071830000000 1.0
C      1  0.5207160000000  0.4393350000000  0.4932390000000 1.0
C      1  0.5067170000000  0.4789850000000  0.4395890000000 1.0
C      1  0.4927730000000  0.5209270000000  0.4395890000000 1.0
C      1  0.5067170000000  0.5209270000000  0.5608320000000 1.0
C      1  0.4391240000000  0.4929840000000  0.5211820000000 1.0
C      1  0.5603670000000  0.5069280000000  0.5211820000000 1.0
C      1  0.4391240000000  0.5069280000000  0.4792400000000 1.0
C      1  0.4787750000000  0.4393350000000  0.4932390000000 1.0
C      1  0.4927730000000  0.5209270000000  0.5608320000000 1.0
C      1  0.5603670000000  0.5069280000000  0.4792400000000 1.0
C      1  0.5207160000000  0.4393350000000  0.5071830000000 1.0
C      1  0.4787750000000  0.5605780000000  0.5071830000000 1.0
C      1  0.5207160000000  0.5605780000000  0.4932390000000 1.0
C      1  0.5067170000000  0.5209270000000  0.4395890000000 1.0
C      1  0.4927730000000  0.4789850000000  0.4395890000000 1.0
C      1  0.5067170000000  0.4789850000000  0.5608320000000 1.0
C      1  0.4391240000000  0.5069280000000  0.5211820000000 1.0
C      1  0.5603670000000  0.4929840000000  0.5211820000000 1.0
C      1  0.4391240000000  0.4929840000000  0.4792400000000 1.0
C      1  0.5496580000000  0.4830860000000  0.4802720000000 1.0
C      1  0.4798070000000  0.5498690000000  0.4833410000000 1.0
C      1  0.4828750000000  0.4800180000000  0.5501230000000 1.0
C      1  0.4498330000000  0.4830860000000  0.5201490000000 1.0
C      1  0.5496580000000  0.5168260000000  0.5201490000000 1.0
C      1  0.4498330000000  0.5168260000000  0.4802720000000 1.0
C      1  0.5196840000000  0.5498690000000  0.5170810000000 1.0
C      1  0.4798070000000  0.4500440000000  0.5170810000000 1.0
C      1  0.5196840000000  0.4500440000000  0.4833410000000 1.0
C      1  0.5166150000000  0.4800180000000  0.4502980000000 1.0
C      1  0.4828750000000  0.5198950000000  0.4502980000000 1.0
C      1  0.5166150000000  0.5198950000000  0.5501230000000 1.0
C      1  0.5496580000000  0.5168260000000  0.4802720000000 1.0
C      1  0.4798070000000  0.4500440000000  0.4833410000000 1.0
C      1  0.4828750000000  0.5198950000000  0.5501230000000 1.0
C      1  0.4498330000000  0.5168260000000  0.5201490000000 1.0
C      1  0.5496580000000  0.4830860000000  0.5201490000000 1.0
C      1  0.4498330000000  0.4830860000000  0.4802720000000 1.0
C      1  0.5196840000000  0.4500440000000  0.5170810000000 1.0
C      1  0.4798070000000  0.5498690000000  0.5170810000000 1.0
C      1  0.5196840000000  0.5498690000000  0.4833410000000 1.0
C      1  0.5166150000000  0.5198950000000  0.4502980000000 1.0
C      1  0.4828750000000  0.4800180000000  0.4502980000000 1.0
C      1  0.5166150000000  0.4800180000000  0.5501230000000 1.0
C      1  0.4633990000000  0.4377090000000  0.5345300000000 1.0
C      1  0.5340650000000  0.4636100000000  0.4379640000000 1.0
C      1  0.4374980000000  0.5342760000000  0.4638650000000 1.0
C      1  0.5360910000000  0.4377090000000  0.4658910000000 1.0
C      1  0.4633990000000  0.5622030000000  0.4658910000000 1.0
C      1  0.5360910000000  0.5622030000000  0.5345300000000 1.0
C      1  0.4654260000000  0.4636100000000  0.5624580000000 1.0
C      1  0.5340650000000  0.5363020000000  0.5624580000000 1.0
C      1  0.4654260000000  0.5363020000000  0.4379640000000 1.0
C      1  0.5619920000000  0.5342760000000  0.5365570000000 1.0
C      1  0.4374980000000  0.4656370000000  0.5365570000000 1.0
C      1  0.5619920000000  0.4656370000000  0.4638650000000 1.0
C      1  0.4633990000000  0.5622030000000  0.5345300000000 1.0
C      1  0.5340650000000  0.5363020000000  0.4379640000000 1.0
C      1  0.4374980000000  0.4656370000000  0.4638650000000 1.0
C      1  0.5360910000000  0.5622030000000  0.4658910000000 1.0
C      1  0.4633990000000  0.4377090000000  0.4658910000000 1.0
C      1  0.5360910000000  0.4377090000000  0.5345300000000 1.0
C      1  0.4654260000000  0.5363020000000  0.5624580000000 1.0
C      1  0.5340650000000  0.4636100000000  0.5624580000000 1.0
C      1  0.4654260000000  0.4636100000000  0.4379640000000 1.0
C      1  0.5619920000000  0.4656370000000  0.5365570000000 1.0
C      1  0.4374980000000  0.5342760000000  0.5365570000000 1.0
C      1  0.5619920000000  0.5342760000000  0.4638650000000 1.0
C      1  0.4252520000000  0.5177920000000  0.5407470000000 1.0
C      1  0.5402810000000  0.4254630000000  0.5180470000000 1.0
C      1  0.5175810000000  0.5404920000000  0.4257170000000 1.0
C      1  0.5742390000000  0.5177920000000  0.4596750000000 1.0
C      1  0.4252520000000  0.4821200000000  0.4596750000000 1.0
C      1  0.5742390000000  0.4821200000000  0.5407470000000 1.0
C      1  0.4592100000000  0.4254630000000  0.4823750000000 1.0
C      1  0.5402810000000  0.5744490000000  0.4823750000000 1.0
C      1  0.4592100000000  0.5744490000000  0.5180470000000 1.0
C      1  0.4819090000000  0.5404920000000  0.5747040000000 1.0
C      1  0.5175810000000  0.4594200000000  0.5747040000000 1.0
C      1  0.4819090000000  0.4594200000000  0.4257170000000 1.0
C      1  0.4252520000000  0.4821200000000  0.5407470000000 1.0
C      1  0.5402810000000  0.5744490000000  0.5180470000000 1.0
C      1  0.5175810000000  0.4594200000000  0.4257170000000 1.0
C      1  0.5742390000000  0.4821200000000  0.4596750000000 1.0
C      1  0.4252520000000  0.5177920000000  0.4596750000000 1.0
C      1  0.5742390000000  0.5177920000000  0.5407470000000 1.0
C      1  0.4592100000000  0.5744490000000  0.4823750000000 1.0
C      1  0.5402810000000  0.4254630000000  0.4823750000000 1.0
C      1  0.4592100000000  0.4254630000000  0.5180470000000 1.0
C      1  0.4819090000000  0.4594200000000  0.5747040000000 1.0
C      1  0.5175810000000  0.5404920000000  0.5747040000000 1.0
C      1  0.4819090000000  0.5404920000000  0.4257170000000 1.0
C      1  0.4494780000000  0.4496880000000  0.5504790000000 1.0
C      1  0.4494780000000  0.5502240000000  0.4499430000000 1.0
C      1  0.5500130000000  0.4496880000000  0.4499430000000 1.0
C      1  0.5500130000000  0.5502240000000  0.4499430000000 1.0
C      1  0.4494780000000  0.5502240000000  0.5504790000000 1.0
C      1  0.5500130000000  0.4496880000000  0.5504790000000 1.0
C      1  0.5500130000000  0.5502240000000  0.5504790000000 1.0
C      1  0.4494780000000  0.4496880000000  0.4499430000000 1.0
END
