TITL C-181859-6603-1 -61.3625339684317 1000000 -3645.51746419199 0 0 520 (C1) n - 1
REM
REM in /rds/project/t2_vol4/rds-t2-cs072/BORA/CARBON/from-Arr/AIRSS/Generating-Clusters/GAP-ML-2020/Higher-Symm/Selected-Sizes/Larger-Clusters/Only-C240
REM
REM
REM
REM
REM
REM ./C.cell (db1db5b03a21c153a00b653f6831bbfd)
REM AIRSS Version 0.9.1 bugfix July 2018 build 013d7b7c2542+ Fri, 06 Jul 2018 19:26:36 +0100
REM compiler GCC version 9.3.0
REM options -cpp -mtune=generic -march=x86-64 -g -O0
REM seed -1483501020 1590844516 -1832698019 849795898 1498471215 1993252648 922689743 1168448413 445908541 763973894 -302916154 -1068255031 -747108967 -417150586 -652718376 964427228 -665358921 1227796006 -1818558622 -1771980158 -1405264826 -449551362 1403297532 -483665109 -1969576724 -681000763 2084228298 -472957098 888942997 -2108263378 1328990154 2006318710 -1175898163
REM
CELL 1.54180  100.00000  100.00000  100.00000   90.00000   90.00000   90.00000
LATT -1
SFAC C  
C      1  0.5832900000000  0.4915420000000  0.5133360000000 1.0
C      1  0.4652360000000  0.5751570000000  0.5162400000000 1.0
C      1  0.4533290000000  0.4306360000000  0.5143050000000 1.0
C      1  0.5838390000000  0.5057580000000  0.5143460000000 1.0
C      1  0.4660090000000  0.4240960000000  0.5139880000000 1.0
C      1  0.4532580000000  0.5674420000000  0.5152000000000 1.0
C      1  0.5463580000000  0.5338870000000  0.5421440000000 1.0
C      1  0.4395460000000  0.5280070000000  0.5441120000000 1.0
C      1  0.5067960000000  0.4355510000000  0.5422410000000 1.0
C      1  0.5556420000000  0.4614450000000  0.5424910000000 1.0
C      1  0.4476310000000  0.4772690000000  0.5419610000000 1.0
C      1  0.5062460000000  0.5654830000000  0.5457300000000 1.0
C      1  0.4699580000000  0.5199630000000  0.4208390000000 1.0
C      1  0.4988300000000  0.4629050000000  0.4242800000000 1.0
C      1  0.5325720000000  0.5156270000000  0.4221240000000 1.0
C      1  0.4705540000000  0.4796030000000  0.4221070000000 1.0
C      1  0.4975580000000  0.5363710000000  0.4207500000000 1.0
C      1  0.5329160000000  0.4829950000000  0.4245660000000 1.0
C      1  0.5611340000000  0.4820920000000  0.5226950000000 1.0
C      1  0.4849940000000  0.5602600000000  0.5257300000000 1.0
C      1  0.4566350000000  0.4548540000000  0.5236520000000 1.0
C      1  0.5607440000000  0.5144530000000  0.5245670000000 1.0
C      1  0.4847650000000  0.4394250000000  0.5245060000000 1.0
C      1  0.4561080000000  0.5430580000000  0.5251490000000 1.0
C      1  0.5458650000000  0.4715420000000  0.5392030000000 1.0
C      1  0.5007640000000  0.5521410000000  0.5469280000000 1.0
C      1  0.4585520000000  0.4731740000000  0.5522790000000 1.0
C      1  0.5439670000000  0.5228090000000  0.5525900000000 1.0
C      1  0.4995080000000  0.4477980000000  0.5462370000000 1.0
C      1  0.4540460000000  0.5256980000000  0.5460810000000 1.0
C      1  0.5085780000000  0.4709890000000  0.4755710000000 1.0
C      1  0.5242300000000  0.5304340000000  0.4697010000000 1.0
C      1  0.4635490000000  0.5082070000000  0.4665120000000 1.0
C      1  0.5101080000000  0.5359550000000  0.4693950000000 1.0
C      1  0.5204490000000  0.4779660000000  0.4757550000000 1.0
C      1  0.4621510000000  0.4940600000000  0.4670300000000 1.0
C      1  0.4383620000000  0.5352020000000  0.5044200000000 1.0
C      1  0.5018200000000  0.4284770000000  0.5030840000000 1.0
C      1  0.5623200000000  0.5439850000000  0.5060620000000 1.0
C      1  0.4308090000000  0.4681530000000  0.5069120000000 1.0
C      1  0.5078910000000  0.5761590000000  0.5056450000000 1.0
C      1  0.5614100000000  0.4627250000000  0.5020940000000 1.0
C      1  0.4786700000000  0.4861820000000  0.5252210000000 1.0
C      1  0.5224660000000  0.4874490000000  0.5258900000000 1.0
C      1  0.5009310000000  0.5267570000000  0.5260280000000 1.0
C      1  0.4782770000000  0.5128390000000  0.5257200000000 1.0
C      1  0.5231820000000  0.5123490000000  0.5254840000000 1.0
C      1  0.5004480000000  0.4733970000000  0.5262160000000 1.0
C      1  0.4739410000000  0.4369110000000  0.5594760000000 1.0
C      1  0.5676490000000  0.5064780000000  0.5603390000000 1.0
C      1  0.4604130000000  0.5520330000000  0.5597840000000 1.0
C      1  0.4742390000000  0.5597010000000  0.5603000000000 1.0
C      1  0.5662360000000  0.4902880000000  0.5587030000000 1.0
C      1  0.4593590000000  0.4439590000000  0.5602050000000 1.0
C      1  0.4337080000000  0.4690630000000  0.4564980000000 1.0
C      1  0.5606790000000  0.4560010000000  0.4600940000000 1.0
C      1  0.5069780000000  0.5732950000000  0.4575900000000 1.0
C      1  0.4333280000000  0.5315100000000  0.4570180000000 1.0
C      1  0.5595210000000  0.5423490000000  0.4564640000000 1.0
C      1  0.5080740000000  0.4253050000000  0.4603850000000 1.0
C      1  0.4879430000000  0.5361340000000  0.4441370000000 1.0
C      1  0.4757390000000  0.4724970000000  0.4456850000000 1.0
C      1  0.5360820000000  0.4926390000000  0.4476510000000 1.0
C      1  0.4888840000000  0.4647110000000  0.4472960000000 1.0
C      1  0.4749100000000  0.5282720000000  0.4438830000000 1.0
C      1  0.5358380000000  0.5079830000000  0.4460950000000 1.0
C      1  0.5625700000000  0.5115350000000  0.4977760000000 1.0
C      1  0.4512560000000  0.5422290000000  0.4980720000000 1.0
C      1  0.4893860000000  0.4367400000000  0.4971890000000 1.0
C      1  0.5604400000000  0.4776020000000  0.4960530000000 1.0
C      1  0.4550920000000  0.4545190000000  0.4966710000000 1.0
C      1  0.4801940000000  0.5604690000000  0.4987810000000 1.0
C      1  0.4411750000000  0.5172260000000  0.5635760000000 1.0
C      1  0.5137390000000  0.4404570000000  0.5628310000000 1.0
C      1  0.5481830000000  0.5420750000000  0.5641210000000 1.0
C      1  0.4396900000000  0.4788910000000  0.5642000000000 1.0
C      1  0.5143980000000  0.5594990000000  0.5645830000000 1.0
C      1  0.5448670000000  0.4575920000000  0.5627520000000 1.0
C      1  0.5213480000000  0.4920250000000  0.4255050000000 1.0
C      1  0.4959630000000  0.5219160000000  0.4225460000000 1.0
C      1  0.4842280000000  0.4846620000000  0.4240770000000 1.0
C      1  0.5213020000000  0.5065310000000  0.4244660000000 1.0
C      1  0.4968430000000  0.4774790000000  0.4250900000000 1.0
C      1  0.4835510000000  0.5145480000000  0.4224060000000 1.0
C      1  0.4780350000000  0.5132040000000  0.4471740000000 1.0
C      1  0.4998330000000  0.4754660000000  0.4517230000000 1.0
C      1  0.5215480000000  0.5137360000000  0.4493720000000 1.0
C      1  0.4779530000000  0.4877920000000  0.4484580000000 1.0
C      1  0.4995530000000  0.5260160000000  0.4479360000000 1.0
C      1  0.5213810000000  0.4882250000000  0.4520240000000 1.0
C      1  0.5383090000000  0.4718000000000  0.4603140000000 1.0
C      1  0.5050400000000  0.5485230000000  0.4498060000000 1.0
C      1  0.4553330000000  0.4812090000000  0.4492010000000 1.0
C      1  0.5382100000000  0.5299320000000  0.4494100000000 1.0
C      1  0.5057570000000  0.4525970000000  0.4601960000000 1.0
C      1  0.4552100000000  0.5193410000000  0.4492940000000 1.0
C      1  0.5544690000000  0.5148540000000  0.4873360000000 1.0
C      1  0.4544610000000  0.5342510000000  0.4854440000000 1.0
C      1  0.4923780000000  0.4458010000000  0.4848070000000 1.0
C      1  0.5508950000000  0.4796400000000  0.4841170000000 1.0
C      1  0.4534190000000  0.4645590000000  0.4856700000000 1.0
C      1  0.4840050000000  0.5538400000000  0.4873710000000 1.0
C      1  0.4538900000000  0.5455750000000  0.4492110000000 1.0
C      1  0.4856190000000  0.4378190000000  0.4530720000000 1.0
C      1  0.5614520000000  0.5176640000000  0.4495540000000 1.0
C      1  0.4544760000000  0.4548940000000  0.4490160000000 1.0
C      1  0.4837460000000  0.5628770000000  0.4502670000000 1.0
C      1  0.5611130000000  0.4819860000000  0.4531430000000 1.0
C      1  0.5691110000000  0.5467270000000  0.5179800000000 1.0
C      1  0.4215990000000  0.5346150000000  0.5132590000000 1.0
C      1  0.5103150000000  0.4141430000000  0.5132130000000 1.0
C      1  0.5701870000000  0.4480680000000  0.5121120000000 1.0
C      1  0.4241610000000  0.4641190000000  0.5185770000000 1.0
C      1  0.5075040000000  0.5842860000000  0.5169880000000 1.0
C      1  0.5604770000000  0.5486020000000  0.5291020000000 1.0
C      1  0.4242430000000  0.5276050000000  0.5255000000000 1.0
C      1  0.5145960000000  0.4205320000000  0.5253530000000 1.0
C      1  0.5630880000000  0.4470690000000  0.5246160000000 1.0
C      1  0.4270180000000  0.4723140000000  0.5298460000000 1.0
C      1  0.5135980000000  0.5787230000000  0.5285510000000 1.0
C      1  0.4232690000000  0.4712950000000  0.4950580000000 1.0
C      1  0.5646240000000  0.4472920000000  0.4971170000000 1.0
C      1  0.5145090000000  0.5804150000000  0.4938130000000 1.0
C      1  0.4243060000000  0.5299020000000  0.4976650000000 1.0
C      1  0.5628210000000  0.5522050000000  0.4943020000000 1.0
C      1  0.5136430000000  0.4181810000000  0.4977580000000 1.0
C      1  0.4204920000000  0.4929900000000  0.5059720000000 1.0
C      1  0.5468410000000  0.4336860000000  0.5063930000000 1.0
C      1  0.5345050000000  0.5732990000000  0.5053090000000 1.0
C      1  0.4209370000000  0.5071590000000  0.5060020000000 1.0
C      1  0.5465320000000  0.5658490000000  0.5051510000000 1.0
C      1  0.5347310000000  0.4265390000000  0.5066110000000 1.0
C      1  0.5361640000000  0.5365840000000  0.4785240000000 1.0
C      1  0.4412090000000  0.5124230000000  0.4845350000000 1.0
C      1  0.5168050000000  0.4469460000000  0.4827900000000 1.0
C      1  0.5376400000000  0.4592160000000  0.4826100000000 1.0
C      1  0.4408980000000  0.4875350000000  0.4843990000000 1.0
C      1  0.5158080000000  0.5550100000000  0.4826020000000 1.0
C      1  0.4646560000000  0.5064420000000  0.5268180000000 1.0
C      1  0.5126250000000  0.4643390000000  0.5282440000000 1.0
C      1  0.5270210000000  0.5266660000000  0.5245570000000 1.0
C      1  0.4647400000000  0.4903130000000  0.5251040000000 1.0
C      1  0.5130940000000  0.5356430000000  0.5268460000000 1.0
C      1  0.5251670000000  0.4733180000000  0.5279210000000 1.0
C      1  0.4956350000000  0.4289400000000  0.4556430000000 1.0
C      1  0.5643140000000  0.5310090000000  0.4507170000000 1.0
C      1  0.4412510000000  0.5409010000000  0.4511610000000 1.0
C      1  0.4944530000000  0.5707860000000  0.4526250000000 1.0
C      1  0.5636320000000  0.4687220000000  0.4554590000000 1.0
C      1  0.4416780000000  0.4595130000000  0.4508350000000 1.0
C      1  0.4510670000000  0.5286860000000  0.5622030000000 1.0
C      1  0.4984390000000  0.4422160000000  0.5611840000000 1.0
C      1  0.5532870000000  0.5277100000000  0.5636910000000 1.0
C      1  0.4490730000000  0.4674730000000  0.5632370000000 1.0
C      1  0.4994990000000  0.5568350000000  0.5624230000000 1.0
C      1  0.5525050000000  0.4691220000000  0.5660870000000 1.0
C      1  0.5200340000000  0.5087370000000  0.5507150000000 1.0
C      1  0.4811860000000  0.5172250000000  0.5491770000000 1.0
C      1  0.4925380000000  0.4761600000000  0.5500200000000 1.0
C      1  0.5209170000000  0.4928260000000  0.5504710000000 1.0
C      1  0.4836610000000  0.4878930000000  0.5502340000000 1.0
C      1  0.4948850000000  0.5252540000000  0.5494320000000 1.0
C      1  0.4440900000000  0.4846820000000  0.4413350000000 1.0
C      1  0.5397560000000  0.4605190000000  0.4498890000000 1.0
C      1  0.5140160000000  0.5560120000000  0.4420930000000 1.0
C      1  0.4439250000000  0.5157580000000  0.4415390000000 1.0
C      1  0.5407500000000  0.5410950000000  0.4412840000000 1.0
C      1  0.5147360000000  0.4456350000000  0.4498250000000 1.0
C      1  0.4703080000000  0.5654190000000  0.4578100000000 1.0
C      1  0.4588260000000  0.4425860000000  0.4571410000000 1.0
C      1  0.5702950000000  0.4935330000000  0.4583130000000 1.0
C      1  0.4710740000000  0.4355660000000  0.4583100000000 1.0
C      1  0.4580370000000  0.5579410000000  0.4575290000000 1.0
C      1  0.5697780000000  0.5078630000000  0.4579200000000 1.0
C      1  0.4886410000000  0.5571400000000  0.5110830000000 1.0
C      1  0.4573360000000  0.4610460000000  0.5097230000000 1.0
C      1  0.5540090000000  0.4813970000000  0.5096230000000 1.0
C      1  0.4895960000000  0.4442510000000  0.5111540000000 1.0
C      1  0.4583230000000  0.5374360000000  0.5114750000000 1.0
C      1  0.5555930000000  0.5167350000000  0.5102000000000 1.0
C      1  0.5311650000000  0.4693060000000  0.5414170000000 1.0
C      1  0.5199460000000  0.5396630000000  0.5387950000000 1.0
C      1  0.4542440000000  0.4892440000000  0.5350600000000 1.0
C      1  0.5328610000000  0.5344990000000  0.5351350000000 1.0
C      1  0.5188870000000  0.4602430000000  0.5405910000000 1.0
C      1  0.4559740000000  0.5031900000000  0.5379720000000 1.0
C      1  0.5038620000000  0.5620720000000  0.5084750000000 1.0
C      1  0.4454190000000  0.4719060000000  0.5090430000000 1.0
C      1  0.5505100000000  0.4664670000000  0.5107440000000 1.0
C      1  0.5043210000000  0.4396980000000  0.5118030000000 1.0
C      1  0.4472330000000  0.5267320000000  0.5120170000000 1.0
C      1  0.5522380000000  0.5328500000000  0.5077450000000 1.0
C      1  0.4444890000000  0.4352550000000  0.5043680000000 1.0
C      1  0.5836360000000  0.4821860000000  0.5028900000000 1.0
C      1  0.4728430000000  0.5814740000000  0.5060540000000 1.0
C      1  0.4441880000000  0.5641230000000  0.5048850000000 1.0
C      1  0.5844570000000  0.5158450000000  0.5043700000000 1.0
C      1  0.4740660000000  0.4190990000000  0.5037830000000 1.0
C      1  0.4704570000000  0.5665500000000  0.5278120000000 1.0
C      1  0.4574300000000  0.4391820000000  0.5260900000000 1.0
C      1  0.5739160000000  0.4908170000000  0.5253690000000 1.0
C      1  0.4709930000000  0.4321620000000  0.5260480000000 1.0
C      1  0.4574100000000  0.5586700000000  0.5271330000000 1.0
C      1  0.5742970000000  0.5059840000000  0.5261100000000 1.0
C      1  0.5249430000000  0.5700430000000  0.5290060000000 1.0
C      1  0.4270250000000  0.4864670000000  0.5300020000000 1.0
C      1  0.5497640000000  0.4419700000000  0.5280950000000 1.0
C      1  0.5262620000000  0.4285440000000  0.5285350000000 1.0
C      1  0.4263050000000  0.5135030000000  0.5286950000000 1.0
C      1  0.5483940000000  0.5557690000000  0.5289550000000 1.0
C      1  0.4966900000000  0.4789130000000  0.4767380000000 1.0
C      1  0.5217240000000  0.5166430000000  0.4742760000000 1.0
C      1  0.4769250000000  0.5130080000000  0.4718140000000 1.0
C      1  0.4992150000000  0.5256390000000  0.4723750000000 1.0
C      1  0.5193770000000  0.4922230000000  0.4770750000000 1.0
C      1  0.4740800000000  0.4886470000000  0.4732790000000 1.0
C      1  0.4426070000000  0.4743430000000  0.4799760000000 1.0
C      1  0.5437080000000  0.4688290000000  0.4755460000000 1.0
C      1  0.5061080000000  0.5469080000000  0.4782390000000 1.0
C      1  0.4437290000000  0.5250320000000  0.4794450000000 1.0
C      1  0.5498540000000  0.5340820000000  0.4744700000000 1.0
C      1  0.5054360000000  0.4465590000000  0.4758000000000 1.0
C      1  0.4377690000000  0.4843350000000  0.5511690000000 1.0
C      1  0.5490820000000  0.4510400000000  0.5502330000000 1.0
C      1  0.5191250000000  0.5653420000000  0.5519500000000 1.0
C      1  0.4331850000000  0.5175040000000  0.5513740000000 1.0
C      1  0.5454360000000  0.5462030000000  0.5508020000000 1.0
C      1  0.5186290000000  0.4346290000000  0.5501630000000 1.0
C      1  0.4265460000000  0.4929560000000  0.4584280000000 1.0
C      1  0.5442760000000  0.4380380000000  0.4614010000000 1.0
C      1  0.5303980000000  0.5677080000000  0.4586380000000 1.0
C      1  0.4264100000000  0.5078760000000  0.4587040000000 1.0
C      1  0.5427790000000  0.5599360000000  0.4587060000000 1.0
C      1  0.5317390000000  0.4306930000000  0.4615320000000 1.0
C      1  0.4308120000000  0.5293670000000  0.4722080000000 1.0
C      1  0.5135070000000  0.4184210000000  0.4725210000000 1.0
C      1  0.5589350000000  0.5461570000000  0.4715150000000 1.0
C      1  0.4305260000000  0.4713330000000  0.4711320000000 1.0
C      1  0.5122570000000  0.5792230000000  0.4701040000000 1.0
C      1  0.5641020000000  0.4477000000000  0.4720830000000 1.0
C      1  0.5809440000000  0.5298820000000  0.5047620000000 1.0
C      1  0.4318160000000  0.5563390000000  0.5032320000000 1.0
C      1  0.4868740000000  0.4124120000000  0.5021150000000 1.0
C      1  0.5831420000000  0.4677450000000  0.5011240000000 1.0
C      1  0.4333870000000  0.4448490000000  0.5046550000000 1.0
C      1  0.4864020000000  0.5862270000000  0.5049670000000 1.0
C      1  0.5304440000000  0.4337340000000  0.5416360000000 1.0
C      1  0.5419140000000  0.5574910000000  0.5418540000000 1.0
C      1  0.4280450000000  0.5076370000000  0.5422520000000 1.0
C      1  0.5297440000000  0.5652690000000  0.5420010000000 1.0
C      1  0.5434000000000  0.4409780000000  0.5414270000000 1.0
C      1  0.4291170000000  0.4931300000000  0.5426390000000 1.0
C      1  0.4424340000000  0.5578000000000  0.4814540000000 1.0
C      1  0.4803970000000  0.4221580000000  0.4811390000000 1.0
C      1  0.5787210000000  0.5208170000000  0.4815390000000 1.0
C      1  0.4422530000000  0.4418950000000  0.4812370000000 1.0
C      1  0.4789810000000  0.5785820000000  0.4822850000000 1.0
C      1  0.5776850000000  0.4779990000000  0.4801290000000 1.0
C      1  0.5117710000000  0.5416410000000  0.5510710000000 1.0
C      1  0.4612380000000  0.4859810000000  0.5588830000000 1.0
C      1  0.5289830000000  0.4727610000000  0.5557820000000 1.0
C      1  0.5093860000000  0.4593230000000  0.5519090000000 1.0
C      1  0.4579300000000  0.5107750000000  0.5504800000000 1.0
C      1  0.5314700000000  0.5273770000000  0.5588660000000 1.0
C      1  0.4783780000000  0.4240700000000  0.5366690000000 1.0
C      1  0.5768570000000  0.5156590000000  0.5375850000000 1.0
C      1  0.4465050000000  0.5562820000000  0.5375810000000 1.0
C      1  0.4775390000000  0.5742990000000  0.5387340000000 1.0
C      1  0.5767470000000  0.4805830000000  0.5363210000000 1.0
C      1  0.4473550000000  0.4418150000000  0.5371370000000 1.0
C      1  0.4755150000000  0.5280350000000  0.5255070000000 1.0
C      1  0.4890230000000  0.4634350000000  0.5255860000000 1.0
C      1  0.5375410000000  0.5062970000000  0.5247070000000 1.0
C      1  0.4759010000000  0.4710020000000  0.5242870000000 1.0
C      1  0.4892120000000  0.5363950000000  0.5256320000000 1.0
C      1  0.5376090000000  0.4912090000000  0.5250510000000 1.0
C      1  0.5345860000000  0.4872360000000  0.5004490000000 1.0
C      1  0.4942300000000  0.5378450000000  0.4999280000000 1.0
C      1  0.4711340000000  0.4751210000000  0.4995940000000 1.0
C      1  0.5353060000000  0.5118560000000  0.5003220000000 1.0
C      1  0.4940910000000  0.4629390000000  0.5010310000000 1.0
C      1  0.4722290000000  0.5245140000000  0.5000020000000 1.0
C      1  0.4483900000000  0.5054760000000  0.5616900000000 1.0
C      1  0.5187560000000  0.4533360000000  0.5629390000000 1.0
C      1  0.5334480000000  0.5409350000000  0.5627530000000 1.0
C      1  0.4483520000000  0.4912400000000  0.5625610000000 1.0
C      1  0.5211320000000  0.5479020000000  0.5615350000000 1.0
C      1  0.5308030000000  0.4603000000000  0.5635310000000 1.0
C      1  0.5687830000000  0.5450290000000  0.4837490000000 1.0
C      1  0.4258380000000  0.5382610000000  0.4851420000000 1.0
C      1  0.5061420000000  0.4151460000000  0.4850460000000 1.0
C      1  0.5709350000000  0.4523320000000  0.4843950000000 1.0
C      1  0.4266350000000  0.4628470000000  0.4839640000000 1.0
C      1  0.5054840000000  0.5827390000000  0.4830210000000 1.0
C      1  0.5152340000000  0.5406410000000  0.5128060000000 1.0
C      1  0.4597960000000  0.4920590000000  0.5112790000000 1.0
C      1  0.5281400000000  0.4672360000000  0.5143050000000 1.0
C      1  0.5153790000000  0.4589090000000  0.5144900000000 1.0
C      1  0.4594110000000  0.5071010000000  0.5131530000000 1.0
C      1  0.5276860000000  0.5317260000000  0.5104240000000 1.0
C      1  0.5158280000000  0.4870880000000  0.5121440000000 1.0
C      1  0.5035090000000  0.5205570000000  0.5126970000000 1.0
C      1  0.4832590000000  0.4921260000000  0.5113430000000 1.0
C      1  0.5155630000000  0.5114910000000  0.5121850000000 1.0
C      1  0.5035360000000  0.4785270000000  0.5119270000000 1.0
C      1  0.4828820000000  0.5070350000000  0.5121430000000 1.0
C      1  0.4397860000000  0.5457230000000  0.5275360000000 1.0
C      1  0.4911760000000  0.4245440000000  0.5267900000000 1.0
C      1  0.5693410000000  0.5269070000000  0.5297120000000 1.0
C      1  0.4417100000000  0.4539360000000  0.5290960000000 1.0
C      1  0.4900640000000  0.5759750000000  0.5298340000000 1.0
C      1  0.5709390000000  0.4694090000000  0.5256400000000 1.0
C      1  0.4869070000000  0.4927680000000  0.5368590000000 1.0
C      1  0.5132650000000  0.4926510000000  0.5372070000000 1.0
C      1  0.5001080000000  0.5167190000000  0.5370380000000 1.0
C      1  0.4869230000000  0.5087050000000  0.5368390000000 1.0
C      1  0.5134870000000  0.5086670000000  0.5371780000000 1.0
C      1  0.5000190000000  0.4843610000000  0.5365780000000 1.0
C      1  0.5791020000000  0.4646570000000  0.4866500000000 1.0
C      1  0.4911320000000  0.5840260000000  0.4884680000000 1.0
C      1  0.4318770000000  0.4494800000000  0.4887880000000 1.0
C      1  0.5771770000000  0.5335230000000  0.4889300000000 1.0
C      1  0.4913970000000  0.4143030000000  0.4874990000000 1.0
C      1  0.4308780000000  0.5516440000000  0.4883090000000 1.0
C      1  0.4251370000000  0.4926440000000  0.4827870000000 1.0
C      1  0.5489530000000  0.4303290000000  0.4838000000000 1.0
C      1  0.5353620000000  0.5756700000000  0.4813440000000 1.0
C      1  0.4255180000000  0.5081960000000  0.4831040000000 1.0
C      1  0.5476200000000  0.5677020000000  0.4812660000000 1.0
C      1  0.5360690000000  0.4228980000000  0.4839970000000 1.0
C      1  0.4482040000000  0.5076800000000  0.4295220000000 1.0
C      1  0.5189690000000  0.4525340000000  0.4373490000000 1.0
C      1  0.5319680000000  0.5410350000000  0.4295530000000 1.0
C      1  0.4485440000000  0.4924790000000  0.4294470000000 1.0
C      1  0.5188890000000  0.5486960000000  0.4299740000000 1.0
C      1  0.5317610000000  0.4602210000000  0.4373710000000 1.0
C      1  0.5100420000000  0.5080040000000  0.5813890000000 1.0
C      1  0.4854740000000  0.5094860000000  0.5801800000000 1.0
C      1  0.4971540000000  0.4867600000000  0.5809720000000 1.0
C      1  0.5101450000000  0.4940900000000  0.5813770000000 1.0
C      1  0.4855940000000  0.4945180000000  0.5815840000000 1.0
C      1  0.4974670000000  0.5160700000000  0.5800230000000 1.0
C      1  0.4462490000000  0.4930940000000  0.4956090000000 1.0
C      1  0.5343040000000  0.4551310000000  0.4950610000000 1.0
C      1  0.5225280000000  0.5515430000000  0.4936680000000 1.0
C      1  0.4466650000000  0.5069860000000  0.4958120000000 1.0
C      1  0.5336410000000  0.5429600000000  0.4917570000000 1.0
C      1  0.5222060000000  0.4478240000000  0.4951500000000 1.0
C      1  0.5440480000000  0.5091400000000  0.5466260000000 1.0
C      1  0.4741370000000  0.5310440000000  0.5450870000000 1.0
C      1  0.4831750000000  0.4639410000000  0.5476110000000 1.0
C      1  0.5325200000000  0.5016650000000  0.5510220000000 1.0
C      1  0.4690510000000  0.4653310000000  0.5453520000000 1.0
C      1  0.4864680000000  0.5382040000000  0.5454750000000 1.0
C      1  0.4716400000000  0.5094330000000  0.5575720000000 1.0
C      1  0.5042700000000  0.4724520000000  0.5584580000000 1.0
C      1  0.5192360000000  0.5201830000000  0.5600050000000 1.0
C      1  0.4732880000000  0.4934640000000  0.5587840000000 1.0
C      1  0.5060550000000  0.5291610000000  0.5584480000000 1.0
C      1  0.5183980000000  0.4815720000000  0.5595720000000 1.0
C      1  0.5133290000000  0.4921790000000  0.4390690000000 1.0
C      1  0.5003200000000  0.5159400000000  0.4363040000000 1.0
C      1  0.4868180000000  0.4926530000000  0.4369420000000 1.0
C      1  0.5131760000000  0.5083860000000  0.4374890000000 1.0
C      1  0.5005690000000  0.4845560000000  0.4388070000000 1.0
C      1  0.4866350000000  0.5076720000000  0.4359320000000 1.0
C      1  0.5393360000000  0.5067260000000  0.4312180000000 1.0
C      1  0.4739290000000  0.5310920000000  0.4289350000000 1.0
C      1  0.4870690000000  0.4614680000000  0.4320680000000 1.0
C      1  0.5398380000000  0.4925340000000  0.4324160000000 1.0
C      1  0.4750900000000  0.4690610000000  0.4308210000000 1.0
C      1  0.4860820000000  0.5383750000000  0.4291080000000 1.0
C      1  0.4330510000000  0.4828250000000  0.4500470000000 1.0
C      1  0.5479860000000  0.4501850000000  0.4547440000000 1.0
C      1  0.5183480000000  0.5661620000000  0.4510210000000 1.0
C      1  0.4329330000000  0.5178890000000  0.4503700000000 1.0
C      1  0.5479020000000  0.5492910000000  0.4503470000000 1.0
C      1  0.5194040000000  0.4333600000000  0.4548400000000 1.0
C      1  0.5091820000000  0.4554630000000  0.4284610000000 1.0
C      1  0.5337110000000  0.5289030000000  0.4233430000000 1.0
C      1  0.4577960000000  0.5148390000000  0.4229850000000 1.0
C      1  0.5080620000000  0.5443090000000  0.4230260000000 1.0
C      1  0.5340830000000  0.4702430000000  0.4285400000000 1.0
C      1  0.4583930000000  0.4850520000000  0.4233900000000 1.0
C      1  0.5410700000000  0.5144650000000  0.4885420000000 1.0
C      1  0.4673210000000  0.5279190000000  0.4875650000000 1.0
C      1  0.4904560000000  0.4596640000000  0.4884550000000 1.0
C      1  0.5395770000000  0.4879390000000  0.4879250000000 1.0
C      1  0.4652650000000  0.4721730000000  0.4877000000000 1.0
C      1  0.4934070000000  0.5431070000000  0.4865070000000 1.0
C      1  0.4679800000000  0.5366160000000  0.4653400000000 1.0
C      1  0.4810740000000  0.4567700000000  0.4675870000000 1.0
C      1  0.5464140000000  0.5116320000000  0.4662090000000 1.0
C      1  0.4669810000000  0.4643100000000  0.4658140000000 1.0
C      1  0.4821760000000  0.5452290000000  0.4655710000000 1.0
C      1  0.5470770000000  0.4956040000000  0.4676290000000 1.0
C      1  0.4766060000000  0.4279810000000  0.5491500000000 1.0
C      1  0.5742130000000  0.5117130000000  0.5498010000000 1.0
C      1  0.4513150000000  0.5545300000000  0.5497910000000 1.0
C      1  0.4777920000000  0.5687330000000  0.5507760000000 1.0
C      1  0.5731620000000  0.4837800000000  0.5485560000000 1.0
C      1  0.4512780000000  0.4415670000000  0.5496260000000 1.0
C      1  0.5280220000000  0.5636380000000  0.5156560000000 1.0
C      1  0.4317190000000  0.4919420000000  0.5165200000000 1.0
C      1  0.5416890000000  0.4442720000000  0.5161600000000 1.0
C      1  0.5283260000000  0.4363070000000  0.5163540000000 1.0
C      1  0.4322840000000  0.5074630000000  0.5165890000000 1.0
C      1  0.5415310000000  0.5553110000000  0.5150770000000 1.0
C      1  0.4849770000000  0.4931610000000  0.4611380000000 1.0
C      1  0.5123870000000  0.4948840000000  0.4632070000000 1.0
C      1  0.4990580000000  0.5166950000000  0.4602230000000 1.0
C      1  0.4857680000000  0.5089440000000  0.4598340000000 1.0
C      1  0.5131250000000  0.5098710000000  0.4617630000000 1.0
C      1  0.4982320000000  0.4864910000000  0.4629450000000 1.0
C      1  0.5153150000000  0.5154520000000  0.4879120000000 1.0
C      1  0.4831040000000  0.5069950000000  0.4838400000000 1.0
C      1  0.4930390000000  0.4888460000000  0.4885450000000 1.0
C      1  0.5119590000000  0.5005460000000  0.4890490000000 1.0
C      1  0.4781760000000  0.4936100000000  0.4872800000000 1.0
C      1  0.5008240000000  0.5177970000000  0.4848530000000 1.0
C      1  0.4524780000000  0.4549220000000  0.5660810000000 1.0
C      1  0.5585050000000  0.4801680000000  0.5654870000000 1.0
C      1  0.4868740000000  0.5589080000000  0.5666340000000 1.0
C      1  0.4552640000000  0.5406190000000  0.5662760000000 1.0
C      1  0.5615470000000  0.5177250000000  0.5669080000000 1.0
C      1  0.4862100000000  0.4399020000000  0.5658050000000 1.0
C      1  0.4806100000000  0.4449460000000  0.4762340000000 1.0
C      1  0.5566880000000  0.5198860000000  0.4738240000000 1.0
C      1  0.4573640000000  0.5424110000000  0.4733590000000 1.0
C      1  0.4805700000000  0.5569400000000  0.4744340000000 1.0
C      1  0.5575340000000  0.4896310000000  0.4759730000000 1.0
C      1  0.4559290000000  0.4580020000000  0.4727110000000 1.0
C      1  0.4461460000000  0.5126640000000  0.5096900000000 1.0
C      1  0.5172540000000  0.4452930000000  0.5096680000000 1.0
C      1  0.5395570000000  0.5397600000000  0.5060010000000 1.0
C      1  0.4460260000000  0.4863770000000  0.5086320000000 1.0
C      1  0.5167230000000  0.5547110000000  0.5080680000000 1.0
C      1  0.5390160000000  0.4584700000000  0.5093410000000 1.0
C      1  0.5027780000000  0.5754590000000  0.5366120000000 1.0
C      1  0.4383470000000  0.4667740000000  0.5356930000000 1.0
C      1  0.5651370000000  0.4585080000000  0.5323530000000 1.0
C      1  0.5038520000000  0.4256420000000  0.5327080000000 1.0
C      1  0.4331750000000  0.5348830000000  0.5336370000000 1.0
C      1  0.5599630000000  0.5365280000000  0.5358840000000 1.0
C      1  0.5251330000000  0.4784920000000  0.5047270000000 1.0
C      1  0.5057670000000  0.5327570000000  0.5049220000000 1.0
C      1  0.4721930000000  0.4888670000000  0.5016620000000 1.0
C      1  0.5233370000000  0.5187300000000  0.5017890000000 1.0
C      1  0.5066750000000  0.4662970000000  0.5049940000000 1.0
C      1  0.4708950000000  0.5117450000000  0.5048650000000 1.0
C      1  0.4238310000000  0.5149850000000  0.4706490000000 1.0
C      1  0.5279520000000  0.4218540000000  0.4724390000000 1.0
C      1  0.5508000000000  0.5594840000000  0.4703540000000 1.0
C      1  0.4239390000000  0.4857650000000  0.4701940000000 1.0
C      1  0.5267760000000  0.5758290000000  0.4700200000000 1.0
C      1  0.5538810000000  0.4368740000000  0.4721610000000 1.0
C      1  0.4757340000000  0.5694780000000  0.4710950000000 1.0
C      1  0.4505670000000  0.4456980000000  0.4696430000000 1.0
C      1  0.5707780000000  0.4868750000000  0.4712250000000 1.0
C      1  0.4762020000000  0.4322250000000  0.4717840000000 1.0
C      1  0.4508400000000  0.5543190000000  0.4702040000000 1.0
C      1  0.5707760000000  0.5169990000000  0.4697590000000 1.0
C      1  0.4717840000000  0.4658180000000  0.5102400000000 1.0
C      1  0.5435740000000  0.4917920000000  0.5105230000000 1.0
C      1  0.4860070000000  0.5422420000000  0.5112510000000 1.0
C      1  0.4725760000000  0.5340800000000  0.5111430000000 1.0
C      1  0.5436770000000  0.5073810000000  0.5107480000000 1.0
C      1  0.4854030000000  0.4581620000000  0.5112310000000 1.0
C      1  0.4884120000000  0.4524050000000  0.5364000000000 1.0
C      1  0.5486660000000  0.5101600000000  0.5331850000000 1.0
C      1  0.4634360000000  0.5326940000000  0.5351750000000 1.0
C      1  0.4902340000000  0.5484110000000  0.5355580000000 1.0
C      1  0.5490790000000  0.4832500000000  0.5320350000000 1.0
C      1  0.4659180000000  0.4632920000000  0.5318470000000 1.0
C      1  0.5100140000000  0.4673390000000  0.4600150000000 1.0
C      1  0.5242750000000  0.5283610000000  0.4537330000000 1.0
C      1  0.4645240000000  0.5081540000000  0.4510900000000 1.0
C      1  0.5103810000000  0.5353090000000  0.4531510000000 1.0
C      1  0.5233710000000  0.4752590000000  0.4601970000000 1.0
C      1  0.4641350000000  0.4926740000000  0.4515780000000 1.0
C      1  0.4771770000000  0.4286290000000  0.4936840000000 1.0
C      1  0.5770640000000  0.5120330000000  0.4929110000000 1.0
C      1  0.4498350000000  0.5568690000000  0.4940280000000 1.0
C      1  0.4736000000000  0.5730970000000  0.4947210000000 1.0
C      1  0.5737590000000  0.4838070000000  0.4927100000000 1.0
C      1  0.4510190000000  0.4407600000000  0.4927640000000 1.0
C      1  0.5761850000000  0.5346370000000  0.5181890000000 1.0
C      1  0.4315210000000  0.5457900000000  0.5135810000000 1.0
C      1  0.4957530000000  0.4171020000000  0.5128260000000 1.0
C      1  0.5747090000000  0.4622050000000  0.5117210000000 1.0
C      1  0.4314080000000  0.4520020000000  0.5177520000000 1.0
C      1  0.4933250000000  0.5848530000000  0.5177360000000 1.0
C      1  0.4626720000000  0.4681700000000  0.4518850000000 1.0
C      1  0.5460050000000  0.4855160000000  0.4563760000000 1.0
C      1  0.4896930000000  0.5487620000000  0.4522120000000 1.0
C      1  0.4625640000000  0.5324850000000  0.4515670000000 1.0
C      1  0.5458880000000  0.5171200000000  0.4522920000000 1.0
C      1  0.4902580000000  0.4526650000000  0.4561930000000 1.0
C      1  0.4211660000000  0.5158880000000  0.4953080000000 1.0
C      1  0.5281930000000  0.4207690000000  0.4960330000000 1.0
C      1  0.5538340000000  0.5631530000000  0.4935330000000 1.0
C      1  0.4199670000000  0.4850520000000  0.4944020000000 1.0
C      1  0.5285440000000  0.5785420000000  0.4936510000000 1.0
C      1  0.5549750000000  0.4360670000000  0.4956230000000 1.0
C      1  0.5167380000000  0.5186220000000  0.5747980000000 1.0
C      1  0.4731850000000  0.5095400000000  0.5729400000000 1.0
C      1  0.5030370000000  0.4754000000000  0.5737170000000 1.0
C      1  0.5160940000000  0.4830690000000  0.5743300000000 1.0
C      1  0.4739050000000  0.4945440000000  0.5738220000000 1.0
C      1  0.5041720000000  0.5270960000000  0.5735860000000 1.0
C      1  0.5349200000000  0.5106640000000  0.4761630000000 1.0
C      1  0.4748750000000  0.5270730000000  0.4752680000000 1.0
C      1  0.4864050000000  0.4679480000000  0.4772780000000 1.0
C      1  0.5342280000000  0.4956930000000  0.4770940000000 1.0
C      1  0.4725930000000  0.4743650000000  0.4757930000000 1.0
C      1  0.4877980000000  0.5346090000000  0.4749900000000 1.0
C      1  0.4961010000000  0.4887870000000  0.5038660000000 1.0
C      1  0.4958480000000  0.5101910000000  0.5065890000000 1.0
C      1  0.5086150000000  0.4989120000000  0.5045480000000 1.0
C      1  0.4974550000000  0.5032250000000  0.4833630000000 1.0
END
