TITL C-1887021-2772-49 1.32804751834092e-06 1000000 -2633.82864036729 0 0 380 (Th) n - 1
REM
REM in /nfs/bkarasulu/CARBON/AIRSS/Generating-Clusters/GAP-ML-2020/Higher-Symm/Selected-Sizes/TryA-Only_Ih-Symm/Larger-Clusters
REM
REM
REM
REM
REM
REM ./C.cell (2cf5181f0f1d4d5b12b972d32ad12063)
REM
REM compiler GCC version 9.2.1 20190827 (Red Hat 9.2.1-1)
REM options -cpp -mtune=generic -march=x86-64 -g -O0 -fpre-include=/usr/include/finclude/math-vector-fortran.h
REM seed 1661841710 181321766 -1048179042 934840392 1002145530 3532978 777672435 -633756318 -1449354600 -1154684073 982338911 -1593613890 2102390863 1546040372 56081392 -713873464 -1798264784 -1862821339 114722935 -2142172451 -20007122 -2140419170 1262361809 -1133309303 1684202255 1724194006 -842716929 1399315457 -1226874531 -263972475 -1334781450 879312003 -99316776
REM
CELL 1.54180  100.00000  100.00000  100.00000   90.00000   90.00000   90.00000
LATT -1
SFAC C  
C      1  0.4404700000000  0.5467870000000  0.4754090000000 1.0
C      1  0.4756150000000  0.4406170000000  0.5464340000000 1.0
C      1  0.5466400000000  0.4757620000000  0.4402640000000 1.0
C      1  0.4404700000000  0.4536240000000  0.5242970000000 1.0
C      1  0.5596480000000  0.4536240000000  0.4754090000000 1.0
C      1  0.5596480000000  0.5467870000000  0.5242970000000 1.0
C      1  0.4756150000000  0.5597940000000  0.4532720000000 1.0
C      1  0.5245030000000  0.5597940000000  0.5464340000000 1.0
C      1  0.5245030000000  0.4406170000000  0.4532720000000 1.0
C      1  0.5466400000000  0.5246500000000  0.5594420000000 1.0
C      1  0.4534780000000  0.5246500000000  0.4402640000000 1.0
C      1  0.4534780000000  0.4757620000000  0.5594420000000 1.0
C      1  0.5596480000000  0.5467870000000  0.4754090000000 1.0
C      1  0.5245030000000  0.4406170000000  0.5464340000000 1.0
C      1  0.4534780000000  0.4757620000000  0.4402640000000 1.0
C      1  0.5596480000000  0.4536240000000  0.5242970000000 1.0
C      1  0.4404700000000  0.4536240000000  0.4754090000000 1.0
C      1  0.4404700000000  0.5467870000000  0.5242970000000 1.0
C      1  0.5245030000000  0.5597940000000  0.4532720000000 1.0
C      1  0.4756150000000  0.5597940000000  0.5464340000000 1.0
C      1  0.4756150000000  0.4406170000000  0.4532720000000 1.0
C      1  0.4534780000000  0.5246500000000  0.5594420000000 1.0
C      1  0.5466400000000  0.5246500000000  0.4402640000000 1.0
C      1  0.5466400000000  0.4757620000000  0.5594420000000 1.0
C      1  0.5547740000000  0.5397830000000  0.4638850000000 1.0
C      1  0.4640910000000  0.5549210000000  0.5394300000000 1.0
C      1  0.5396360000000  0.4642380000000  0.5545680000000 1.0
C      1  0.5547740000000  0.4606290000000  0.5358210000000 1.0
C      1  0.4453440000000  0.4606290000000  0.4638850000000 1.0
C      1  0.4453440000000  0.5397830000000  0.5358210000000 1.0
C      1  0.4640910000000  0.4454910000000  0.4602760000000 1.0
C      1  0.5360270000000  0.4454910000000  0.5394300000000 1.0
C      1  0.5360270000000  0.5549210000000  0.4602760000000 1.0
C      1  0.5396360000000  0.5361740000000  0.4451380000000 1.0
C      1  0.4604820000000  0.5361740000000  0.5545680000000 1.0
C      1  0.4604820000000  0.4642380000000  0.4451380000000 1.0
C      1  0.4453440000000  0.5397830000000  0.4638850000000 1.0
C      1  0.5360270000000  0.5549210000000  0.5394300000000 1.0
C      1  0.4604820000000  0.4642380000000  0.5545680000000 1.0
C      1  0.4453440000000  0.4606290000000  0.5358210000000 1.0
C      1  0.5547740000000  0.4606290000000  0.4638850000000 1.0
C      1  0.5547740000000  0.5397830000000  0.5358210000000 1.0
C      1  0.5360270000000  0.4454910000000  0.4602760000000 1.0
C      1  0.4640910000000  0.4454910000000  0.5394300000000 1.0
C      1  0.4640910000000  0.5549210000000  0.4602760000000 1.0
C      1  0.4604820000000  0.5361740000000  0.4451380000000 1.0
C      1  0.5396360000000  0.5361740000000  0.5545680000000 1.0
C      1  0.5396360000000  0.4642380000000  0.4451380000000 1.0
C      1  0.5314950000000  0.5600270000000  0.5134610000000 1.0
C      1  0.5136670000000  0.5316420000000  0.5596740000000 1.0
C      1  0.5598800000000  0.5138140000000  0.5312890000000 1.0
C      1  0.5314950000000  0.4403850000000  0.4862450000000 1.0
C      1  0.4686230000000  0.4403850000000  0.5134610000000 1.0
C      1  0.4686230000000  0.5600270000000  0.4862450000000 1.0
C      1  0.5136670000000  0.4687700000000  0.4400320000000 1.0
C      1  0.4864510000000  0.4687700000000  0.5596740000000 1.0
C      1  0.4864510000000  0.5316420000000  0.4400320000000 1.0
C      1  0.5598800000000  0.4865980000000  0.4684170000000 1.0
C      1  0.4402380000000  0.4865980000000  0.5312890000000 1.0
C      1  0.4402380000000  0.5138140000000  0.4684170000000 1.0
C      1  0.4686230000000  0.5600270000000  0.5134610000000 1.0
C      1  0.4864510000000  0.5316420000000  0.5596740000000 1.0
C      1  0.4402380000000  0.5138140000000  0.5312890000000 1.0
C      1  0.4686230000000  0.4403850000000  0.4862450000000 1.0
C      1  0.5314950000000  0.4403850000000  0.5134610000000 1.0
C      1  0.5314950000000  0.5600270000000  0.4862450000000 1.0
C      1  0.4864510000000  0.4687700000000  0.4400320000000 1.0
C      1  0.5136670000000  0.4687700000000  0.5596740000000 1.0
C      1  0.5136670000000  0.5316420000000  0.4400320000000 1.0
C      1  0.4402380000000  0.4865980000000  0.4684170000000 1.0
C      1  0.5598800000000  0.4865980000000  0.5312890000000 1.0
C      1  0.5598800000000  0.5138140000000  0.4684170000000 1.0
C      1  0.5188530000000  0.4463120000000  0.5075860000000 1.0
C      1  0.5077920000000  0.5190000000000  0.4459590000000 1.0
C      1  0.4461650000000  0.5079390000000  0.5186470000000 1.0
C      1  0.5188530000000  0.5541000000000  0.4921200000000 1.0
C      1  0.4812650000000  0.5541000000000  0.5075860000000 1.0
C      1  0.4812650000000  0.4463120000000  0.4921200000000 1.0
C      1  0.5077920000000  0.4814120000000  0.5537470000000 1.0
C      1  0.4923260000000  0.4814120000000  0.4459590000000 1.0
C      1  0.4923260000000  0.5190000000000  0.5537470000000 1.0
C      1  0.4461650000000  0.4924730000000  0.4810590000000 1.0
C      1  0.5539530000000  0.4924730000000  0.5186470000000 1.0
C      1  0.5539530000000  0.5079390000000  0.4810590000000 1.0
C      1  0.4812650000000  0.4463120000000  0.5075860000000 1.0
C      1  0.4923260000000  0.5190000000000  0.4459590000000 1.0
C      1  0.5539530000000  0.5079390000000  0.5186470000000 1.0
C      1  0.4812650000000  0.5541000000000  0.4921200000000 1.0
C      1  0.5188530000000  0.5541000000000  0.5075860000000 1.0
C      1  0.5188530000000  0.4463120000000  0.4921200000000 1.0
C      1  0.4923260000000  0.4814120000000  0.5537470000000 1.0
C      1  0.5077920000000  0.4814120000000  0.4459590000000 1.0
C      1  0.5077920000000  0.5190000000000  0.5537470000000 1.0
C      1  0.5539530000000  0.4924730000000  0.4810590000000 1.0
C      1  0.4461650000000  0.4924730000000  0.5186470000000 1.0
C      1  0.4461650000000  0.5079390000000  0.4810590000000 1.0
C      1  0.4796830000000  0.4619580000000  0.5072750000000 1.0
C      1  0.5074810000000  0.4798290000000  0.4616050000000 1.0
C      1  0.4618110000000  0.5076280000000  0.4794770000000 1.0
C      1  0.4796830000000  0.5384540000000  0.4924310000000 1.0
C      1  0.5204350000000  0.5384540000000  0.5072750000000 1.0
C      1  0.5204350000000  0.4619580000000  0.4924310000000 1.0
C      1  0.5074810000000  0.5205820000000  0.5381010000000 1.0
C      1  0.4926370000000  0.5205820000000  0.4616050000000 1.0
C      1  0.4926370000000  0.4798290000000  0.5381010000000 1.0
C      1  0.4618110000000  0.4927840000000  0.5202290000000 1.0
C      1  0.5383070000000  0.4927840000000  0.4794770000000 1.0
C      1  0.5383070000000  0.5076280000000  0.5202290000000 1.0
C      1  0.5204350000000  0.4619580000000  0.5072750000000 1.0
C      1  0.4926370000000  0.4798290000000  0.4616050000000 1.0
C      1  0.5383070000000  0.5076280000000  0.4794770000000 1.0
C      1  0.5204350000000  0.5384540000000  0.4924310000000 1.0
C      1  0.4796830000000  0.5384540000000  0.5072750000000 1.0
C      1  0.4796830000000  0.4619580000000  0.4924310000000 1.0
C      1  0.4926370000000  0.5205820000000  0.5381010000000 1.0
C      1  0.5074810000000  0.5205820000000  0.4616050000000 1.0
C      1  0.5074810000000  0.4798290000000  0.5381010000000 1.0
C      1  0.5383070000000  0.4927840000000  0.5202290000000 1.0
C      1  0.4618110000000  0.4927840000000  0.4794770000000 1.0
C      1  0.4618110000000  0.5076280000000  0.5202290000000 1.0
C      1  0.5187590000000  0.5238120000000  0.4693540000000 1.0
C      1  0.4695600000000  0.5189060000000  0.5234600000000 1.0
C      1  0.5236650000000  0.4697070000000  0.5185530000000 1.0
C      1  0.5187590000000  0.4765990000000  0.5303520000000 1.0
C      1  0.4813590000000  0.4765990000000  0.4693540000000 1.0
C      1  0.4813590000000  0.5238120000000  0.5303520000000 1.0
C      1  0.4695600000000  0.4815060000000  0.4762470000000 1.0
C      1  0.5305580000000  0.4815060000000  0.5234600000000 1.0
C      1  0.5305580000000  0.5189060000000  0.4762470000000 1.0
C      1  0.5236650000000  0.5307050000000  0.4811530000000 1.0
C      1  0.4764520000000  0.5307050000000  0.5185530000000 1.0
C      1  0.4764520000000  0.4697070000000  0.4811530000000 1.0
C      1  0.4813590000000  0.5238120000000  0.4693540000000 1.0
C      1  0.5305580000000  0.5189060000000  0.5234600000000 1.0
C      1  0.4764520000000  0.4697070000000  0.5185530000000 1.0
C      1  0.4813590000000  0.4765990000000  0.5303520000000 1.0
C      1  0.5187590000000  0.4765990000000  0.4693540000000 1.0
C      1  0.5187590000000  0.5238120000000  0.5303520000000 1.0
C      1  0.5305580000000  0.4815060000000  0.4762470000000 1.0
C      1  0.4695600000000  0.4815060000000  0.5234600000000 1.0
C      1  0.4695600000000  0.5189060000000  0.4762470000000 1.0
C      1  0.4764520000000  0.5307050000000  0.4811530000000 1.0
C      1  0.5236650000000  0.5307050000000  0.5185530000000 1.0
C      1  0.5236650000000  0.4697070000000  0.4811530000000 1.0
C      1  0.5560810000000  0.5197590000000  0.5505850000000 1.0
C      1  0.5507910000000  0.5562280000000  0.5194060000000 1.0
C      1  0.5196120000000  0.5509380000000  0.5558750000000 1.0
C      1  0.5560810000000  0.4806530000000  0.4491210000000 1.0
C      1  0.4440370000000  0.4806530000000  0.5505850000000 1.0
C      1  0.4440370000000  0.5197590000000  0.4491210000000 1.0
C      1  0.5507910000000  0.4441840000000  0.4803000000000 1.0
C      1  0.4493270000000  0.4441840000000  0.5194060000000 1.0
C      1  0.4493270000000  0.5562280000000  0.4803000000000 1.0
C      1  0.5196120000000  0.4494740000000  0.4438310000000 1.0
C      1  0.4805060000000  0.4494740000000  0.5558750000000 1.0
C      1  0.4805060000000  0.5509380000000  0.4438310000000 1.0
C      1  0.4440370000000  0.5197590000000  0.5505850000000 1.0
C      1  0.4493270000000  0.5562280000000  0.5194060000000 1.0
C      1  0.4805060000000  0.5509380000000  0.5558750000000 1.0
C      1  0.4440370000000  0.4806530000000  0.4491210000000 1.0
C      1  0.5560810000000  0.4806530000000  0.5505850000000 1.0
C      1  0.5560810000000  0.5197590000000  0.4491210000000 1.0
C      1  0.4493270000000  0.4441840000000  0.4803000000000 1.0
C      1  0.5507910000000  0.4441840000000  0.5194060000000 1.0
C      1  0.5507910000000  0.5562280000000  0.4803000000000 1.0
C      1  0.4805060000000  0.4494740000000  0.4438310000000 1.0
C      1  0.5196120000000  0.4494740000000  0.5558750000000 1.0
C      1  0.5196120000000  0.5509380000000  0.4438310000000 1.0
C      1  0.5104930000000  0.5567960000000  0.4711700000000 1.0
C      1  0.4713750000000  0.5106400000000  0.5564430000000 1.0
C      1  0.5566490000000  0.4715220000000  0.5102880000000 1.0
C      1  0.5104930000000  0.4436160000000  0.5285370000000 1.0
C      1  0.4896240000000  0.4436160000000  0.4711700000000 1.0
C      1  0.4896240000000  0.5567960000000  0.5285370000000 1.0
C      1  0.4713750000000  0.4897710000000  0.4432630000000 1.0
C      1  0.5287430000000  0.4897710000000  0.5564430000000 1.0
C      1  0.5287430000000  0.5106400000000  0.4432630000000 1.0
C      1  0.5566490000000  0.5288890000000  0.4894190000000 1.0
C      1  0.4434690000000  0.5288890000000  0.5102880000000 1.0
C      1  0.4434690000000  0.4715220000000  0.4894190000000 1.0
C      1  0.4896240000000  0.5567960000000  0.4711700000000 1.0
C      1  0.5287430000000  0.5106400000000  0.5564430000000 1.0
C      1  0.4434690000000  0.4715220000000  0.5102880000000 1.0
C      1  0.4896240000000  0.4436160000000  0.5285370000000 1.0
C      1  0.5104930000000  0.4436160000000  0.4711700000000 1.0
C      1  0.5104930000000  0.5567960000000  0.5285370000000 1.0
C      1  0.5287430000000  0.4897710000000  0.4432630000000 1.0
C      1  0.4713750000000  0.4897710000000  0.5564430000000 1.0
C      1  0.4713750000000  0.5106400000000  0.4432630000000 1.0
C      1  0.4434690000000  0.5288890000000  0.4894190000000 1.0
C      1  0.5566490000000  0.5288890000000  0.5102880000000 1.0
C      1  0.5566490000000  0.4715220000000  0.4894190000000 1.0
C      1  0.4405950000000  0.4933630000000  0.4553400000000 1.0
C      1  0.4555460000000  0.4407420000000  0.4930110000000 1.0
C      1  0.4932160000000  0.4556930000000  0.4403890000000 1.0
C      1  0.4405950000000  0.5070480000000  0.5443660000000 1.0
C      1  0.5595230000000  0.5070480000000  0.4553400000000 1.0
C      1  0.5595230000000  0.4933630000000  0.5443660000000 1.0
C      1  0.4555460000000  0.5596700000000  0.5066960000000 1.0
C      1  0.5445720000000  0.5596700000000  0.4930110000000 1.0
C      1  0.5445720000000  0.4407420000000  0.5066960000000 1.0
C      1  0.4932160000000  0.5447190000000  0.5593170000000 1.0
C      1  0.5069010000000  0.5447190000000  0.4403890000000 1.0
C      1  0.5069010000000  0.4556930000000  0.5593170000000 1.0
C      1  0.5595230000000  0.4933630000000  0.4553400000000 1.0
C      1  0.5445720000000  0.4407420000000  0.4930110000000 1.0
C      1  0.5069010000000  0.4556930000000  0.4403890000000 1.0
C      1  0.5595230000000  0.5070480000000  0.5443660000000 1.0
C      1  0.4405950000000  0.5070480000000  0.4553400000000 1.0
C      1  0.4405950000000  0.4933630000000  0.5443660000000 1.0
C      1  0.5445720000000  0.5596700000000  0.5066960000000 1.0
C      1  0.4555460000000  0.5596700000000  0.4930110000000 1.0
C      1  0.4555460000000  0.4407420000000  0.5066960000000 1.0
C      1  0.5069010000000  0.5447190000000  0.5593170000000 1.0
C      1  0.4932160000000  0.5447190000000  0.4403890000000 1.0
C      1  0.4932160000000  0.4556930000000  0.5593170000000 1.0
C      1  0.5164890000000  0.4873800000000  0.5765010000000 1.0
C      1  0.5767070000000  0.5166350000000  0.4870270000000 1.0
C      1  0.4872330000000  0.5768540000000  0.5162830000000 1.0
C      1  0.5164890000000  0.5130320000000  0.4232050000000 1.0
C      1  0.4836290000000  0.5130320000000  0.5765010000000 1.0
C      1  0.4836290000000  0.4873800000000  0.4232050000000 1.0
C      1  0.5767070000000  0.4837760000000  0.5126790000000 1.0
C      1  0.4234110000000  0.4837760000000  0.4870270000000 1.0
C      1  0.4234110000000  0.5166350000000  0.5126790000000 1.0
C      1  0.4872330000000  0.4235570000000  0.4834230000000 1.0
C      1  0.5128850000000  0.4235570000000  0.5162830000000 1.0
C      1  0.5128850000000  0.5768540000000  0.4834230000000 1.0
C      1  0.4836290000000  0.4873800000000  0.5765010000000 1.0
C      1  0.4234110000000  0.5166350000000  0.4870270000000 1.0
C      1  0.5128850000000  0.5768540000000  0.5162830000000 1.0
C      1  0.4836290000000  0.5130320000000  0.4232050000000 1.0
C      1  0.5164890000000  0.5130320000000  0.5765010000000 1.0
C      1  0.5164890000000  0.4873800000000  0.4232050000000 1.0
C      1  0.4234110000000  0.4837760000000  0.5126790000000 1.0
C      1  0.5767070000000  0.4837760000000  0.4870270000000 1.0
C      1  0.5767070000000  0.5166350000000  0.5126790000000 1.0
C      1  0.5128850000000  0.4235570000000  0.4834230000000 1.0
C      1  0.4872330000000  0.4235570000000  0.5162830000000 1.0
C      1  0.4872330000000  0.5768540000000  0.4834230000000 1.0
C      1  0.4336150000000  0.4626110000000  0.4840780000000 1.0
C      1  0.4842840000000  0.4337620000000  0.4622580000000 1.0
C      1  0.4624640000000  0.4844310000000  0.4334090000000 1.0
C      1  0.4336150000000  0.5378010000000  0.5156280000000 1.0
C      1  0.5665030000000  0.5378010000000  0.4840780000000 1.0
C      1  0.5665030000000  0.4626110000000  0.5156280000000 1.0
C      1  0.4842840000000  0.5666500000000  0.5374480000000 1.0
C      1  0.5158340000000  0.5666500000000  0.4622580000000 1.0
C      1  0.5158340000000  0.4337620000000  0.5374480000000 1.0
C      1  0.4624640000000  0.5159810000000  0.5662970000000 1.0
C      1  0.5376540000000  0.5159810000000  0.4334090000000 1.0
C      1  0.5376540000000  0.4844310000000  0.5662970000000 1.0
C      1  0.5665030000000  0.4626110000000  0.4840780000000 1.0
C      1  0.5158340000000  0.4337620000000  0.4622580000000 1.0
C      1  0.5376540000000  0.4844310000000  0.4334090000000 1.0
C      1  0.5665030000000  0.5378010000000  0.5156280000000 1.0
C      1  0.4336150000000  0.5378010000000  0.4840780000000 1.0
C      1  0.4336150000000  0.4626110000000  0.5156280000000 1.0
C      1  0.5158340000000  0.5666500000000  0.5374480000000 1.0
C      1  0.4842840000000  0.5666500000000  0.4622580000000 1.0
C      1  0.4842840000000  0.4337620000000  0.5374480000000 1.0
C      1  0.5376540000000  0.5159810000000  0.5662970000000 1.0
C      1  0.4624640000000  0.5159810000000  0.4334090000000 1.0
C      1  0.4624640000000  0.4844310000000  0.5662970000000 1.0
C      1  0.4852360000000  0.4922410000000  0.5614620000000 1.0
C      1  0.5616680000000  0.4853830000000  0.4918880000000 1.0
C      1  0.4920940000000  0.5618150000000  0.4850300000000 1.0
C      1  0.4852360000000  0.5081710000000  0.4382440000000 1.0
C      1  0.5148820000000  0.5081710000000  0.5614620000000 1.0
C      1  0.5148820000000  0.4922410000000  0.4382440000000 1.0
C      1  0.5616680000000  0.5150290000000  0.5078180000000 1.0
C      1  0.4384500000000  0.5150290000000  0.4918880000000 1.0
C      1  0.4384500000000  0.4853830000000  0.5078180000000 1.0
C      1  0.4920940000000  0.4385970000000  0.5146760000000 1.0
C      1  0.5080240000000  0.4385970000000  0.4850300000000 1.0
C      1  0.5080240000000  0.5618150000000  0.5146760000000 1.0
C      1  0.5148820000000  0.4922410000000  0.5614620000000 1.0
C      1  0.4384500000000  0.4853830000000  0.4918880000000 1.0
C      1  0.5080240000000  0.5618150000000  0.4850300000000 1.0
C      1  0.5148820000000  0.5081710000000  0.4382440000000 1.0
C      1  0.4852360000000  0.5081710000000  0.5614620000000 1.0
C      1  0.4852360000000  0.4922410000000  0.4382440000000 1.0
C      1  0.4384500000000  0.5150290000000  0.5078180000000 1.0
C      1  0.5616680000000  0.5150290000000  0.4918880000000 1.0
C      1  0.5616680000000  0.4853830000000  0.5078180000000 1.0
C      1  0.5080240000000  0.4385970000000  0.5146760000000 1.0
C      1  0.4920940000000  0.4385970000000  0.4850300000000 1.0
C      1  0.4920940000000  0.5618150000000  0.5146760000000 1.0
C      1  0.4738030000000  0.5382630000000  0.5579390000000 1.0
C      1  0.5581440000000  0.4739500000000  0.5379100000000 1.0
C      1  0.5381160000000  0.5582910000000  0.4735970000000 1.0
C      1  0.4738030000000  0.4621490000000  0.4417680000000 1.0
C      1  0.5263150000000  0.4621490000000  0.5579390000000 1.0
C      1  0.5263150000000  0.5382630000000  0.4417680000000 1.0
C      1  0.5581440000000  0.5264620000000  0.4617960000000 1.0
C      1  0.4419730000000  0.5264620000000  0.5379100000000 1.0
C      1  0.4419730000000  0.4739500000000  0.4617960000000 1.0
C      1  0.5381160000000  0.4421200000000  0.5261090000000 1.0
C      1  0.4620020000000  0.4421200000000  0.4735970000000 1.0
C      1  0.4620020000000  0.5582910000000  0.5261090000000 1.0
C      1  0.5263150000000  0.5382630000000  0.5579390000000 1.0
C      1  0.4419730000000  0.4739500000000  0.5379100000000 1.0
C      1  0.4620020000000  0.5582910000000  0.4735970000000 1.0
C      1  0.5263150000000  0.4621490000000  0.4417680000000 1.0
C      1  0.4738030000000  0.4621490000000  0.5579390000000 1.0
C      1  0.4738030000000  0.5382630000000  0.4417680000000 1.0
C      1  0.4419730000000  0.5264620000000  0.4617960000000 1.0
C      1  0.5581440000000  0.5264620000000  0.5379100000000 1.0
C      1  0.5581440000000  0.4739500000000  0.4617960000000 1.0
C      1  0.4620020000000  0.4421200000000  0.5261090000000 1.0
C      1  0.5381160000000  0.4421200000000  0.4735970000000 1.0
C      1  0.5381160000000  0.5582910000000  0.5261090000000 1.0
C      1  0.5776390000000  0.4706350000000  0.4843230000000 1.0
C      1  0.4845290000000  0.5777860000000  0.4702820000000 1.0
C      1  0.4704880000000  0.4846760000000  0.5774330000000 1.0
C      1  0.5776390000000  0.5297770000000  0.5153830000000 1.0
C      1  0.4224790000000  0.5297770000000  0.4843230000000 1.0
C      1  0.4224790000000  0.4706350000000  0.5153830000000 1.0
C      1  0.4845290000000  0.4226260000000  0.5294240000000 1.0
C      1  0.5155890000000  0.4226260000000  0.4702820000000 1.0
C      1  0.5155890000000  0.5777860000000  0.5294240000000 1.0
C      1  0.4704880000000  0.5157360000000  0.4222730000000 1.0
C      1  0.5296300000000  0.5157360000000  0.5774330000000 1.0
C      1  0.5296300000000  0.4846760000000  0.4222730000000 1.0
C      1  0.4224790000000  0.4706350000000  0.4843230000000 1.0
C      1  0.5155890000000  0.5777860000000  0.4702820000000 1.0
C      1  0.5296300000000  0.4846760000000  0.5774330000000 1.0
C      1  0.4224790000000  0.5297770000000  0.5153830000000 1.0
C      1  0.5776390000000  0.5297770000000  0.4843230000000 1.0
C      1  0.5776390000000  0.4706350000000  0.5153830000000 1.0
C      1  0.5155890000000  0.4226260000000  0.5294240000000 1.0
C      1  0.4845290000000  0.4226260000000  0.4702820000000 1.0
C      1  0.4845290000000  0.5777860000000  0.5294240000000 1.0
C      1  0.5296300000000  0.5157360000000  0.4222730000000 1.0
C      1  0.4704880000000  0.5157360000000  0.5774330000000 1.0
C      1  0.4704880000000  0.4846760000000  0.4222730000000 1.0
C      1  0.5075590000000  0.4145720000000  0.4926720000000 1.0
C      1  0.4928770000000  0.5077050000000  0.4142190000000 1.0
C      1  0.4144250000000  0.4930240000000  0.5073530000000 1.0
C      1  0.5075590000000  0.5858400000000  0.5070350000000 1.0
C      1  0.4925590000000  0.5858400000000  0.4926720000000 1.0
C      1  0.4925590000000  0.4145720000000  0.5070350000000 1.0
C      1  0.4928770000000  0.4927060000000  0.5854870000000 1.0
C      1  0.5072400000000  0.4927060000000  0.4142190000000 1.0
C      1  0.5072400000000  0.5077050000000  0.5854870000000 1.0
C      1  0.4144250000000  0.5073870000000  0.4923530000000 1.0
C      1  0.5856930000000  0.5073870000000  0.5073530000000 1.0
C      1  0.5856930000000  0.4930240000000  0.4923530000000 1.0
C      1  0.4925590000000  0.4145720000000  0.4926720000000 1.0
C      1  0.5072400000000  0.5077050000000  0.4142190000000 1.0
C      1  0.5856930000000  0.4930240000000  0.5073530000000 1.0
C      1  0.4925590000000  0.5858400000000  0.5070350000000 1.0
C      1  0.5075590000000  0.5858400000000  0.4926720000000 1.0
C      1  0.5075590000000  0.4145720000000  0.5070350000000 1.0
C      1  0.5072400000000  0.4927060000000  0.5854870000000 1.0
C      1  0.4928770000000  0.4927060000000  0.4142190000000 1.0
C      1  0.4928770000000  0.5077050000000  0.5854870000000 1.0
C      1  0.5856930000000  0.5073870000000  0.4923530000000 1.0
C      1  0.4144250000000  0.5073870000000  0.5073530000000 1.0
C      1  0.4144250000000  0.4930240000000  0.4923530000000 1.0
C      1  0.5481250000000  0.5321820000000  0.4998530000000 1.0
C      1  0.5000590000000  0.5482720000000  0.5318290000000 1.0
C      1  0.5320350000000  0.5002060000000  0.4517870000000 1.0
C      1  0.4680830000000  0.5002060000000  0.5479190000000 1.0
C      1  0.5481250000000  0.4682300000000  0.4998530000000 1.0
C      1  0.4519930000000  0.4682300000000  0.4998530000000 1.0
C      1  0.4519930000000  0.5321820000000  0.4998530000000 1.0
C      1  0.5000590000000  0.4521400000000  0.4678770000000 1.0
C      1  0.5000590000000  0.4521400000000  0.5318290000000 1.0
C      1  0.5000590000000  0.5482720000000  0.4678770000000 1.0
C      1  0.5320350000000  0.5002060000000  0.5479190000000 1.0
C      1  0.4680830000000  0.5002060000000  0.4517870000000 1.0
C      1  0.4558450000000  0.4559920000000  0.5440670000000 1.0
C      1  0.4558450000000  0.5444200000000  0.4556390000000 1.0
C      1  0.5442730000000  0.4559920000000  0.4556390000000 1.0
C      1  0.5442730000000  0.4559920000000  0.5440670000000 1.0
C      1  0.5442730000000  0.5444200000000  0.4556390000000 1.0
C      1  0.4558450000000  0.5444200000000  0.5440670000000 1.0
C      1  0.5442730000000  0.5444200000000  0.5440670000000 1.0
C      1  0.4558450000000  0.4559920000000  0.4556390000000 1.0
END
