TITL C-1887015-2101-79 8.06644806729083e-07 1000000 -3030.98019168701 0 0 440 (Th) n - 1
REM
REM in /nfs/bkarasulu/CARBON/AIRSS/Generating-Clusters/GAP-ML-2020/Higher-Symm/Selected-Sizes/TryA-Only_Ih-Symm/Larger-Clusters
REM
REM
REM
REM
REM
REM ./C.cell (2cf5181f0f1d4d5b12b972d32ad12063)
REM
REM compiler GCC version 9.2.1 20190827 (Red Hat 9.2.1-1)
REM options -cpp -mtune=generic -march=x86-64 -g -O0 -fpre-include=/usr/include/finclude/math-vector-fortran.h
REM seed 1794246822 -533433199 -2018217785 -1703448057 511058302 -112699696 530044867 -60764578 1338011666 -313575041 -1474250870 732606191 -120791953 -2053560719 671277641 -1252353371 -2042209276 -1164231420 722421172 605993613 -1720270203 1253998358 1234763659 508967824 -213760666 -1672431650 1235367102 1469016162 -781979822 -1049531372 389030131 -334093722 769408616
REM
CELL 1.54180  100.00000  100.00000  100.00000   90.00000   90.00000   90.00000
LATT -1
SFAC C  
C      1  0.5660920000000  0.4468640000000  0.4811710000000 1.0
C      1  0.4466490000000  0.4813930000000  0.5660850000000 1.0
C      1  0.4811780000000  0.5663070000000  0.4466420000000 1.0
C      1  0.5660920000000  0.5531500000000  0.5183990000000 1.0
C      1  0.4334920000000  0.4468640000000  0.5183990000000 1.0
C      1  0.4334920000000  0.5531500000000  0.4811710000000 1.0
C      1  0.4466490000000  0.5186210000000  0.4334850000000 1.0
C      1  0.5529350000000  0.4813930000000  0.4334850000000 1.0
C      1  0.5529350000000  0.5186210000000  0.5660850000000 1.0
C      1  0.4811780000000  0.4337070000000  0.5529280000000 1.0
C      1  0.5184060000000  0.5663070000000  0.5529280000000 1.0
C      1  0.5184060000000  0.4337070000000  0.4466420000000 1.0
C      1  0.4334920000000  0.4468640000000  0.4811710000000 1.0
C      1  0.5529350000000  0.4813930000000  0.5660850000000 1.0
C      1  0.5184060000000  0.5663070000000  0.4466420000000 1.0
C      1  0.4334920000000  0.5531500000000  0.5183990000000 1.0
C      1  0.5660920000000  0.4468640000000  0.5183990000000 1.0
C      1  0.5660920000000  0.5531500000000  0.4811710000000 1.0
C      1  0.5529350000000  0.5186210000000  0.4334850000000 1.0
C      1  0.4466490000000  0.4813930000000  0.4334850000000 1.0
C      1  0.4466490000000  0.5186210000000  0.5660850000000 1.0
C      1  0.5184060000000  0.4337070000000  0.5529280000000 1.0
C      1  0.4811780000000  0.5663070000000  0.5529280000000 1.0
C      1  0.4811780000000  0.4337070000000  0.4466420000000 1.0
C      1  0.4873630000000  0.5444020000000  0.5355950000000 1.0
C      1  0.5441870000000  0.5358170000000  0.4873560000000 1.0
C      1  0.5356020000000  0.4875780000000  0.5441800000000 1.0
C      1  0.4873630000000  0.4556120000000  0.4639750000000 1.0
C      1  0.5122210000000  0.5444020000000  0.4639750000000 1.0
C      1  0.5122210000000  0.4556120000000  0.5355950000000 1.0
C      1  0.5441870000000  0.4641970000000  0.5122140000000 1.0
C      1  0.4553970000000  0.5358170000000  0.5122140000000 1.0
C      1  0.4553970000000  0.4641970000000  0.4873560000000 1.0
C      1  0.5356020000000  0.5124360000000  0.4553900000000 1.0
C      1  0.4639820000000  0.4875780000000  0.4553900000000 1.0
C      1  0.4639820000000  0.5124360000000  0.5441800000000 1.0
C      1  0.5122210000000  0.5444020000000  0.5355950000000 1.0
C      1  0.4553970000000  0.5358170000000  0.4873560000000 1.0
C      1  0.4639820000000  0.4875780000000  0.5441800000000 1.0
C      1  0.5122210000000  0.4556120000000  0.4639750000000 1.0
C      1  0.4873630000000  0.5444020000000  0.4639750000000 1.0
C      1  0.4873630000000  0.4556120000000  0.5355950000000 1.0
C      1  0.4553970000000  0.4641970000000  0.5122140000000 1.0
C      1  0.5441870000000  0.5358170000000  0.5122140000000 1.0
C      1  0.5441870000000  0.4641970000000  0.4873560000000 1.0
C      1  0.4639820000000  0.5124360000000  0.4553900000000 1.0
C      1  0.5356020000000  0.4875780000000  0.4553900000000 1.0
C      1  0.5356020000000  0.5124360000000  0.5441800000000 1.0
C      1  0.4695500000000  0.4925110000000  0.5755570000000 1.0
C      1  0.4922960000000  0.5757790000000  0.4695430000000 1.0
C      1  0.5755640000000  0.4697650000000  0.4922900000000 1.0
C      1  0.4695500000000  0.5075020000000  0.4240130000000 1.0
C      1  0.5300340000000  0.4925110000000  0.4240130000000 1.0
C      1  0.5300340000000  0.5075020000000  0.5755570000000 1.0
C      1  0.4922960000000  0.4242350000000  0.5300270000000 1.0
C      1  0.5072870000000  0.5757790000000  0.5300270000000 1.0
C      1  0.5072870000000  0.4242350000000  0.4695430000000 1.0
C      1  0.5755640000000  0.5302490000000  0.5072810000000 1.0
C      1  0.4240200000000  0.4697650000000  0.5072810000000 1.0
C      1  0.4240200000000  0.5302490000000  0.4922900000000 1.0
C      1  0.5300340000000  0.4925110000000  0.5755570000000 1.0
C      1  0.5072870000000  0.5757790000000  0.4695430000000 1.0
C      1  0.4240200000000  0.4697650000000  0.4922900000000 1.0
C      1  0.5300340000000  0.5075020000000  0.4240130000000 1.0
C      1  0.4695500000000  0.4925110000000  0.4240130000000 1.0
C      1  0.4695500000000  0.5075020000000  0.5755570000000 1.0
C      1  0.5072870000000  0.4242350000000  0.5300270000000 1.0
C      1  0.4922960000000  0.5757790000000  0.5300270000000 1.0
C      1  0.4922960000000  0.4242350000000  0.4695430000000 1.0
C      1  0.4240200000000  0.5302490000000  0.5072810000000 1.0
C      1  0.5755640000000  0.4697650000000  0.5072810000000 1.0
C      1  0.5755640000000  0.5302490000000  0.4922900000000 1.0
C      1  0.4816210000000  0.5475540000000  0.4925360000000 1.0
C      1  0.5473390000000  0.4927580000000  0.4816140000000 1.0
C      1  0.4925430000000  0.4818360000000  0.5473320000000 1.0
C      1  0.4816210000000  0.4524600000000  0.5070340000000 1.0
C      1  0.5179630000000  0.5475540000000  0.5070340000000 1.0
C      1  0.5179630000000  0.4524600000000  0.4925360000000 1.0
C      1  0.5473390000000  0.5072560000000  0.5179560000000 1.0
C      1  0.4522450000000  0.4927580000000  0.5179560000000 1.0
C      1  0.4522450000000  0.5072560000000  0.4816140000000 1.0
C      1  0.4925430000000  0.5181780000000  0.4522380000000 1.0
C      1  0.5070410000000  0.4818360000000  0.4522380000000 1.0
C      1  0.5070410000000  0.5181780000000  0.5473320000000 1.0
C      1  0.5179630000000  0.5475540000000  0.4925360000000 1.0
C      1  0.4522450000000  0.4927580000000  0.4816140000000 1.0
C      1  0.5070410000000  0.4818360000000  0.5473320000000 1.0
C      1  0.5179630000000  0.4524600000000  0.5070340000000 1.0
C      1  0.4816210000000  0.5475540000000  0.5070340000000 1.0
C      1  0.4816210000000  0.4524600000000  0.4925360000000 1.0
C      1  0.4522450000000  0.5072560000000  0.5179560000000 1.0
C      1  0.5473390000000  0.4927580000000  0.5179560000000 1.0
C      1  0.5473390000000  0.5072560000000  0.4816140000000 1.0
C      1  0.5070410000000  0.5181780000000  0.4522380000000 1.0
C      1  0.4925430000000  0.4818360000000  0.4522380000000 1.0
C      1  0.4925430000000  0.5181780000000  0.5473320000000 1.0
C      1  0.5565210000000  0.4927870000000  0.4412660000000 1.0
C      1  0.4925720000000  0.4414870000000  0.5565140000000 1.0
C      1  0.4412720000000  0.5567360000000  0.4925650000000 1.0
C      1  0.5565210000000  0.5072270000000  0.5583050000000 1.0
C      1  0.4430630000000  0.4927870000000  0.5583050000000 1.0
C      1  0.4430630000000  0.5072270000000  0.4412650000000 1.0
C      1  0.4925720000000  0.5585260000000  0.4430560000000 1.0
C      1  0.5070120000000  0.4414870000000  0.4430560000000 1.0
C      1  0.5070120000000  0.5585270000000  0.5565140000000 1.0
C      1  0.4412720000000  0.4432780000000  0.5070050000000 1.0
C      1  0.5583120000000  0.5567360000000  0.5070050000000 1.0
C      1  0.5583110000000  0.4432780000000  0.4925650000000 1.0
C      1  0.4430630000000  0.4927870000000  0.4412650000000 1.0
C      1  0.5070120000000  0.4414870000000  0.5565140000000 1.0
C      1  0.5583120000000  0.5567360000000  0.4925650000000 1.0
C      1  0.4430630000000  0.5072270000000  0.5583050000000 1.0
C      1  0.5565210000000  0.4927870000000  0.5583050000000 1.0
C      1  0.5565210000000  0.5072270000000  0.4412660000000 1.0
C      1  0.5070120000000  0.5585260000000  0.4430560000000 1.0
C      1  0.4925720000000  0.4414870000000  0.4430560000000 1.0
C      1  0.4925720000000  0.5585270000000  0.5565140000000 1.0
C      1  0.5583110000000  0.4432780000000  0.5070050000000 1.0
C      1  0.4412720000000  0.5567360000000  0.5070050000000 1.0
C      1  0.4412720000000  0.4432780000000  0.4925650000000 1.0
C      1  0.4402970000000  0.5175050000000  0.4780150000000 1.0
C      1  0.5172900000000  0.4782370000000  0.4402900000000 1.0
C      1  0.4780220000000  0.4405120000000  0.5172830000000 1.0
C      1  0.4402970000000  0.4825090000000  0.5215550000000 1.0
C      1  0.5592870000000  0.5175050000000  0.5215550000000 1.0
C      1  0.5592870000000  0.4825090000000  0.4780150000000 1.0
C      1  0.5172900000000  0.5217770000000  0.5592800000000 1.0
C      1  0.4822940000000  0.4782370000000  0.5592800000000 1.0
C      1  0.4822940000000  0.5217770000000  0.4402900000000 1.0
C      1  0.4780220000000  0.5595020000000  0.4822870000000 1.0
C      1  0.5215620000000  0.4405120000000  0.4822870000000 1.0
C      1  0.5215620000000  0.5595020000000  0.5172830000000 1.0
C      1  0.5592870000000  0.5175050000000  0.4780150000000 1.0
C      1  0.4822940000000  0.4782370000000  0.4402900000000 1.0
C      1  0.5215620000000  0.4405120000000  0.5172830000000 1.0
C      1  0.5592870000000  0.4825090000000  0.5215550000000 1.0
C      1  0.4402970000000  0.5175050000000  0.5215550000000 1.0
C      1  0.4402970000000  0.4825090000000  0.4780150000000 1.0
C      1  0.4822940000000  0.5217770000000  0.5592800000000 1.0
C      1  0.5172900000000  0.4782370000000  0.5592800000000 1.0
C      1  0.5172900000000  0.5217770000000  0.4402900000000 1.0
C      1  0.5215620000000  0.5595020000000  0.4822870000000 1.0
C      1  0.4780220000000  0.4405120000000  0.4822870000000 1.0
C      1  0.4780220000000  0.5595020000000  0.5172830000000 1.0
C      1  0.4851100000000  0.4669520000000  0.4717870000000 1.0
C      1  0.4667370000000  0.4720080000000  0.4851030000000 1.0
C      1  0.4717940000000  0.4853250000000  0.4667300000000 1.0
C      1  0.4851100000000  0.5330620000000  0.5277830000000 1.0
C      1  0.5144740000000  0.4669510000000  0.5277830000000 1.0
C      1  0.5144740000000  0.5330620000000  0.4717870000000 1.0
C      1  0.4667370000000  0.5280050000000  0.5144670000000 1.0
C      1  0.5328470000000  0.4720080000000  0.5144670000000 1.0
C      1  0.5328470000000  0.5280050000000  0.4851030000000 1.0
C      1  0.4717940000000  0.5146890000000  0.5328400000000 1.0
C      1  0.5277900000000  0.4853250000000  0.5328400000000 1.0
C      1  0.5277900000000  0.5146890000000  0.4667300000000 1.0
C      1  0.5144740000000  0.4669520000000  0.4717870000000 1.0
C      1  0.5328470000000  0.4720080000000  0.4851030000000 1.0
C      1  0.5277900000000  0.4853250000000  0.4667300000000 1.0
C      1  0.5144740000000  0.5330620000000  0.5277830000000 1.0
C      1  0.4851100000000  0.4669520000000  0.5277830000000 1.0
C      1  0.4851100000000  0.5330620000000  0.4717870000000 1.0
C      1  0.5328470000000  0.5280050000000  0.5144670000000 1.0
C      1  0.4667370000000  0.4720080000000  0.5144670000000 1.0
C      1  0.4667360000000  0.5280050000000  0.4851030000000 1.0
C      1  0.5277900000000  0.5146890000000  0.5328400000000 1.0
C      1  0.4717940000000  0.4853250000000  0.5328410000000 1.0
C      1  0.4717930000000  0.5146890000000  0.4667300000000 1.0
C      1  0.4928310000000  0.4467130000000  0.5720190000000 1.0
C      1  0.4464980000000  0.5722410000000  0.4928240000000 1.0
C      1  0.5720260000000  0.4930460000000  0.4464910000000 1.0
C      1  0.4928310000000  0.5533010000000  0.4275510000000 1.0
C      1  0.5067530000000  0.4467130000000  0.4275510000000 1.0
C      1  0.5067530000000  0.5533010000000  0.5720190000000 1.0
C      1  0.4464980000000  0.4277730000000  0.5067460000000 1.0
C      1  0.5530860000000  0.5722410000000  0.5067460000000 1.0
C      1  0.5530860000000  0.4277730000000  0.4928240000000 1.0
C      1  0.5720260000000  0.5069680000000  0.5530790000000 1.0
C      1  0.4275580000000  0.4930460000000  0.5530790000000 1.0
C      1  0.4275580000000  0.5069680000000  0.4464910000000 1.0
C      1  0.5067530000000  0.4467130000000  0.5720190000000 1.0
C      1  0.5530860000000  0.5722410000000  0.4928240000000 1.0
C      1  0.4275580000000  0.4930460000000  0.4464910000000 1.0
C      1  0.5067530000000  0.5533010000000  0.4275510000000 1.0
C      1  0.4928310000000  0.4467130000000  0.4275510000000 1.0
C      1  0.4928310000000  0.5533010000000  0.5720190000000 1.0
C      1  0.5530860000000  0.4277730000000  0.5067460000000 1.0
C      1  0.4464980000000  0.5722410000000  0.5067460000000 1.0
C      1  0.4464980000000  0.4277730000000  0.4928240000000 1.0
C      1  0.4275580000000  0.5069680000000  0.5530790000000 1.0
C      1  0.5720260000000  0.4930460000000  0.5530790000000 1.0
C      1  0.5720260000000  0.5069680000000  0.4464910000000 1.0
C      1  0.4852370000000  0.5737400000000  0.5172310000000 1.0
C      1  0.5735250000000  0.5174520000000  0.4852300000000 1.0
C      1  0.5172380000000  0.4854520000000  0.5735190000000 1.0
C      1  0.4852370000000  0.4262730000000  0.4823390000000 1.0
C      1  0.5143470000000  0.5737400000000  0.4823390000000 1.0
C      1  0.5143470000000  0.4262730000000  0.5172310000000 1.0
C      1  0.5735250000000  0.4825610000000  0.5143400000000 1.0
C      1  0.4260580000000  0.5174520000000  0.5143400000000 1.0
C      1  0.4260580000000  0.4825610000000  0.4852300000000 1.0
C      1  0.5172380000000  0.5145620000000  0.4260520000000 1.0
C      1  0.4823460000000  0.4854520000000  0.4260520000000 1.0
C      1  0.4823460000000  0.5145620000000  0.5735190000000 1.0
C      1  0.5143470000000  0.5737400000000  0.5172310000000 1.0
C      1  0.4260580000000  0.5174520000000  0.4852300000000 1.0
C      1  0.4823460000000  0.4854520000000  0.5735190000000 1.0
C      1  0.5143470000000  0.4262730000000  0.4823390000000 1.0
C      1  0.4852370000000  0.5737400000000  0.4823390000000 1.0
C      1  0.4852370000000  0.4262730000000  0.5172310000000 1.0
C      1  0.4260590000000  0.4825610000000  0.5143400000000 1.0
C      1  0.5735250000000  0.5174520000000  0.5143400000000 1.0
C      1  0.5735250000000  0.4825610000000  0.4852300000000 1.0
C      1  0.4823460000000  0.5145620000000  0.4260520000000 1.0
C      1  0.5172380000000  0.4854520000000  0.4260520000000 1.0
C      1  0.5172380000000  0.5145620000000  0.5735180000000 1.0
C      1  0.5191170000000  0.5374270000000  0.4412720000000 1.0
C      1  0.5372120000000  0.4414940000000  0.5191100000000 1.0
C      1  0.4412790000000  0.5193320000000  0.5372050000000 1.0
C      1  0.5191170000000  0.4625870000000  0.5582980000000 1.0
C      1  0.4804670000000  0.5374270000000  0.5582980000000 1.0
C      1  0.4804670000000  0.4625870000000  0.4412720000000 1.0
C      1  0.5372120000000  0.5585200000000  0.4804600000000 1.0
C      1  0.4623720000000  0.4414940000000  0.4804600000000 1.0
C      1  0.4623720000000  0.5585200000000  0.5191100000000 1.0
C      1  0.4412790000000  0.4806820000000  0.4623650000000 1.0
C      1  0.5583050000000  0.5193320000000  0.4623650000000 1.0
C      1  0.5583050000000  0.4806820000000  0.5372050000000 1.0
C      1  0.4804670000000  0.5374270000000  0.4412720000000 1.0
C      1  0.4623720000000  0.4414940000000  0.5191100000000 1.0
C      1  0.5583050000000  0.5193320000000  0.5372050000000 1.0
C      1  0.4804670000000  0.4625870000000  0.5582980000000 1.0
C      1  0.5191170000000  0.5374270000000  0.5582980000000 1.0
C      1  0.5191170000000  0.4625870000000  0.4412720000000 1.0
C      1  0.4623720000000  0.5585200000000  0.4804600000000 1.0
C      1  0.5372120000000  0.4414940000000  0.4804600000000 1.0
C      1  0.5372120000000  0.5585200000000  0.5191100000000 1.0
C      1  0.5583050000000  0.4806820000000  0.4623650000000 1.0
C      1  0.4412790000000  0.5193320000000  0.4623650000000 1.0
C      1  0.4412790000000  0.4806820000000  0.5372050000000 1.0
C      1  0.5190060000000  0.4521800000000  0.5697420000000 1.0
C      1  0.4519650000000  0.5699640000000  0.5189990000000 1.0
C      1  0.5697490000000  0.5192210000000  0.4519580000000 1.0
C      1  0.5190060000000  0.5478340000000  0.4298280000000 1.0
C      1  0.4805780000000  0.4521800000000  0.4298280000000 1.0
C      1  0.4805780000000  0.5478340000000  0.5697420000000 1.0
C      1  0.4519650000000  0.4300500000000  0.4805710000000 1.0
C      1  0.5476190000000  0.5699640000000  0.4805710000000 1.0
C      1  0.5476190000000  0.4300500000000  0.5189990000000 1.0
C      1  0.5697490000000  0.4807930000000  0.5476120000000 1.0
C      1  0.4298350000000  0.5192210000000  0.5476120000000 1.0
C      1  0.4298350000000  0.4807930000000  0.4519580000000 1.0
C      1  0.4805780000000  0.4521800000000  0.5697420000000 1.0
C      1  0.5476190000000  0.5699640000000  0.5189990000000 1.0
C      1  0.4298350000000  0.5192210000000  0.4519580000000 1.0
C      1  0.4805780000000  0.5478340000000  0.4298280000000 1.0
C      1  0.5190060000000  0.4521800000000  0.4298280000000 1.0
C      1  0.5190060000000  0.5478340000000  0.5697420000000 1.0
C      1  0.5476190000000  0.4300500000000  0.4805710000000 1.0
C      1  0.4519650000000  0.5699640000000  0.4805710000000 1.0
C      1  0.4519650000000  0.4300500000000  0.5189990000000 1.0
C      1  0.4298350000000  0.4807930000000  0.5476120000000 1.0
C      1  0.5697490000000  0.5192210000000  0.5476120000000 1.0
C      1  0.5697490000000  0.4807930000000  0.4519580000000 1.0
C      1  0.4497930000000  0.5078270000000  0.4557390000000 1.0
C      1  0.5076120000000  0.4559610000000  0.4497860000000 1.0
C      1  0.4557460000000  0.4500080000000  0.5076050000000 1.0
C      1  0.4497930000000  0.4921860000000  0.5438310000000 1.0
C      1  0.5497910000000  0.5078270000000  0.5438310000000 1.0
C      1  0.5497910000000  0.4921860000000  0.4557390000000 1.0
C      1  0.5076120000000  0.5440530000000  0.5497840000000 1.0
C      1  0.4919720000000  0.4559610000000  0.5497840000000 1.0
C      1  0.4919720000000  0.5440530000000  0.4497860000000 1.0
C      1  0.4557460000000  0.5500060000000  0.4919650000000 1.0
C      1  0.5438380000000  0.4500080000000  0.4919650000000 1.0
C      1  0.5438380000000  0.5500060000000  0.5076050000000 1.0
C      1  0.5497910000000  0.5078270000000  0.4557390000000 1.0
C      1  0.4919720000000  0.4559610000000  0.4497860000000 1.0
C      1  0.5438380000000  0.4500080000000  0.5076050000000 1.0
C      1  0.5497910000000  0.4921860000000  0.5438310000000 1.0
C      1  0.4497930000000  0.5078270000000  0.5438310000000 1.0
C      1  0.4497930000000  0.4921860000000  0.4557390000000 1.0
C      1  0.4919720000000  0.5440530000000  0.5497840000000 1.0
C      1  0.5076120000000  0.4559610000000  0.5497840000000 1.0
C      1  0.5076120000000  0.5440530000000  0.4497860000000 1.0
C      1  0.5438380000000  0.5500060000000  0.4919650000000 1.0
C      1  0.4557460000000  0.4500080000000  0.4919650000000 1.0
C      1  0.4557460000000  0.5500060000000  0.5076050000000 1.0
C      1  0.4791980000000  0.5350720000000  0.5148940000000 1.0
C      1  0.5348570000000  0.5151160000000  0.4791910000000 1.0
C      1  0.5149010000000  0.4794130000000  0.5348500000000 1.0
C      1  0.4791980000000  0.4649420000000  0.4846760000000 1.0
C      1  0.5203860000000  0.5350720000000  0.4846760000000 1.0
C      1  0.5203860000000  0.4649420000000  0.5148940000000 1.0
C      1  0.5348570000000  0.4848980000000  0.5203790000000 1.0
C      1  0.4647270000000  0.5151160000000  0.5203790000000 1.0
C      1  0.4647270000000  0.4848980000000  0.4791910000000 1.0
C      1  0.5149010000000  0.5206010000000  0.4647200000000 1.0
C      1  0.4846830000000  0.4794130000000  0.4647200000000 1.0
C      1  0.4846830000000  0.5206010000000  0.5348500000000 1.0
C      1  0.5203860000000  0.5350720000000  0.5148940000000 1.0
C      1  0.4647270000000  0.5151160000000  0.4791910000000 1.0
C      1  0.4846830000000  0.4794130000000  0.5348500000000 1.0
C      1  0.5203860000000  0.4649420000000  0.4846760000000 1.0
C      1  0.4791980000000  0.5350720000000  0.4846760000000 1.0
C      1  0.4791980000000  0.4649420000000  0.5148940000000 1.0
C      1  0.4647270000000  0.4848980000000  0.5203790000000 1.0
C      1  0.5348570000000  0.5151160000000  0.5203790000000 1.0
C      1  0.5348570000000  0.4848980000000  0.4791910000000 1.0
C      1  0.4846830000000  0.5206010000000  0.4647200000000 1.0
C      1  0.5149010000000  0.4794130000000  0.4647200000000 1.0
C      1  0.5149010000000  0.5206010000000  0.5348500000000 1.0
C      1  0.5276320000000  0.4428880000000  0.5589850000000 1.0
C      1  0.4426730000000  0.5592070000000  0.5276260000000 1.0
C      1  0.5589920000000  0.5278470000000  0.4426660000000 1.0
C      1  0.5276320000000  0.5571260000000  0.4405850000000 1.0
C      1  0.4719510000000  0.4428880000000  0.4405850000000 1.0
C      1  0.4719510000000  0.5571260000000  0.5589850000000 1.0
C      1  0.4426730000000  0.4408070000000  0.4719450000000 1.0
C      1  0.5569110000000  0.5592070000000  0.4719450000000 1.0
C      1  0.5569110000000  0.4408070000000  0.5276260000000 1.0
C      1  0.5589920000000  0.4721660000000  0.5569040000000 1.0
C      1  0.4405920000000  0.5278470000000  0.5569040000000 1.0
C      1  0.4405920000000  0.4721660000000  0.4426660000000 1.0
C      1  0.4719510000000  0.4428880000000  0.5589850000000 1.0
C      1  0.5569110000000  0.5592070000000  0.5276260000000 1.0
C      1  0.4405920000000  0.5278470000000  0.4426660000000 1.0
C      1  0.4719510000000  0.5571260000000  0.4405850000000 1.0
C      1  0.5276320000000  0.4428880000000  0.4405850000000 1.0
C      1  0.5276320000000  0.5571260000000  0.5589850000000 1.0
C      1  0.5569110000000  0.4408070000000  0.4719450000000 1.0
C      1  0.4426730000000  0.5592070000000  0.4719450000000 1.0
C      1  0.4426730000000  0.4408070000000  0.5276260000000 1.0
C      1  0.4405920000000  0.4721660000000  0.5569040000000 1.0
C      1  0.5589920000000  0.5278470000000  0.5569040000000 1.0
C      1  0.5589920000000  0.4721660000000  0.4426660000000 1.0
C      1  0.5154860000000  0.4317190000000  0.4604660000000 1.0
C      1  0.4315040000000  0.4606880000000  0.5154790000000 1.0
C      1  0.4604730000000  0.5157010000000  0.4314970000000 1.0
C      1  0.5154860000000  0.5682950000000  0.5391040000000 1.0
C      1  0.4840980000000  0.4317190000000  0.5391040000000 1.0
C      1  0.4840980000000  0.5682950000000  0.4604660000000 1.0
C      1  0.4315040000000  0.5393250000000  0.4840910000000 1.0
C      1  0.5680800000000  0.4606880000000  0.4840910000000 1.0
C      1  0.5680800000000  0.5393250000000  0.5154790000000 1.0
C      1  0.4604730000000  0.4843130000000  0.5680730000000 1.0
C      1  0.5391110000000  0.5157010000000  0.5680730000000 1.0
C      1  0.5391110000000  0.4843130000000  0.4314970000000 1.0
C      1  0.4840980000000  0.4317190000000  0.4604660000000 1.0
C      1  0.5680800000000  0.4606880000000  0.5154790000000 1.0
C      1  0.5391110000000  0.5157010000000  0.4314970000000 1.0
C      1  0.4840980000000  0.5682950000000  0.5391040000000 1.0
C      1  0.5154860000000  0.4317190000000  0.5391040000000 1.0
C      1  0.5154860000000  0.5682950000000  0.4604660000000 1.0
C      1  0.5680800000000  0.5393250000000  0.4840910000000 1.0
C      1  0.4315040000000  0.4606880000000  0.4840910000000 1.0
C      1  0.4315040000000  0.5393250000000  0.5154790000000 1.0
C      1  0.5391110000000  0.4843130000000  0.5680730000000 1.0
C      1  0.4604730000000  0.5157010000000  0.5680730000000 1.0
C      1  0.4604730000000  0.4843130000000  0.4314970000000 1.0
C      1  0.4205660000000  0.5071450000000  0.5073120000000 1.0
C      1  0.5069300000000  0.5075340000000  0.4205590000000 1.0
C      1  0.5073190000000  0.4207810000000  0.5069230000000 1.0
C      1  0.4205660000000  0.4928690000000  0.4922580000000 1.0
C      1  0.5790180000000  0.5071450000000  0.4922580000000 1.0
C      1  0.5790180000000  0.4928690000000  0.5073120000000 1.0
C      1  0.5069300000000  0.4924800000000  0.5790110000000 1.0
C      1  0.4926540000000  0.5075340000000  0.5790110000000 1.0
C      1  0.4926540000000  0.4924800000000  0.4205590000000 1.0
C      1  0.5073190000000  0.5792330000000  0.4926470000000 1.0
C      1  0.4922650000000  0.4207810000000  0.4926470000000 1.0
C      1  0.4922650000000  0.5792330000000  0.5069230000000 1.0
C      1  0.5790180000000  0.5071450000000  0.5073120000000 1.0
C      1  0.4926540000000  0.5075340000000  0.4205590000000 1.0
C      1  0.4922650000000  0.4207810000000  0.5069230000000 1.0
C      1  0.5790180000000  0.4928690000000  0.4922580000000 1.0
C      1  0.4205660000000  0.5071450000000  0.4922580000000 1.0
C      1  0.4205660000000  0.4928690000000  0.5073120000000 1.0
C      1  0.4926540000000  0.4924800000000  0.5790110000000 1.0
C      1  0.5069300000000  0.5075340000000  0.5790110000000 1.0
C      1  0.5069300000000  0.4924800000000  0.4205590000000 1.0
C      1  0.4922650000000  0.5792330000000  0.4926470000000 1.0
C      1  0.5073190000000  0.4207810000000  0.4926470000000 1.0
C      1  0.5073190000000  0.5792330000000  0.5069230000000 1.0
C      1  0.5562650000000  0.4686460000000  0.5162930000000 1.0
C      1  0.4684310000000  0.5165150000000  0.5562580000000 1.0
C      1  0.5163000000000  0.5564800000000  0.4684240000000 1.0
C      1  0.5562650000000  0.5313680000000  0.4832770000000 1.0
C      1  0.4433190000000  0.4686460000000  0.4832770000000 1.0
C      1  0.4433190000000  0.5313680000000  0.5162930000000 1.0
C      1  0.4684310000000  0.4834990000000  0.4433120000000 1.0
C      1  0.5311530000000  0.5165150000000  0.4433120000000 1.0
C      1  0.5311530000000  0.4834990000000  0.5562580000000 1.0
C      1  0.5163000000000  0.4435340000000  0.5311460000000 1.0
C      1  0.4832840000000  0.5564800000000  0.5311460000000 1.0
C      1  0.4832840000000  0.4435340000000  0.4684240000000 1.0
C      1  0.4433190000000  0.4686460000000  0.5162930000000 1.0
C      1  0.5311530000000  0.5165150000000  0.5562580000000 1.0
C      1  0.4832840000000  0.5564800000000  0.4684240000000 1.0
C      1  0.4433190000000  0.5313680000000  0.4832770000000 1.0
C      1  0.5562650000000  0.4686460000000  0.4832770000000 1.0
C      1  0.5562650000000  0.5313680000000  0.5162930000000 1.0
C      1  0.5311530000000  0.4834990000000  0.4433120000000 1.0
C      1  0.4684310000000  0.5165150000000  0.4433120000000 1.0
C      1  0.4684310000000  0.4834990000000  0.5562580000000 1.0
C      1  0.4832840000000  0.4435340000000  0.5311460000000 1.0
C      1  0.5163000000000  0.5564800000000  0.5311460000000 1.0
C      1  0.5163000000000  0.4435340000000  0.4684240000000 1.0
C      1  0.4543720000000  0.4470540000000  0.5321720000000 1.0
C      1  0.4468390000000  0.5323940000000  0.4543650000000 1.0
C      1  0.5321790000000  0.4545870000000  0.4468320000000 1.0
C      1  0.4543720000000  0.5529600000000  0.4673980000000 1.0
C      1  0.5452120000000  0.4470540000000  0.4673980000000 1.0
C      1  0.5452120000000  0.5529600000000  0.5321720000000 1.0
C      1  0.4468390000000  0.4676200000000  0.5452050000000 1.0
C      1  0.5527450000000  0.5323940000000  0.5452050000000 1.0
C      1  0.5527450000000  0.4676200000000  0.4543650000000 1.0
C      1  0.5321790000000  0.5454270000000  0.5527380000000 1.0
C      1  0.4674050000000  0.4545870000000  0.5527380000000 1.0
C      1  0.4674050000000  0.5454270000000  0.4468320000000 1.0
C      1  0.5452120000000  0.4470540000000  0.5321720000000 1.0
C      1  0.5527450000000  0.5323940000000  0.4543650000000 1.0
C      1  0.4674050000000  0.4545870000000  0.4468320000000 1.0
C      1  0.5452120000000  0.5529600000000  0.4673980000000 1.0
C      1  0.4543720000000  0.4470540000000  0.4673980000000 1.0
C      1  0.4543720000000  0.5529600000000  0.5321720000000 1.0
C      1  0.5527450000000  0.4676200000000  0.5452050000000 1.0
C      1  0.4468390000000  0.5323940000000  0.5452050000000 1.0
C      1  0.4468390000000  0.4676200000000  0.4543650000000 1.0
C      1  0.4674050000000  0.5454270000000  0.5527380000000 1.0
C      1  0.5321790000000  0.4545870000000  0.5527380000000 1.0
C      1  0.5321790000000  0.5454270000000  0.4468320000000 1.0
C      1  0.5430910000000  0.4567080000000  0.4564860000000 1.0
C      1  0.4564930000000  0.5433060000000  0.4564860000000 1.0
C      1  0.5430910000000  0.4567080000000  0.5430840000000 1.0
C      1  0.4564930000000  0.5433060000000  0.5430840000000 1.0
C      1  0.4564930000000  0.4567080000000  0.5430840000000 1.0
C      1  0.5430910000000  0.5433060000000  0.5430840000000 1.0
C      1  0.5430910000000  0.5433060000000  0.4564860000000 1.0
C      1  0.4564930000000  0.4567080000000  0.4564860000000 1.0
END
