TITL C-1887019-1280-4 -1.23446348194712e-07 1000000 -3246.57580466073 0 0 460 (C1) n - 1
REM
REM in /nfs/bkarasulu/CARBON/AIRSS/Generating-Clusters/GAP-ML-2020/Higher-Symm/Selected-Sizes/TryA-Only_Ih-Symm/Larger-Clusters
REM
REM
REM
REM
REM
REM ./C.cell (2cf5181f0f1d4d5b12b972d32ad12063)
REM
REM compiler GCC version 9.2.1 20190827 (Red Hat 9.2.1-1)
REM options -cpp -mtune=generic -march=x86-64 -g -O0 -fpre-include=/usr/include/finclude/math-vector-fortran.h
REM seed -502102377 -410318049 1100922486 1189374971 -831613493 -2093440519 689997196 -1546592228 1021325213 -70042439 -1965354952 1129176087 -1368915481 -1105175613 499484266 1795292394 -1551279135 506917643 1850191153 485281196 498720854 2122625427 59362182 -683047471 1425206159 901115651 -700520660 42599917 1504655644 -503021691 1932350891 1606621742 1246768537
REM
CELL 1.54180  100.00000  100.00000  100.00000   90.00000   90.00000   90.00000
LATT -1
SFAC C  
C      1  0.5455850000000  0.4637480000000  0.5552700000000 1.0
C      1  0.4662030000000  0.5519810000000  0.5436980000000 1.0
C      1  0.5561930000000  0.5441960000000  0.4637710000000 1.0
C      1  0.4562610000000  0.4677450000000  0.4461850000000 1.0
C      1  0.4559630000000  0.5321500000000  0.5542400000000 1.0
C      1  0.5442440000000  0.5320680000000  0.4449690000000 1.0
C      1  0.5363430000000  0.5538570000000  0.4547000000000 1.0
C      1  0.5365120000000  0.4435770000000  0.5456100000000 1.0
C      1  0.4639190000000  0.4459180000000  0.4546800000000 1.0
C      1  0.4461730000000  0.5420370000000  0.5330580000000 1.0
C      1  0.4465290000000  0.4575770000000  0.4674450000000 1.0
C      1  0.5552170000000  0.4556980000000  0.5335030000000 1.0
C      1  0.5538460000000  0.4665360000000  0.5436120000000 1.0
C      1  0.5440380000000  0.5519220000000  0.4667190000000 1.0
C      1  0.4632850000000  0.5441950000000  0.5558680000000 1.0
C      1  0.4456510000000  0.4680710000000  0.4569420000000 1.0
C      1  0.5545680000000  0.5322770000000  0.4562690000000 1.0
C      1  0.4448620000000  0.5318940000000  0.5437680000000 1.0
C      1  0.4543520000000  0.5537010000000  0.5357910000000 1.0
C      1  0.5439810000000  0.4451860000000  0.5336280000000 1.0
C      1  0.4541950000000  0.4456850000000  0.4639550000000 1.0
C      1  0.5336190000000  0.5422810000000  0.4463480000000 1.0
C      1  0.4672790000000  0.4581720000000  0.4477080000000 1.0
C      1  0.5337210000000  0.4557860000000  0.5534870000000 1.0
C      1  0.5000290000000  0.5178160000000  0.5367380000000 1.0
C      1  0.5184080000000  0.5368610000000  0.5002670000000 1.0
C      1  0.5404730000000  0.5008920000000  0.5187420000000 1.0
C      1  0.4991930000000  0.5179190000000  0.4581970000000 1.0
C      1  0.4992540000000  0.4825360000000  0.5375760000000 1.0
C      1  0.5012360000000  0.4831200000000  0.4612310000000 1.0
C      1  0.4812030000000  0.5360290000000  0.4986290000000 1.0
C      1  0.4816300000000  0.4634930000000  0.5010960000000 1.0
C      1  0.5203180000000  0.4604160000000  0.5000990000000 1.0
C      1  0.4587900000000  0.5012870000000  0.4796150000000 1.0
C      1  0.4587720000000  0.4987410000000  0.5195100000000 1.0
C      1  0.5399350000000  0.4984440000000  0.4800970000000 1.0
C      1  0.5368020000000  0.5171910000000  0.5007310000000 1.0
C      1  0.4998350000000  0.5368030000000  0.5181260000000 1.0
C      1  0.5182060000000  0.5010430000000  0.5372380000000 1.0
C      1  0.4583560000000  0.5168400000000  0.4984560000000 1.0
C      1  0.5380580000000  0.4820840000000  0.4995220000000 1.0
C      1  0.4592950000000  0.4829150000000  0.5014430000000 1.0
C      1  0.4991090000000  0.5362510000000  0.4812430000000 1.0
C      1  0.5013500000000  0.4631910000000  0.4831160000000 1.0
C      1  0.5000010000000  0.4630480000000  0.5190970000000 1.0
C      1  0.4808550000000  0.5020470000000  0.4622780000000 1.0
C      1  0.5199460000000  0.4990800000000  0.4590010000000 1.0
C      1  0.4794210000000  0.4986840000000  0.5398330000000 1.0
C      1  0.5112850000000  0.4993110000000  0.4330050000000 1.0
C      1  0.4998490000000  0.4347120000000  0.5109540000000 1.0
C      1  0.4325310000000  0.5101990000000  0.5001870000000 1.0
C      1  0.4888540000000  0.4991220000000  0.5656320000000 1.0
C      1  0.4893310000000  0.5010930000000  0.4342280000000 1.0
C      1  0.5105830000000  0.5002340000000  0.5653970000000 1.0
C      1  0.5005440000000  0.4353230000000  0.4898340000000 1.0
C      1  0.4997270000000  0.5638410000000  0.5103230000000 1.0
C      1  0.4993780000000  0.5640070000000  0.4888900000000 1.0
C      1  0.5658640000000  0.5096190000000  0.5002290000000 1.0
C      1  0.5660890000000  0.4884550000000  0.4995590000000 1.0
C      1  0.4329670000000  0.4890470000000  0.4999380000000 1.0
C      1  0.4324800000000  0.4989060000000  0.5110350000000 1.0
C      1  0.5111400000000  0.4344070000000  0.5001330000000 1.0
C      1  0.5005960000000  0.5107170000000  0.4329680000000 1.0
C      1  0.5659750000000  0.4988350000000  0.4889060000000 1.0
C      1  0.4327080000000  0.5002770000000  0.4891330000000 1.0
C      1  0.5663880000000  0.4993670000000  0.5108020000000 1.0
C      1  0.4892760000000  0.4354470000000  0.5007240000000 1.0
C      1  0.5104260000000  0.5638460000000  0.4999490000000 1.0
C      1  0.4888100000000  0.5639210000000  0.4991460000000 1.0
C      1  0.4998690000000  0.5102390000000  0.5655270000000 1.0
C      1  0.4997690000000  0.4889740000000  0.5652310000000 1.0
C      1  0.5000950000000  0.4896530000000  0.4343670000000 1.0
C      1  0.5126970000000  0.4783490000000  0.5028370000000 1.0
C      1  0.4853570000000  0.4993460000000  0.5065340000000 1.0
C      1  0.5002500000000  0.5114270000000  0.4798560000000 1.0
C      1  0.4908300000000  0.4756390000000  0.5022620000000 1.0
C      1  0.4899040000000  0.5230840000000  0.4994960000000 1.0
C      1  0.5114960000000  0.5232410000000  0.5002660000000 1.0
C      1  0.5197940000000  0.5015610000000  0.4903360000000 1.0
C      1  0.5209500000000  0.4992830000000  0.5121100000000 1.0
C      1  0.4782860000000  0.5062720000000  0.4858250000000 1.0
C      1  0.5010900000000  0.5118860000000  0.5219400000000 1.0
C      1  0.5008870000000  0.4868870000000  0.4832670000000 1.0
C      1  0.4998480000000  0.4894470000000  0.5238610000000 1.0
C      1  0.5002740000000  0.4777480000000  0.5130150000000 1.0
C      1  0.5062800000000  0.4995130000000  0.4853200000000 1.0
C      1  0.4807730000000  0.5109280000000  0.4994840000000 1.0
C      1  0.5024380000000  0.4754590000000  0.4921890000000 1.0
C      1  0.4999310000000  0.5231340000000  0.4896890000000 1.0
C      1  0.5001030000000  0.5235000000000  0.5111810000000 1.0
C      1  0.4899550000000  0.5015410000000  0.5201080000000 1.0
C      1  0.5105780000000  0.5008990000000  0.5230460000000 1.0
C      1  0.4868060000000  0.5087710000000  0.4753690000000 1.0
C      1  0.5221220000000  0.5111780000000  0.5023220000000 1.0
C      1  0.4820080000000  0.4867740000000  0.5018130000000 1.0
C      1  0.5225470000000  0.4897960000000  0.4993650000000 1.0
C      1  0.4672390000000  0.5690800000000  0.4773460000000 1.0
C      1  0.5710640000000  0.4771160000000  0.4670250000000 1.0
C      1  0.4785650000000  0.4671640000000  0.5703180000000 1.0
C      1  0.5316660000000  0.5692230000000  0.5215720000000 1.0
C      1  0.5321350000000  0.4297140000000  0.4778370000000 1.0
C      1  0.4673810000000  0.4304200000000  0.5219560000000 1.0
C      1  0.4279830000000  0.4765840000000  0.5323910000000 1.0
C      1  0.4274430000000  0.5227680000000  0.4680620000000 1.0
C      1  0.5706250000000  0.5215050000000  0.5322190000000 1.0
C      1  0.5211530000000  0.4669120000000  0.4297360000000 1.0
C      1  0.5215010000000  0.5322660000000  0.5700510000000 1.0
C      1  0.4789470000000  0.5327630000000  0.4284910000000 1.0
C      1  0.4776580000000  0.5692130000000  0.4672530000000 1.0
C      1  0.4678390000000  0.4769450000000  0.5708840000000 1.0
C      1  0.5710310000000  0.4671500000000  0.4775270000000 1.0
C      1  0.5212080000000  0.5692160000000  0.5316970000000 1.0
C      1  0.4777710000000  0.4301460000000  0.5321370000000 1.0
C      1  0.5217880000000  0.4302580000000  0.4676780000000 1.0
C      1  0.5319610000000  0.4765080000000  0.4286930000000 1.0
C      1  0.4680580000000  0.5230650000000  0.4282710000000 1.0
C      1  0.5320890000000  0.5222850000000  0.5701700000000 1.0
C      1  0.4285830000000  0.4668510000000  0.5216530000000 1.0
C      1  0.5704550000000  0.5316340000000  0.5217420000000 1.0
C      1  0.4280310000000  0.5326110000000  0.4787930000000 1.0
C      1  0.5022970000000  0.4639060000000  0.4424360000000 1.0
C      1  0.4631610000000  0.4426960000000  0.5030800000000 1.0
C      1  0.4391310000000  0.5040810000000  0.4624200000000 1.0
C      1  0.4974820000000  0.4633110000000  0.5580240000000 1.0
C      1  0.4978940000000  0.5366320000000  0.4407590000000 1.0
C      1  0.5024170000000  0.5359150000000  0.5580360000000 1.0
C      1  0.5371700000000  0.4410840000000  0.4969740000000 1.0
C      1  0.5366650000000  0.5572630000000  0.5025880000000 1.0
C      1  0.4627560000000  0.5571540000000  0.4962420000000 1.0
C      1  0.5587770000000  0.5025330000000  0.5370070000000 1.0
C      1  0.5592040000000  0.4960960000000  0.4623790000000 1.0
C      1  0.4392750000000  0.4954130000000  0.5378390000000 1.0
C      1  0.4408700000000  0.4634960000000  0.5028040000000 1.0
C      1  0.5031030000000  0.4426470000000  0.4637660000000 1.0
C      1  0.4624100000000  0.5044700000000  0.4401390000000 1.0
C      1  0.5596570000000  0.4625640000000  0.4964000000000 1.0
C      1  0.4406410000000  0.5362360000000  0.4975340000000 1.0
C      1  0.5583590000000  0.5356840000000  0.5028000000000 1.0
C      1  0.4969190000000  0.4417450000000  0.5365830000000 1.0
C      1  0.5021700000000  0.5572760000000  0.5363920000000 1.0
C      1  0.4967230000000  0.5574310000000  0.4629400000000 1.0
C      1  0.5367780000000  0.5034190000000  0.5583790000000 1.0
C      1  0.4622280000000  0.4958920000000  0.5593650000000 1.0
C      1  0.5379000000000  0.4954130000000  0.4395460000000 1.0
C      1  0.4679800000000  0.4910140000000  0.5714420000000 1.0
C      1  0.4917150000000  0.5698310000000  0.4677370000000 1.0
C      1  0.5719840000000  0.4677720000000  0.4914080000000 1.0
C      1  0.5319730000000  0.4904330000000  0.4275510000000 1.0
C      1  0.5319070000000  0.5082620000000  0.5708090000000 1.0
C      1  0.4682100000000  0.5090860000000  0.4279600000000 1.0
C      1  0.5071630000000  0.5697160000000  0.5313170000000 1.0
C      1  0.5077900000000  0.4299380000000  0.4682410000000 1.0
C      1  0.4918010000000  0.4293160000000  0.5318220000000 1.0
C      1  0.4282570000000  0.4680020000000  0.5076980000000 1.0
C      1  0.4279880000000  0.5314990000000  0.4927460000000 1.0
C      1  0.5709430000000  0.5310490000000  0.5077610000000 1.0
C      1  0.5714840000000  0.4911710000000  0.4676610000000 1.0
C      1  0.4675140000000  0.5696320000000  0.4913780000000 1.0
C      1  0.4925440000000  0.4679110000000  0.5707070000000 1.0
C      1  0.4271140000000  0.4905230000000  0.5321500000000 1.0
C      1  0.5711340000000  0.5074780000000  0.5317960000000 1.0
C      1  0.4270910000000  0.5087350000000  0.4683690000000 1.0
C      1  0.5314940000000  0.5696870000000  0.5075180000000 1.0
C      1  0.4677150000000  0.4300440000000  0.5078990000000 1.0
C      1  0.5317440000000  0.4289380000000  0.4918970000000 1.0
C      1  0.5072190000000  0.4683050000000  0.4297370000000 1.0
C      1  0.4929560000000  0.5316800000000  0.4282720000000 1.0
C      1  0.5074840000000  0.5315170000000  0.5706420000000 1.0
C      1  0.5213920000000  0.4997830000000  0.5760340000000 1.0
C      1  0.4989450000000  0.5747690000000  0.5205350000000 1.0
C      1  0.5764300000000  0.5204320000000  0.4996090000000 1.0
C      1  0.4788640000000  0.5005550000000  0.4232340000000 1.0
C      1  0.4786750000000  0.4994770000000  0.5766570000000 1.0
C      1  0.5216520000000  0.4992080000000  0.4220400000000 1.0
C      1  0.5001220000000  0.5748590000000  0.4783120000000 1.0
C      1  0.5002410000000  0.4238340000000  0.5214020000000 1.0
C      1  0.4994690000000  0.4249030000000  0.4789300000000 1.0
C      1  0.4221040000000  0.5208780000000  0.5008300000000 1.0
C      1  0.4224220000000  0.4785460000000  0.4994970000000 1.0
C      1  0.5772890000000  0.4782720000000  0.4999100000000 1.0
C      1  0.5770010000000  0.4991530000000  0.5213160000000 1.0
C      1  0.5207190000000  0.5747330000000  0.4992690000000 1.0
C      1  0.4993040000000  0.5209280000000  0.5761860000000 1.0
C      1  0.4218300000000  0.4999990000000  0.4788300000000 1.0
C      1  0.5768080000000  0.4993380000000  0.4785410000000 1.0
C      1  0.4216930000000  0.4990760000000  0.5216210000000 1.0
C      1  0.4781110000000  0.5746670000000  0.4997810000000 1.0
C      1  0.5212180000000  0.4234180000000  0.5003710000000 1.0
C      1  0.4784210000000  0.4249880000000  0.4996390000000 1.0
C      1  0.5011280000000  0.5211480000000  0.4223490000000 1.0
C      1  0.4993410000000  0.4789940000000  0.4239280000000 1.0
C      1  0.5006260000000  0.4786740000000  0.5760490000000 1.0
C      1  0.5477530000000  0.5195850000000  0.4622780000000 1.0
C      1  0.5211740000000  0.4616770000000  0.5466080000000 1.0
C      1  0.4648600000000  0.5408050000000  0.5146960000000 1.0
C      1  0.4515660000000  0.5183130000000  0.5381940000000 1.0
C      1  0.4504380000000  0.4817810000000  0.4612510000000 1.0
C      1  0.5459550000000  0.4786080000000  0.5362140000000 1.0
C      1  0.4788800000000  0.4658750000000  0.4559690000000 1.0
C      1  0.4821140000000  0.5325700000000  0.5426510000000 1.0
C      1  0.5215820000000  0.5347490000000  0.4540830000000 1.0
C      1  0.5380600000000  0.5449010000000  0.4792000000000 1.0
C      1  0.5379160000000  0.4518110000000  0.5209700000000 1.0
C      1  0.4654980000000  0.4592970000000  0.4844470000000 1.0
C      1  0.4619450000000  0.5193080000000  0.5476720000000 1.0
C      1  0.5484830000000  0.4610870000000  0.5198890000000 1.0
C      1  0.5156120000000  0.5412290000000  0.4652030000000 1.0
C      1  0.5387250000000  0.5185060000000  0.4514810000000 1.0
C      1  0.4620610000000  0.4824850000000  0.4537600000000 1.0
C      1  0.5346680000000  0.4845540000000  0.5425910000000 1.0
C      1  0.4528550000000  0.4628220000000  0.4802580000000 1.0
C      1  0.5427650000000  0.5323190000000  0.4827830000000 1.0
C      1  0.4538880000000  0.5344040000000  0.5209420000000 1.0
C      1  0.4786970000000  0.5450550000000  0.5377600000000 1.0
C      1  0.5175700000000  0.4566800000000  0.5343160000000 1.0
C      1  0.4847600000000  0.4592980000000  0.4670410000000 1.0
C      1  0.4682270000000  0.4344770000000  0.4797820000000 1.0
C      1  0.4294890000000  0.4800690000000  0.4676680000000 1.0
C      1  0.4793300000000  0.4696640000000  0.4323210000000 1.0
C      1  0.5322730000000  0.4307020000000  0.5205020000000 1.0
C      1  0.5316560000000  0.5667870000000  0.4793260000000 1.0
C      1  0.4674980000000  0.5659080000000  0.5198880000000 1.0
C      1  0.5691010000000  0.4789190000000  0.5316420000000 1.0
C      1  0.5691450000000  0.5193350000000  0.4677950000000 1.0
C      1  0.4294540000000  0.5191420000000  0.5328420000000 1.0
C      1  0.5207130000000  0.4683230000000  0.5680760000000 1.0
C      1  0.5216850000000  0.5309890000000  0.4304580000000 1.0
C      1  0.4790300000000  0.5310020000000  0.5678750000000 1.0
C      1  0.4797420000000  0.4345100000000  0.4685630000000 1.0
C      1  0.4677690000000  0.4809850000000  0.4314760000000 1.0
C      1  0.4303960000000  0.4686310000000  0.4792820000000 1.0
C      1  0.5205790000000  0.4317630000000  0.5321200000000 1.0
C      1  0.4789220000000  0.5667920000000  0.5313120000000 1.0
C      1  0.5203610000000  0.5661250000000  0.4677810000000 1.0
C      1  0.5321520000000  0.4797650000000  0.5673890000000 1.0
C      1  0.4674310000000  0.5193870000000  0.5691020000000 1.0
C      1  0.5332720000000  0.5193340000000  0.4295150000000 1.0
C      1  0.5698940000000  0.4673380000000  0.5200720000000 1.0
C      1  0.4304070000000  0.5305890000000  0.5211340000000 1.0
C      1  0.5680060000000  0.5307680000000  0.4794970000000 1.0
C      1  0.5272190000000  0.5449040000000  0.4328860000000 1.0
C      1  0.5462820000000  0.4322940000000  0.5263520000000 1.0
C      1  0.4315700000000  0.5259090000000  0.5468870000000 1.0
C      1  0.4729520000000  0.5449750000000  0.5663790000000 1.0
C      1  0.4740970000000  0.4558300000000  0.4344730000000 1.0
C      1  0.5263460000000  0.4543050000000  0.5669050000000 1.0
C      1  0.4544180000000  0.4352600000000  0.4738880000000 1.0
C      1  0.4537250000000  0.5643150000000  0.5261370000000 1.0
C      1  0.5456160000000  0.5655290000000  0.4738470000000 1.0
C      1  0.5675610000000  0.5251770000000  0.4538990000000 1.0
C      1  0.5671150000000  0.4733590000000  0.5457510000000 1.0
C      1  0.4319170000000  0.4736020000000  0.4536900000000 1.0
C      1  0.4327920000000  0.5445390000000  0.5265450000000 1.0
C      1  0.5266460000000  0.4331860000000  0.5461610000000 1.0
C      1  0.5473890000000  0.5260770000000  0.4316550000000 1.0
C      1  0.5666110000000  0.5447900000000  0.4735510000000 1.0
C      1  0.4326410000000  0.4548180000000  0.4736360000000 1.0
C      1  0.5682860000000  0.4530810000000  0.5269920000000 1.0
C      1  0.4740390000000  0.4357260000000  0.4548300000000 1.0
C      1  0.5267510000000  0.5645400000000  0.4540340000000 1.0
C      1  0.4732950000000  0.5655920000000  0.5452320000000 1.0
C      1  0.4534910000000  0.5251920000000  0.5673440000000 1.0
C      1  0.5460390000000  0.4735690000000  0.5657530000000 1.0
C      1  0.4537320000000  0.4742450000000  0.4332080000000 1.0
C      1  0.4857200000000  0.5235390000000  0.5790260000000 1.0
C      1  0.5236740000000  0.5775780000000  0.4856590000000 1.0
C      1  0.5800070000000  0.4855860000000  0.5239380000000 1.0
C      1  0.5148800000000  0.5234450000000  0.4195600000000 1.0
C      1  0.5143180000000  0.4761020000000  0.5789400000000 1.0
C      1  0.4858090000000  0.4767030000000  0.4209750000000 1.0
C      1  0.4750650000000  0.5771660000000  0.5133030000000 1.0
C      1  0.4756540000000  0.4229170000000  0.4860090000000 1.0
C      1  0.5240020000000  0.4202700000000  0.5140260000000 1.0
C      1  0.4188400000000  0.4863530000000  0.4757650000000 1.0
C      1  0.4188450000000  0.5128180000000  0.5246210000000 1.0
C      1  0.5798180000000  0.5130120000000  0.4758820000000 1.0
C      1  0.5791960000000  0.5232170000000  0.4860470000000 1.0
C      1  0.4852890000000  0.5775710000000  0.5233670000000 1.0
C      1  0.5244900000000  0.4862670000000  0.5786300000000 1.0
C      1  0.4193290000000  0.5231670000000  0.5145420000000 1.0
C      1  0.5804580000000  0.4754430000000  0.5136300000000 1.0
C      1  0.4194130000000  0.4760310000000  0.4858970000000 1.0
C      1  0.5136910000000  0.5773250000000  0.4753580000000 1.0
C      1  0.4858400000000  0.4229120000000  0.4759870000000 1.0
C      1  0.5138160000000  0.4208860000000  0.5242970000000 1.0
C      1  0.4757420000000  0.4869680000000  0.4204420000000 1.0
C      1  0.5248530000000  0.5129550000000  0.4190930000000 1.0
C      1  0.4757110000000  0.5131460000000  0.5796740000000 1.0
C      1  0.4854230000000  0.5250160000000  0.4614900000000 1.0
C      1  0.5260200000000  0.4632030000000  0.4862210000000 1.0
C      1  0.4617150000000  0.4855140000000  0.5262320000000 1.0
C      1  0.5136720000000  0.5251020000000  0.5365650000000 1.0
C      1  0.5143440000000  0.4752540000000  0.4631860000000 1.0
C      1  0.4857730000000  0.4747250000000  0.5368610000000 1.0
C      1  0.4739590000000  0.4640650000000  0.5143200000000 1.0
C      1  0.4738140000000  0.5350830000000  0.4852010000000 1.0
C      1  0.5254510000000  0.5360440000000  0.5138420000000 1.0
C      1  0.5374760000000  0.4851660000000  0.4738980000000 1.0
C      1  0.5374670000000  0.5141140000000  0.5254180000000 1.0
C      1  0.4608450000000  0.5145700000000  0.4728020000000 1.0
C      1  0.4613500000000  0.5246000000000  0.4852600000000 1.0
C      1  0.4858870000000  0.4636380000000  0.5256100000000 1.0
C      1  0.5261620000000  0.4856850000000  0.4623580000000 1.0
C      1  0.5369070000000  0.5250660000000  0.5138850000000 1.0
C      1  0.4618650000000  0.4750380000000  0.5144750000000 1.0
C      1  0.5372900000000  0.4743480000000  0.4861650000000 1.0
C      1  0.5143940000000  0.4639710000000  0.4749520000000 1.0
C      1  0.4856180000000  0.5354320000000  0.4737640000000 1.0
C      1  0.5135580000000  0.5360470000000  0.5252290000000 1.0
C      1  0.4734000000000  0.4853040000000  0.5373230000000 1.0
C      1  0.5256580000000  0.5141600000000  0.5364600000000 1.0
C      1  0.4724920000000  0.5148330000000  0.4617230000000 1.0
C      1  0.5570470000000  0.5357010000000  0.5258790000000 1.0
C      1  0.5358950000000  0.5263380000000  0.5565380000000 1.0
C      1  0.5254290000000  0.5558540000000  0.5357730000000 1.0
C      1  0.4413500000000  0.5365860000000  0.4741410000000 1.0
C      1  0.4420970000000  0.4630950000000  0.5259860000000 1.0
C      1  0.5573520000000  0.4633090000000  0.4736720000000 1.0
C      1  0.4635790000000  0.5274180000000  0.4415380000000 1.0
C      1  0.4635980000000  0.4727830000000  0.5574420000000 1.0
C      1  0.5361930000000  0.4727100000000  0.4423250000000 1.0
C      1  0.4737410000000  0.5555810000000  0.4633880000000 1.0
C      1  0.4738420000000  0.4437000000000  0.5361220000000 1.0
C      1  0.5261310000000  0.4437590000000  0.4639350000000 1.0
C      1  0.5255260000000  0.5360640000000  0.5564640000000 1.0
C      1  0.5571780000000  0.5259090000000  0.5362210000000 1.0
C      1  0.5357030000000  0.5558440000000  0.5258680000000 1.0
C      1  0.4743820000000  0.5368730000000  0.4417710000000 1.0
C      1  0.5256520000000  0.4632030000000  0.4431630000000 1.0
C      1  0.4742300000000  0.4633060000000  0.5569130000000 1.0
C      1  0.4407550000000  0.5270400000000  0.4635200000000 1.0
C      1  0.5574790000000  0.4728990000000  0.4631930000000 1.0
C      1  0.4416230000000  0.4726750000000  0.5364770000000 1.0
C      1  0.4635470000000  0.5554010000000  0.4732600000000 1.0
C      1  0.5363240000000  0.4432320000000  0.4738660000000 1.0
C      1  0.4636190000000  0.4439380000000  0.5262240000000 1.0
C      1  0.4888470000000  0.4705950000000  0.4451040000000 1.0
C      1  0.4695760000000  0.4463200000000  0.4899080000000 1.0
C      1  0.4419050000000  0.4902760000000  0.4683310000000 1.0
C      1  0.5114690000000  0.4688630000000  0.5554540000000 1.0
C      1  0.5119560000000  0.5303890000000  0.4430280000000 1.0
C      1  0.4888720000000  0.5295600000000  0.5553240000000 1.0
C      1  0.5316530000000  0.4432280000000  0.5111370000000 1.0
C      1  0.5310830000000  0.5542750000000  0.4886350000000 1.0
C      1  0.4686830000000  0.5538270000000  0.5096950000000 1.0
C      1  0.5565290000000  0.4884960000000  0.5310340000000 1.0
C      1  0.5566130000000  0.5098720000000  0.4684870000000 1.0
C      1  0.4415800000000  0.5090010000000  0.5322130000000 1.0
C      1  0.4433640000000  0.4694150000000  0.4888940000000 1.0
C      1  0.4900400000000  0.4462090000000  0.4700940000000 1.0
C      1  0.4684440000000  0.4913310000000  0.4435850000000 1.0
C      1  0.5575240000000  0.4678200000000  0.5100720000000 1.0
C      1  0.4429730000000  0.5298010000000  0.5113280000000 1.0
C      1  0.5554870000000  0.5292020000000  0.4894230000000 1.0
C      1  0.5107880000000  0.4442260000000  0.5308570000000 1.0
C      1  0.4882340000000  0.5543350000000  0.5308200000000 1.0
C      1  0.5101840000000  0.5541190000000  0.4688530000000 1.0
C      1  0.5308870000000  0.4899100000000  0.5553810000000 1.0
C      1  0.4681120000000  0.5098120000000  0.5566580000000 1.0
C      1  0.5326820000000  0.5092400000000  0.4416330000000 1.0
C      1  0.4669700000000  0.5108870000000  0.5212250000000 1.0
C      1  0.5086020000000  0.5177420000000  0.4693600000000 1.0
C      1  0.5212870000000  0.4695910000000  0.5110370000000 1.0
C      1  0.5291230000000  0.5081290000000  0.4801250000000 1.0
C      1  0.5303430000000  0.4910640000000  0.5198070000000 1.0
C      1  0.4708210000000  0.4940560000000  0.4821650000000 1.0
C      1  0.4863570000000  0.5227220000000  0.5327800000000 1.0
C      1  0.4918320000000  0.4826690000000  0.4726450000000 1.0
C      1  0.5126950000000  0.4787990000000  0.5324360000000 1.0
C      1  0.4754710000000  0.4691240000000  0.4882610000000 1.0
C      1  0.4746580000000  0.5311520000000  0.5109560000000 1.0
C      1  0.5211460000000  0.5301760000000  0.4874540000000 1.0
C      1  0.5219260000000  0.5111520000000  0.4671730000000 1.0
C      1  0.4695290000000  0.5170210000000  0.5076010000000 1.0
C      1  0.5133660000000  0.4667160000000  0.5248070000000 1.0
C      1  0.4795860000000  0.5082290000000  0.5290220000000 1.0
C      1  0.5246760000000  0.4883750000000  0.5331310000000 1.0
C      1  0.4781880000000  0.4890090000000  0.4694880000000 1.0
C      1  0.5329450000000  0.5223640000000  0.4870750000000 1.0
C      1  0.4710390000000  0.4835490000000  0.4929100000000 1.0
C      1  0.5332910000000  0.4776410000000  0.5136130000000 1.0
C      1  0.4882670000000  0.4685980000000  0.4772570000000 1.0
C      1  0.5117190000000  0.5315430000000  0.4749130000000 1.0
C      1  0.4865660000000  0.5306160000000  0.5210150000000 1.0
C      1  0.5142030000000  0.4526170000000  0.4634170000000 1.0
C      1  0.4510830000000  0.4630850000000  0.5141830000000 1.0
C      1  0.4609830000000  0.5154610000000  0.4502610000000 1.0
C      1  0.4859500000000  0.4521600000000  0.5369230000000 1.0
C      1  0.4858310000000  0.5471830000000  0.4624230000000 1.0
C      1  0.5134240000000  0.5472610000000  0.5367160000000 1.0
C      1  0.5487700000000  0.4625950000000  0.4857920000000 1.0
C      1  0.5482010000000  0.5364320000000  0.5139020000000 1.0
C      1  0.4507000000000  0.5365700000000  0.4857290000000 1.0
C      1  0.5371330000000  0.5143110000000  0.5479800000000 1.0
C      1  0.5380380000000  0.4847710000000  0.4505490000000 1.0
C      1  0.4613910000000  0.4846980000000  0.5490150000000 1.0
C      1  0.4625460000000  0.4526320000000  0.5142510000000 1.0
C      1  0.5139150000000  0.4633470000000  0.4522970000000 1.0
C      1  0.4495430000000  0.5152830000000  0.4612030000000 1.0
C      1  0.5376530000000  0.4516610000000  0.4858830000000 1.0
C      1  0.4623660000000  0.5468780000000  0.4853110000000 1.0
C      1  0.5370450000000  0.5472520000000  0.5138790000000 1.0
C      1  0.4861300000000  0.4630300000000  0.5479780000000 1.0
C      1  0.5135060000000  0.5364480000000  0.5477940000000 1.0
C      1  0.4860980000000  0.5370330000000  0.4507810000000 1.0
C      1  0.5484150000000  0.5141030000000  0.5372200000000 1.0
C      1  0.4501090000000  0.4846530000000  0.5382230000000 1.0
C      1  0.5489220000000  0.4848090000000  0.4616670000000 1.0
C      1  0.5163840000000  0.5503950000000  0.4938460000000 1.0
C      1  0.5532860000000  0.4937710000000  0.5169080000000 1.0
C      1  0.4940470000000  0.5151400000000  0.5519670000000 1.0
C      1  0.4833870000000  0.5505110000000  0.5046400000000 1.0
C      1  0.4841970000000  0.4492410000000  0.4953460000000 1.0
C      1  0.5174790000000  0.4474060000000  0.5061930000000 1.0
C      1  0.4460740000000  0.4946440000000  0.4825300000000 1.0
C      1  0.4454830000000  0.5045730000000  0.5174250000000 1.0
C      1  0.5527580000000  0.5046980000000  0.4827900000000 1.0
C      1  0.5068570000000  0.5164250000000  0.4458050000000 1.0
C      1  0.5060010000000  0.4835880000000  0.5514350000000 1.0
C      1  0.4942500000000  0.4846450000000  0.4481860000000 1.0
C      1  0.4934980000000  0.5503650000000  0.5161650000000 1.0
C      1  0.5160160000000  0.4950780000000  0.5519200000000 1.0
C      1  0.5521830000000  0.5146560000000  0.4946350000000 1.0
C      1  0.5050310000000  0.5506470000000  0.4835350000000 1.0
C      1  0.4953180000000  0.4490270000000  0.4849470000000 1.0
C      1  0.5058570000000  0.4479410000000  0.5163360000000 1.0
C      1  0.4832970000000  0.4958780000000  0.4479900000000 1.0
C      1  0.5180050000000  0.5050740000000  0.4457140000000 1.0
C      1  0.4824180000000  0.5049220000000  0.5526010000000 1.0
C      1  0.4457830000000  0.5156830000000  0.5060980000000 1.0
C      1  0.5527010000000  0.4828010000000  0.5057170000000 1.0
C      1  0.4466550000000  0.4836430000000  0.4938070000000 1.0
C      1  0.4303230000000  0.5233750000000  0.5601330000000 1.0
C      1  0.5233630000000  0.5577350000000  0.4311080000000 1.0
C      1  0.5594210000000  0.4307190000000  0.5239890000000 1.0
C      1  0.5693790000000  0.5230730000000  0.4407540000000 1.0
C      1  0.5688440000000  0.4774620000000  0.5585380000000 1.0
C      1  0.4306330000000  0.4759120000000  0.4404710000000 1.0
C      1  0.4774790000000  0.5580760000000  0.5675160000000 1.0
C      1  0.4779470000000  0.4429880000000  0.4321410000000 1.0
C      1  0.5225500000000  0.4414210000000  0.5684630000000 1.0
C      1  0.4414280000000  0.4336610000000  0.4780810000000 1.0
C      1  0.4407150000000  0.5660000000000  0.5217650000000 1.0
C      1  0.5584640000000  0.5671320000000  0.4776080000000 1.0
C      1  0.5606100000000  0.5234220000000  0.4305940000000 1.0
C      1  0.4309070000000  0.5573610000000  0.5226300000000 1.0
C      1  0.5220690000000  0.4320350000000  0.5592240000000 1.0
C      1  0.4403350000000  0.5231430000000  0.5690760000000 1.0
C      1  0.5590200000000  0.4781450000000  0.5672020000000 1.0
C      1  0.4405050000000  0.4764460000000  0.4315060000000 1.0
C      1  0.5678120000000  0.5578650000000  0.4781800000000 1.0
C      1  0.4311960000000  0.4419100000000  0.4773560000000 1.0
C      1  0.5691760000000  0.4399190000000  0.5240350000000 1.0
C      1  0.4786610000000  0.4342650000000  0.4418990000000 1.0
C      1  0.5224970000000  0.5663030000000  0.4410000000000 1.0
C      1  0.4769720000000  0.5672800000000  0.5581020000000 1.0
C      1  0.5401140000000  0.4711510000000  0.5245220000000 1.0
C      1  0.4601550000000  0.5223340000000  0.5278920000000 1.0
C      1  0.5287070000000  0.5225310000000  0.4604190000000 1.0
C      1  0.4718940000000  0.4778170000000  0.4623940000000 1.0
END
