TITL C-1892073-1155-63 3.42775694380416e-08 1000000 -1508.81593043074 0 0 220 (C1) n - 1
REM
REM in /nfs/bkarasulu/CARBON/AIRSS/Generating-Clusters/GAP-ML-2020/Higher-Symm/Selected-Sizes/TryA-Only_Ih-Symm/Larger-Clusters
REM
REM
REM
REM
REM
REM ./C.cell (2cf5181f0f1d4d5b12b972d32ad12063)
REM
REM compiler GCC version 9.2.1 20190827 (Red Hat 9.2.1-1)
REM options -cpp -mtune=generic -march=x86-64 -g -O0 -fpre-include=/usr/include/finclude/math-vector-fortran.h
REM seed 667936798 165759386 -1280299058 1722188584 1623522553 -278600094 115132545 -2142643741 1374642698 473867285 43413989 758611366 -894805327 -1287860602 -1836712239 1130557772 85558775 1554555435 -1639447297 744236371 1868640376 1049637607 -761830072 -900447207 -1696969197 1315212002 -1517849071 -2041255800 -1330412770 1926555522 537548780 -147447985 979122060
REM
CELL 1.54180  100.00000  100.00000  100.00000   90.00000   90.00000   90.00000
LATT -1
SFAC C  
C      1  0.4523110000000  0.5259350000000  0.4629980000000 1.0
C      1  0.5251520000000  0.4598830000000  0.4521590000000 1.0
C      1  0.4630390000000  0.4525040000000  0.5253280000000 1.0
C      1  0.4525980000000  0.4736050000000  0.5364170000000 1.0
C      1  0.5474810000000  0.5262490000000  0.5347780000000 1.0
C      1  0.5451310000000  0.4720550000000  0.4634120000000 1.0
C      1  0.5259130000000  0.5369660000000  0.5453560000000 1.0
C      1  0.4729830000000  0.4617680000000  0.5476000000000 1.0
C      1  0.4728670000000  0.5382840000000  0.4524430000000 1.0
C      1  0.4615780000000  0.5474510000000  0.4741430000000 1.0
C      1  0.5357500000000  0.4501310000000  0.4739650000000 1.0
C      1  0.5363410000000  0.5470900000000  0.5239520000000 1.0
C      1  0.4528360000000  0.4635510000000  0.5251750000000 1.0
C      1  0.5254940000000  0.4493220000000  0.4628770000000 1.0
C      1  0.4627940000000  0.5271560000000  0.4522640000000 1.0
C      1  0.4516560000000  0.5361730000000  0.4740490000000 1.0
C      1  0.5472210000000  0.5366550000000  0.5238940000000 1.0
C      1  0.5455160000000  0.4615820000000  0.4742260000000 1.0
C      1  0.5256060000000  0.5473350000000  0.5345090000000 1.0
C      1  0.4720400000000  0.5485420000000  0.4634470000000 1.0
C      1  0.4731390000000  0.4516450000000  0.5364740000000 1.0
C      1  0.4626380000000  0.4727890000000  0.5475840000000 1.0
C      1  0.5349030000000  0.4713850000000  0.4523990000000 1.0
C      1  0.5368270000000  0.5266950000000  0.5454030000000 1.0
C      1  0.4718760000000  0.5079470000000  0.4803100000000 1.0
C      1  0.5047820000000  0.4765240000000  0.4698000000000 1.0
C      1  0.4821940000000  0.4722810000000  0.5098380000000 1.0
C      1  0.4728640000000  0.4922570000000  0.5206140000000 1.0
C      1  0.5300820000000  0.5070030000000  0.5163990000000 1.0
C      1  0.5238120000000  0.4888380000000  0.4799790000000 1.0
C      1  0.5096690000000  0.5171900000000  0.5261810000000 1.0
C      1  0.4923280000000  0.4805650000000  0.5307710000000 1.0
C      1  0.4914540000000  0.5195130000000  0.4703570000000 1.0
C      1  0.4807640000000  0.5284600000000  0.4908520000000 1.0
C      1  0.5155800000000  0.4680160000000  0.4903650000000 1.0
C      1  0.5199320000000  0.5270020000000  0.5060160000000 1.0
C      1  0.4730990000000  0.4827030000000  0.5096080000000 1.0
C      1  0.5053900000000  0.4669310000000  0.4798850000000 1.0
C      1  0.4812330000000  0.5090380000000  0.4701030000000 1.0
C      1  0.4715970000000  0.5179720000000  0.4909270000000 1.0
C      1  0.5298550000000  0.5172180000000  0.5058460000000 1.0
C      1  0.5242470000000  0.4788560000000  0.4906810000000 1.0
C      1  0.5093670000000  0.5267850000000  0.5161520000000 1.0
C      1  0.4908810000000  0.5293350000000  0.4801940000000 1.0
C      1  0.4922700000000  0.4713080000000  0.5203850000000 1.0
C      1  0.4822890000000  0.4912450000000  0.5308630000000 1.0
C      1  0.5141340000000  0.4877400000000  0.4700150000000 1.0
C      1  0.5205310000000  0.5073770000000  0.5265460000000 1.0
C      1  0.4855760000000  0.5521060000000  0.4683050000000 1.0
C      1  0.5468080000000  0.4672050000000  0.4880960000000 1.0
C      1  0.4677980000000  0.4864240000000  0.5511110000000 1.0
C      1  0.4872190000000  0.4489930000000  0.5318980000000 1.0
C      1  0.5115750000000  0.5488640000000  0.5290330000000 1.0
C      1  0.5115580000000  0.4457330000000  0.4673170000000 1.0
C      1  0.5500960000000  0.5317600000000  0.5098720000000 1.0
C      1  0.4515870000000  0.4694440000000  0.5113670000000 1.0
C      1  0.4498080000000  0.5306110000000  0.4879850000000 1.0
C      1  0.4679380000000  0.5138250000000  0.4483530000000 1.0
C      1  0.5288210000000  0.4848610000000  0.4497640000000 1.0
C      1  0.5325750000000  0.5131140000000  0.5491850000000 1.0
C      1  0.4870310000000  0.4659400000000  0.5510710000000 1.0
C      1  0.5466630000000  0.4860450000000  0.4681850000000 1.0
C      1  0.4667890000000  0.5498720000000  0.4879120000000 1.0
C      1  0.4871220000000  0.5338320000000  0.4499440000000 1.0
C      1  0.5122700000000  0.5310460000000  0.5476220000000 1.0
C      1  0.5110220000000  0.4633260000000  0.4486120000000 1.0
C      1  0.5503360000000  0.5119820000000  0.5304660000000 1.0
C      1  0.4505830000000  0.5115630000000  0.4671790000000 1.0
C      1  0.4504230000000  0.4878270000000  0.5321940000000 1.0
C      1  0.4686470000000  0.4503560000000  0.5116280000000 1.0
C      1  0.5304450000000  0.4474250000000  0.4877590000000 1.0
C      1  0.5317330000000  0.5498300000000  0.5101270000000 1.0
C      1  0.4974990000000  0.4463420000000  0.5413940000000 1.0
C      1  0.4485570000000  0.5393640000000  0.4992310000000 1.0
C      1  0.5367270000000  0.4966780000000  0.4494230000000 1.0
C      1  0.4954600000000  0.5553970000000  0.4583640000000 1.0
C      1  0.5012330000000  0.4433920000000  0.4578270000000 1.0
C      1  0.5002680000000  0.5496960000000  0.5380050000000 1.0
C      1  0.4509880000000  0.4609370000000  0.4999520000000 1.0
C      1  0.5510430000000  0.5413000000000  0.4992060000000 1.0
C      1  0.5482800000000  0.4586110000000  0.4993570000000 1.0
C      1  0.5430820000000  0.5040990000000  0.5526970000000 1.0
C      1  0.4589650000000  0.4975910000000  0.5522810000000 1.0
C      1  0.4581790000000  0.5038180000000  0.4452330000000 1.0
C      1  0.4975410000000  0.5435960000000  0.4495100000000 1.0
C      1  0.4485860000000  0.4980940000000  0.5419130000000 1.0
C      1  0.5391300000000  0.4471650000000  0.4991030000000 1.0
C      1  0.4972710000000  0.4559800000000  0.5525670000000 1.0
C      1  0.5015140000000  0.4528170000000  0.4464450000000 1.0
C      1  0.5006710000000  0.5394730000000  0.5485490000000 1.0
C      1  0.4495760000000  0.5016100000000  0.4570450000000 1.0
C      1  0.5512030000000  0.5018620000000  0.5404530000000 1.0
C      1  0.5480740000000  0.4966690000000  0.4588290000000 1.0
C      1  0.5417920000000  0.5527070000000  0.5003690000000 1.0
C      1  0.4577810000000  0.5507830000000  0.4989380000000 1.0
C      1  0.4598560000000  0.4492800000000  0.5004460000000 1.0
C      1  0.5354050000000  0.5471480000000  0.4468320000000 1.0
C      1  0.5437540000000  0.4426400000000  0.5367750000000 1.0
C      1  0.4445470000000  0.5355690000000  0.5473040000000 1.0
C      1  0.5341160000000  0.4498350000000  0.5579950000000 1.0
C      1  0.4641560000000  0.5450330000000  0.5603440000000 1.0
C      1  0.4648170000000  0.4483610000000  0.4413400000000 1.0
C      1  0.5402440000000  0.5635970000000  0.4650680000000 1.0
C      1  0.4550620000000  0.4430510000000  0.4630580000000 1.0
C      1  0.4532880000000  0.5567180000000  0.5360830000000 1.0
C      1  0.4486840000000  0.4639640000000  0.4510520000000 1.0
C      1  0.5534780000000  0.5337850000000  0.4534480000000 1.0
C      1  0.5510850000000  0.4639790000000  0.5474570000000 1.0
C      1  0.5343980000000  0.4406560000000  0.5467280000000 1.0
C      1  0.5415380000000  0.5346120000000  0.4448170000000 1.0
C      1  0.4443640000000  0.5449200000000  0.5371260000000 1.0
C      1  0.5282940000000  0.5692670000000  0.4627960000000 1.0
C      1  0.4633330000000  0.5596890000000  0.5454430000000 1.0
C      1  0.4640570000000  0.4398540000000  0.4530990000000 1.0
C      1  0.5427970000000  0.4707880000000  0.5685230000000 1.0
C      1  0.4580130000000  0.4697840000000  0.4301620000000 1.0
C      1  0.4545990000000  0.5350370000000  0.5582160000000 1.0
C      1  0.4475200000000  0.4556250000000  0.4619940000000 1.0
C      1  0.5519770000000  0.4548200000000  0.5371800000000 1.0
C      1  0.5540580000000  0.5452610000000  0.4613900000000 1.0
C      1  0.4526830000000  0.5560590000000  0.5216880000000 1.0
C      1  0.5525420000000  0.5196050000000  0.4542630000000 1.0
C      1  0.5195770000000  0.4489150000000  0.5587840000000 1.0
C      1  0.4547590000000  0.4437880000000  0.4776520000000 1.0
C      1  0.5463710000000  0.5598910000000  0.4777260000000 1.0
C      1  0.5442560000000  0.4424640000000  0.5221810000000 1.0
C      1  0.5526940000000  0.4782350000000  0.5479870000000 1.0
C      1  0.4436400000000  0.5209730000000  0.5474410000000 1.0
C      1  0.4474620000000  0.4781590000000  0.4498540000000 1.0
C      1  0.5215280000000  0.5506520000000  0.4477130000000 1.0
C      1  0.4791710000000  0.4461290000000  0.4402630000000 1.0
C      1  0.4781760000000  0.5453380000000  0.5552750000000 1.0
C      1  0.4543310000000  0.5206250000000  0.5578700000000 1.0
C      1  0.5530570000000  0.4548360000000  0.5226940000000 1.0
C      1  0.5183860000000  0.5629190000000  0.4554210000000 1.0
C      1  0.4540560000000  0.4815400000000  0.4367840000000 1.0
C      1  0.5470490000000  0.4821430000000  0.5613430000000 1.0
C      1  0.5398800000000  0.5204140000000  0.4453770000000 1.0
C      1  0.5544930000000  0.5478360000000  0.4755910000000 1.0
C      1  0.4436550000000  0.5442030000000  0.5224960000000 1.0
C      1  0.4467120000000  0.4566500000000  0.4764820000000 1.0
C      1  0.5197510000000  0.4392200000000  0.5472800000000 1.0
C      1  0.4785070000000  0.4371330000000  0.4523330000000 1.0
C      1  0.4777060000000  0.5554110000000  0.5450320000000 1.0
C      1  0.5101820000000  0.5414270000000  0.5172320000000 1.0
C      1  0.5444530000000  0.5191160000000  0.5076160000000 1.0
C      1  0.5215970000000  0.5092620000000  0.5411380000000 1.0
C      1  0.5081510000000  0.4524670000000  0.4790740000000 1.0
C      1  0.4887240000000  0.5438020000000  0.4793430000000 1.0
C      1  0.4902890000000  0.4567330000000  0.5206660000000 1.0
C      1  0.5389510000000  0.4786310000000  0.4898130000000 1.0
C      1  0.4568710000000  0.5186630000000  0.4897170000000 1.0
C      1  0.4583990000000  0.4816000000000  0.5101600000000 1.0
C      1  0.5161200000000  0.4860410000000  0.4554780000000 1.0
C      1  0.4796950000000  0.5109820000000  0.4555320000000 1.0
C      1  0.4802850000000  0.4887560000000  0.5452930000000 1.0
C      1  0.5109450000000  0.5189250000000  0.5407170000000 1.0
C      1  0.5446730000000  0.5091390000000  0.5179410000000 1.0
C      1  0.5205920000000  0.5416840000000  0.5072380000000 1.0
C      1  0.5069420000000  0.4750550000000  0.4552080000000 1.0
C      1  0.4901090000000  0.4782910000000  0.5451750000000 1.0
C      1  0.4896450000000  0.5213570000000  0.4558410000000 1.0
C      1  0.5385570000000  0.4884720000000  0.4793440000000 1.0
C      1  0.4580890000000  0.4910900000000  0.5209500000000 1.0
C      1  0.4571400000000  0.5088280000000  0.4792170000000 1.0
C      1  0.5180070000000  0.4535380000000  0.4894660000000 1.0
C      1  0.4804750000000  0.4576880000000  0.5101320000000 1.0
C      1  0.4788430000000  0.5429850000000  0.4897700000000 1.0
C      1  0.4433430000000  0.5349540000000  0.4545860000000 1.0
C      1  0.5354340000000  0.4518190000000  0.4442760000000 1.0
C      1  0.4535930000000  0.4440680000000  0.5337130000000 1.0
C      1  0.4435360000000  0.4641760000000  0.5442130000000 1.0
C      1  0.5555390000000  0.5359610000000  0.5433050000000 1.0
C      1  0.5544700000000  0.4633980000000  0.4551330000000 1.0
C      1  0.5351170000000  0.5460650000000  0.5534620000000 1.0
C      1  0.4629230000000  0.4529440000000  0.5549690000000 1.0
C      1  0.4629100000000  0.5467520000000  0.4445590000000 1.0
C      1  0.4521930000000  0.5555750000000  0.4652670000000 1.0
C      1  0.5454030000000  0.4424700000000  0.4650030000000 1.0
C      1  0.5449930000000  0.5558840000000  0.5328740000000 1.0
C      1  0.4437580000000  0.4546340000000  0.5335760000000 1.0
C      1  0.5357140000000  0.4416970000000  0.4545300000000 1.0
C      1  0.4533850000000  0.5361000000000  0.4443100000000 1.0
C      1  0.4427300000000  0.5446740000000  0.4650320000000 1.0
C      1  0.5553190000000  0.5458290000000  0.5330080000000 1.0
C      1  0.5548380000000  0.4534000000000  0.4653630000000 1.0
C      1  0.5348780000000  0.5560280000000  0.5429950000000 1.0
C      1  0.4622000000000  0.5565780000000  0.4550820000000 1.0
C      1  0.4631610000000  0.4432340000000  0.5443060000000 1.0
C      1  0.4531500000000  0.4633550000000  0.5549390000000 1.0
C      1  0.5446900000000  0.4626910000000  0.4445530000000 1.0
C      1  0.5454560000000  0.5361670000000  0.5535840000000 1.0
C      1  0.5411160000000  0.5618340000000  0.4899380000000 1.0
C      1  0.5545490000000  0.4884870000000  0.5391630000000 1.0
C      1  0.4889090000000  0.5370990000000  0.5554600000000 1.0
C      1  0.5373060000000  0.4400840000000  0.5110860000000 1.0
C      1  0.4593200000000  0.5585800000000  0.5103920000000 1.0
C      1  0.4613290000000  0.4413440000000  0.4889580000000 1.0
C      1  0.5554950000000  0.5083390000000  0.4606860000000 1.0
C      1  0.4453550000000  0.4885420000000  0.4583830000000 1.0
C      1  0.4415790000000  0.5100700000000  0.5400830000000 1.0
C      1  0.4903940000000  0.4531240000000  0.4380250000000 1.0
C      1  0.5106990000000  0.5423090000000  0.4458050000000 1.0
C      1  0.5086900000000  0.4565500000000  0.5606390000000 1.0
C      1  0.5437480000000  0.4951690000000  0.5631190000000 1.0
C      1  0.5559390000000  0.5394900000000  0.4863610000000 1.0
C      1  0.4880980000000  0.5560730000000  0.5363320000000 1.0
C      1  0.5326590000000  0.5092210000000  0.4444520000000 1.0
C      1  0.4615380000000  0.5094660000000  0.5591860000000 1.0
C      1  0.4581440000000  0.4943780000000  0.4351490000000 1.0
C      1  0.5541260000000  0.4621250000000  0.5115910000000 1.0
C      1  0.4460650000000  0.4643900000000  0.4873140000000 1.0
C      1  0.4427970000000  0.5364500000000  0.5116600000000 1.0
C      1  0.4891100000000  0.4367740000000  0.4603860000000 1.0
C      1  0.5092050000000  0.4389250000000  0.5391370000000 1.0
C      1  0.5050030000000  0.5650210000000  0.4580910000000 1.0
C      1  0.5431450000000  0.4602550000000  0.5593620000000 1.0
C      1  0.5444380000000  0.5540530000000  0.4557050000000 1.0
C      1  0.4591380000000  0.5581210000000  0.5587880000000 1.0
C      1  0.4567320000000  0.4594610000000  0.4395430000000 1.0
END
