TITL C-1887020-2221-41 -4.46375783786068e-06 1000000 -2453.12009240521 0 0 360 (Th) n - 1
REM
REM in /nfs/bkarasulu/CARBON/AIRSS/Generating-Clusters/GAP-ML-2020/Higher-Symm/Selected-Sizes/TryA-Only_Ih-Symm/Larger-Clusters
REM
REM
REM
REM
REM
REM ./C.cell (2cf5181f0f1d4d5b12b972d32ad12063)
REM
REM compiler GCC version 9.2.1 20190827 (Red Hat 9.2.1-1)
REM options -cpp -mtune=generic -march=x86-64 -g -O0 -fpre-include=/usr/include/finclude/math-vector-fortran.h
REM seed -82571912 -1346016596 2127928217 -2612610 623445581 561127190 1686702838 1282574604 1312083057 -1132166639 -770707637 -1406156802 -1635229088 1600818602 530322559 818170459 -922476759 1565883177 1848569674 -743838342 477903763 1439382147 1553067196 1044439943 -1708715979 -2074838666 -1615511357 -2036515475 -1552700004 -1179151453 1324259639 -743536606 1772357524
REM
CELL 1.54180  100.00000  100.00000  100.00000   90.00000   90.00000   90.00000
LATT -1
SFAC C  
C      1  0.5086960000000  0.5318180000000  0.5389640000000 1.0
C      1  0.5318180000000  0.5389640000000  0.5086960000000 1.0
C      1  0.5389640000000  0.5086960000000  0.5318180000000 1.0
C      1  0.4913040000000  0.4681820000000  0.5389640000000 1.0
C      1  0.5086960000000  0.4681820000000  0.4610360000000 1.0
C      1  0.4913040000000  0.5318180000000  0.4610360000000 1.0
C      1  0.4681820000000  0.4610360000000  0.5086960000000 1.0
C      1  0.5318180000000  0.4610360000000  0.4913040000000 1.0
C      1  0.4681820000000  0.5389640000000  0.4913040000000 1.0
C      1  0.4610360000000  0.4913040000000  0.5318180000000 1.0
C      1  0.5389640000000  0.4913040000000  0.4681820000000 1.0
C      1  0.4610360000000  0.5086960000000  0.4681820000000 1.0
C      1  0.5086960000000  0.5318180000000  0.4610360000000 1.0
C      1  0.5318180000000  0.5389640000000  0.4913040000000 1.0
C      1  0.5389640000000  0.5086960000000  0.4681820000000 1.0
C      1  0.4913040000000  0.4681820000000  0.4610360000000 1.0
C      1  0.5086960000000  0.4681820000000  0.5389640000000 1.0
C      1  0.4913040000000  0.5318180000000  0.5389640000000 1.0
C      1  0.4681820000000  0.4610360000000  0.4913040000000 1.0
C      1  0.5318180000000  0.4610360000000  0.5086960000000 1.0
C      1  0.4681820000000  0.5389640000000  0.5086960000000 1.0
C      1  0.4610360000000  0.4913040000000  0.4681820000000 1.0
C      1  0.5389640000000  0.4913040000000  0.5318180000000 1.0
C      1  0.4610360000000  0.5086960000000  0.5318180000000 1.0
C      1  0.5173140000000  0.5086150000000  0.4562230000000 1.0
C      1  0.5086150000000  0.4562230000000  0.5173140000000 1.0
C      1  0.4562230000000  0.5173140000000  0.5086150000000 1.0
C      1  0.4826860000000  0.4913850000000  0.4562230000000 1.0
C      1  0.5173140000000  0.4913850000000  0.5437770000000 1.0
C      1  0.4826860000000  0.5086150000000  0.5437770000000 1.0
C      1  0.4913850000000  0.5437770000000  0.5173140000000 1.0
C      1  0.5086150000000  0.5437770000000  0.4826860000000 1.0
C      1  0.4913850000000  0.4562230000000  0.4826860000000 1.0
C      1  0.5437770000000  0.4826860000000  0.5086150000000 1.0
C      1  0.4562230000000  0.4826860000000  0.4913850000000 1.0
C      1  0.5437770000000  0.5173140000000  0.4913850000000 1.0
C      1  0.5173140000000  0.5086150000000  0.5437770000000 1.0
C      1  0.5086150000000  0.4562230000000  0.4826860000000 1.0
C      1  0.4562230000000  0.5173140000000  0.4913850000000 1.0
C      1  0.4826860000000  0.4913850000000  0.5437770000000 1.0
C      1  0.5173140000000  0.4913850000000  0.4562230000000 1.0
C      1  0.4826860000000  0.5086150000000  0.4562230000000 1.0
C      1  0.4913850000000  0.5437770000000  0.4826860000000 1.0
C      1  0.5086150000000  0.5437770000000  0.5173140000000 1.0
C      1  0.4913850000000  0.4562230000000  0.5173140000000 1.0
C      1  0.5437770000000  0.4826860000000  0.4913850000000 1.0
C      1  0.4562230000000  0.4826860000000  0.5086150000000 1.0
C      1  0.5437770000000  0.5173140000000  0.5086150000000 1.0
C      1  0.4828660000000  0.4925670000000  0.4806600000000 1.0
C      1  0.4925670000000  0.4806600000000  0.4828660000000 1.0
C      1  0.4806600000000  0.4828660000000  0.4925670000000 1.0
C      1  0.5171340000000  0.5074330000000  0.4806600000000 1.0
C      1  0.4828660000000  0.5074330000000  0.5193400000000 1.0
C      1  0.5171340000000  0.4925670000000  0.5193400000000 1.0
C      1  0.5074330000000  0.5193400000000  0.4828660000000 1.0
C      1  0.4925670000000  0.5193400000000  0.5171340000000 1.0
C      1  0.5074330000000  0.4806600000000  0.5171340000000 1.0
C      1  0.5193400000000  0.5171340000000  0.4925670000000 1.0
C      1  0.4806600000000  0.5171340000000  0.5074330000000 1.0
C      1  0.5193400000000  0.4828660000000  0.5074330000000 1.0
C      1  0.4828660000000  0.4925670000000  0.5193400000000 1.0
C      1  0.4925670000000  0.4806600000000  0.5171340000000 1.0
C      1  0.4806600000000  0.4828660000000  0.5074330000000 1.0
C      1  0.5171340000000  0.5074330000000  0.5193400000000 1.0
C      1  0.4828660000000  0.5074330000000  0.4806600000000 1.0
C      1  0.5171340000000  0.4925670000000  0.4806600000000 1.0
C      1  0.5074330000000  0.5193400000000  0.5171340000000 1.0
C      1  0.4925670000000  0.5193400000000  0.4828660000000 1.0
C      1  0.5074330000000  0.4806600000000  0.4828660000000 1.0
C      1  0.5193400000000  0.5171340000000  0.5074330000000 1.0
C      1  0.4806600000000  0.5171340000000  0.4925670000000 1.0
C      1  0.5193400000000  0.4828660000000  0.4925670000000 1.0
C      1  0.4814080000000  0.4277630000000  0.5474110000000 1.0
C      1  0.4277630000000  0.5474110000000  0.4814080000000 1.0
C      1  0.5474110000000  0.4814080000000  0.4277630000000 1.0
C      1  0.5185920000000  0.5722370000000  0.5474110000000 1.0
C      1  0.4814080000000  0.5722370000000  0.4525890000000 1.0
C      1  0.5185920000000  0.4277630000000  0.4525890000000 1.0
C      1  0.5722370000000  0.4525890000000  0.4814080000000 1.0
C      1  0.4277630000000  0.4525890000000  0.5185920000000 1.0
C      1  0.5722370000000  0.5474110000000  0.5185920000000 1.0
C      1  0.4525890000000  0.5185920000000  0.4277630000000 1.0
C      1  0.5474110000000  0.5185920000000  0.5722370000000 1.0
C      1  0.4525890000000  0.4814080000000  0.5722370000000 1.0
C      1  0.4814080000000  0.4277630000000  0.4525890000000 1.0
C      1  0.4277630000000  0.5474110000000  0.5185920000000 1.0
C      1  0.5474110000000  0.4814080000000  0.5722370000000 1.0
C      1  0.5185920000000  0.5722370000000  0.4525890000000 1.0
C      1  0.4814080000000  0.5722370000000  0.5474110000000 1.0
C      1  0.5185920000000  0.4277630000000  0.5474110000000 1.0
C      1  0.5722370000000  0.4525890000000  0.5185920000000 1.0
C      1  0.4277630000000  0.4525890000000  0.4814080000000 1.0
C      1  0.5722370000000  0.5474110000000  0.4814080000000 1.0
C      1  0.4525890000000  0.5185920000000  0.5722370000000 1.0
C      1  0.5474110000000  0.5185920000000  0.4277630000000 1.0
C      1  0.4525890000000  0.4814080000000  0.4277630000000 1.0
C      1  0.4813750000000  0.5430620000000  0.4408010000000 1.0
C      1  0.5430620000000  0.4408010000000  0.4813750000000 1.0
C      1  0.4408010000000  0.4813750000000  0.5430620000000 1.0
C      1  0.5186250000000  0.4569380000000  0.4408010000000 1.0
C      1  0.4813750000000  0.4569380000000  0.5591990000000 1.0
C      1  0.5186250000000  0.5430620000000  0.5591990000000 1.0
C      1  0.4569380000000  0.5591990000000  0.4813750000000 1.0
C      1  0.5430620000000  0.5591990000000  0.5186250000000 1.0
C      1  0.4569380000000  0.4408010000000  0.5186250000000 1.0
C      1  0.5591990000000  0.5186250000000  0.5430620000000 1.0
C      1  0.4408010000000  0.5186250000000  0.4569380000000 1.0
C      1  0.5591990000000  0.4813750000000  0.4569380000000 1.0
C      1  0.4813750000000  0.5430620000000  0.5591990000000 1.0
C      1  0.5430620000000  0.4408010000000  0.5186250000000 1.0
C      1  0.4408010000000  0.4813750000000  0.4569380000000 1.0
C      1  0.5186250000000  0.4569380000000  0.5591990000000 1.0
C      1  0.4813750000000  0.4569380000000  0.4408010000000 1.0
C      1  0.5186250000000  0.5430620000000  0.4408010000000 1.0
C      1  0.4569380000000  0.5591990000000  0.5186250000000 1.0
C      1  0.5430620000000  0.5591990000000  0.4813750000000 1.0
C      1  0.4569380000000  0.4408010000000  0.4813750000000 1.0
C      1  0.5591990000000  0.5186250000000  0.4569380000000 1.0
C      1  0.4408010000000  0.5186250000000  0.5430620000000 1.0
C      1  0.5591990000000  0.4813750000000  0.5430620000000 1.0
C      1  0.4446910000000  0.4735830000000  0.4931150000000 1.0
C      1  0.4735830000000  0.4931150000000  0.4446910000000 1.0
C      1  0.4931150000000  0.4446910000000  0.4735830000000 1.0
C      1  0.5553090000000  0.5264170000000  0.4931150000000 1.0
C      1  0.4446910000000  0.5264170000000  0.5068850000000 1.0
C      1  0.5553090000000  0.4735830000000  0.5068850000000 1.0
C      1  0.5264170000000  0.5068850000000  0.4446910000000 1.0
C      1  0.4735830000000  0.5068850000000  0.5553090000000 1.0
C      1  0.5264170000000  0.4931150000000  0.5553090000000 1.0
C      1  0.5068850000000  0.5553090000000  0.4735830000000 1.0
C      1  0.4931150000000  0.5553090000000  0.5264170000000 1.0
C      1  0.5068850000000  0.4446910000000  0.5264170000000 1.0
C      1  0.4446910000000  0.4735830000000  0.5068850000000 1.0
C      1  0.4735830000000  0.4931150000000  0.5553090000000 1.0
C      1  0.4931150000000  0.4446910000000  0.5264170000000 1.0
C      1  0.5553090000000  0.5264170000000  0.5068850000000 1.0
C      1  0.4446910000000  0.5264170000000  0.4931150000000 1.0
C      1  0.5553090000000  0.4735830000000  0.4931150000000 1.0
C      1  0.5264170000000  0.5068850000000  0.5553090000000 1.0
C      1  0.4735830000000  0.5068850000000  0.4446910000000 1.0
C      1  0.5264170000000  0.4931150000000  0.4446910000000 1.0
C      1  0.5068850000000  0.5553090000000  0.5264170000000 1.0
C      1  0.4931150000000  0.5553090000000  0.4735830000000 1.0
C      1  0.5068850000000  0.4446910000000  0.4735830000000 1.0
C      1  0.5449390000000  0.5068950000000  0.5179880000000 1.0
C      1  0.5068950000000  0.5179880000000  0.5449390000000 1.0
C      1  0.5179880000000  0.5449390000000  0.5068950000000 1.0
C      1  0.4550610000000  0.4931050000000  0.5179880000000 1.0
C      1  0.5449390000000  0.4931050000000  0.4820120000000 1.0
C      1  0.4550610000000  0.5068950000000  0.4820120000000 1.0
C      1  0.4931050000000  0.4820120000000  0.5449390000000 1.0
C      1  0.5068950000000  0.4820120000000  0.4550610000000 1.0
C      1  0.4931050000000  0.5179880000000  0.4550610000000 1.0
C      1  0.4820120000000  0.4550610000000  0.5068950000000 1.0
C      1  0.5179880000000  0.4550610000000  0.4931050000000 1.0
C      1  0.4820120000000  0.5449390000000  0.4931050000000 1.0
C      1  0.5449390000000  0.5068950000000  0.4820120000000 1.0
C      1  0.5068950000000  0.5179880000000  0.4550610000000 1.0
C      1  0.5179880000000  0.5449390000000  0.4931050000000 1.0
C      1  0.4550610000000  0.4931050000000  0.4820120000000 1.0
C      1  0.5449390000000  0.4931050000000  0.5179880000000 1.0
C      1  0.4550610000000  0.5068950000000  0.5179880000000 1.0
C      1  0.4931050000000  0.4820120000000  0.4550610000000 1.0
C      1  0.5068950000000  0.4820120000000  0.5449390000000 1.0
C      1  0.4931050000000  0.5179880000000  0.5449390000000 1.0
C      1  0.4820120000000  0.4550610000000  0.4931050000000 1.0
C      1  0.5179880000000  0.4550610000000  0.5068950000000 1.0
C      1  0.4820120000000  0.5449390000000  0.5068950000000 1.0
C      1  0.4377570000000  0.5321610000000  0.5387200000000 1.0
C      1  0.5321610000000  0.5387200000000  0.4377570000000 1.0
C      1  0.5387200000000  0.4377570000000  0.5321610000000 1.0
C      1  0.5622430000000  0.4678390000000  0.5387200000000 1.0
C      1  0.4377570000000  0.4678390000000  0.4612800000000 1.0
C      1  0.5622430000000  0.5321610000000  0.4612800000000 1.0
C      1  0.4678390000000  0.4612800000000  0.4377570000000 1.0
C      1  0.5321610000000  0.4612800000000  0.5622430000000 1.0
C      1  0.4678390000000  0.5387200000000  0.5622430000000 1.0
C      1  0.4612800000000  0.5622430000000  0.5321610000000 1.0
C      1  0.5387200000000  0.5622430000000  0.4678390000000 1.0
C      1  0.4612800000000  0.4377570000000  0.4678390000000 1.0
C      1  0.4377570000000  0.5321610000000  0.4612800000000 1.0
C      1  0.5321610000000  0.5387200000000  0.5622430000000 1.0
C      1  0.5387200000000  0.4377570000000  0.4678390000000 1.0
C      1  0.5622430000000  0.4678390000000  0.4612800000000 1.0
C      1  0.4377570000000  0.4678390000000  0.5387200000000 1.0
C      1  0.5622430000000  0.5321610000000  0.5387200000000 1.0
C      1  0.4678390000000  0.4612800000000  0.5622430000000 1.0
C      1  0.5321610000000  0.4612800000000  0.4377570000000 1.0
C      1  0.4678390000000  0.5387200000000  0.4377570000000 1.0
C      1  0.4612800000000  0.5622430000000  0.4678390000000 1.0
C      1  0.5387200000000  0.5622430000000  0.5321610000000 1.0
C      1  0.4612800000000  0.4377570000000  0.5321610000000 1.0
C      1  0.5146440000000  0.5553450000000  0.4615710000000 1.0
C      1  0.5553450000000  0.4615710000000  0.5146440000000 1.0
C      1  0.4615710000000  0.5146440000000  0.5553450000000 1.0
C      1  0.4853560000000  0.4446550000000  0.4615710000000 1.0
C      1  0.5146440000000  0.4446550000000  0.5384290000000 1.0
C      1  0.4853560000000  0.5553450000000  0.5384290000000 1.0
C      1  0.4446550000000  0.5384290000000  0.5146440000000 1.0
C      1  0.5553450000000  0.5384290000000  0.4853560000000 1.0
C      1  0.4446550000000  0.4615710000000  0.4853560000000 1.0
C      1  0.5384290000000  0.4853560000000  0.5553450000000 1.0
C      1  0.4615710000000  0.4853560000000  0.4446550000000 1.0
C      1  0.5384290000000  0.5146440000000  0.4446550000000 1.0
C      1  0.5146440000000  0.5553450000000  0.5384290000000 1.0
C      1  0.5553450000000  0.4615710000000  0.4853560000000 1.0
C      1  0.4615710000000  0.5146440000000  0.4446550000000 1.0
C      1  0.4853560000000  0.4446550000000  0.5384290000000 1.0
C      1  0.5146440000000  0.4446550000000  0.4615710000000 1.0
C      1  0.4853560000000  0.5553450000000  0.4615710000000 1.0
C      1  0.4446550000000  0.5384290000000  0.4853560000000 1.0
C      1  0.5553450000000  0.5384290000000  0.5146440000000 1.0
C      1  0.4446550000000  0.4615710000000  0.5146440000000 1.0
C      1  0.5384290000000  0.4853560000000  0.4446550000000 1.0
C      1  0.4615710000000  0.4853560000000  0.5553450000000 1.0
C      1  0.5384290000000  0.5146440000000  0.5553450000000 1.0
C      1  0.4550360000000  0.5161690000000  0.4577960000000 1.0
C      1  0.5161690000000  0.4577960000000  0.4550360000000 1.0
C      1  0.4577960000000  0.4550360000000  0.5161690000000 1.0
C      1  0.5449640000000  0.4838310000000  0.4577960000000 1.0
C      1  0.4550360000000  0.4838310000000  0.5422040000000 1.0
C      1  0.5449640000000  0.5161690000000  0.5422040000000 1.0
C      1  0.4838310000000  0.5422040000000  0.4550360000000 1.0
C      1  0.5161690000000  0.5422040000000  0.5449640000000 1.0
C      1  0.4838310000000  0.4577960000000  0.5449640000000 1.0
C      1  0.5422040000000  0.5449640000000  0.5161690000000 1.0
C      1  0.4577960000000  0.5449640000000  0.4838310000000 1.0
C      1  0.5422040000000  0.4550360000000  0.4838310000000 1.0
C      1  0.4550360000000  0.5161690000000  0.5422040000000 1.0
C      1  0.5161690000000  0.4577960000000  0.5449640000000 1.0
C      1  0.4577960000000  0.4550360000000  0.4838310000000 1.0
C      1  0.5449640000000  0.4838310000000  0.5422040000000 1.0
C      1  0.4550360000000  0.4838310000000  0.4577960000000 1.0
C      1  0.5449640000000  0.5161690000000  0.4577960000000 1.0
C      1  0.4838310000000  0.5422040000000  0.5449640000000 1.0
C      1  0.5161690000000  0.5422040000000  0.4550360000000 1.0
C      1  0.4838310000000  0.4577960000000  0.4550360000000 1.0
C      1  0.5422040000000  0.5449640000000  0.4838310000000 1.0
C      1  0.4577960000000  0.5449640000000  0.5161690000000 1.0
C      1  0.5422040000000  0.4550360000000  0.5161690000000 1.0
C      1  0.5260310000000  0.5654280000000  0.5381480000000 1.0
C      1  0.5654280000000  0.5381480000000  0.5260310000000 1.0
C      1  0.5381480000000  0.5260310000000  0.5654280000000 1.0
C      1  0.4739690000000  0.4345720000000  0.5381480000000 1.0
C      1  0.5260310000000  0.4345720000000  0.4618520000000 1.0
C      1  0.4739690000000  0.5654280000000  0.4618520000000 1.0
C      1  0.4345720000000  0.4618520000000  0.5260310000000 1.0
C      1  0.5654280000000  0.4618520000000  0.4739690000000 1.0
C      1  0.4345720000000  0.5381480000000  0.4739690000000 1.0
C      1  0.4618520000000  0.4739690000000  0.5654280000000 1.0
C      1  0.5381480000000  0.4739690000000  0.4345720000000 1.0
C      1  0.4618520000000  0.5260310000000  0.4345720000000 1.0
C      1  0.5260310000000  0.5654280000000  0.4618520000000 1.0
C      1  0.5654280000000  0.5381480000000  0.4739690000000 1.0
C      1  0.5381480000000  0.5260310000000  0.4345720000000 1.0
C      1  0.4739690000000  0.4345720000000  0.4618520000000 1.0
C      1  0.5260310000000  0.4345720000000  0.5381480000000 1.0
C      1  0.4739690000000  0.5654280000000  0.5381480000000 1.0
C      1  0.4345720000000  0.4618520000000  0.4739690000000 1.0
C      1  0.5654280000000  0.4618520000000  0.5260310000000 1.0
C      1  0.4345720000000  0.5381480000000  0.5260310000000 1.0
C      1  0.4618520000000  0.4739690000000  0.4345720000000 1.0
C      1  0.5381480000000  0.4739690000000  0.5654280000000 1.0
C      1  0.4618520000000  0.5260310000000  0.5654280000000 1.0
C      1  0.5071610000000  0.5520100000000  0.4383950000000 1.0
C      1  0.5520100000000  0.4383950000000  0.5071610000000 1.0
C      1  0.4383950000000  0.5071610000000  0.5520100000000 1.0
C      1  0.4928390000000  0.4479900000000  0.4383950000000 1.0
C      1  0.5071610000000  0.4479900000000  0.5616050000000 1.0
C      1  0.4928390000000  0.5520100000000  0.5616050000000 1.0
C      1  0.4479900000000  0.5616050000000  0.5071610000000 1.0
C      1  0.5520100000000  0.5616050000000  0.4928390000000 1.0
C      1  0.4479900000000  0.4383950000000  0.4928390000000 1.0
C      1  0.5616050000000  0.4928390000000  0.5520100000000 1.0
C      1  0.4383950000000  0.4928390000000  0.4479900000000 1.0
C      1  0.5616050000000  0.5071610000000  0.4479900000000 1.0
C      1  0.5071610000000  0.5520100000000  0.5616050000000 1.0
C      1  0.5520100000000  0.4383950000000  0.4928390000000 1.0
C      1  0.4383950000000  0.5071610000000  0.4479900000000 1.0
C      1  0.4928390000000  0.4479900000000  0.5616050000000 1.0
C      1  0.5071610000000  0.4479900000000  0.4383950000000 1.0
C      1  0.4928390000000  0.5520100000000  0.4383950000000 1.0
C      1  0.4479900000000  0.5616050000000  0.4928390000000 1.0
C      1  0.5520100000000  0.5616050000000  0.5071610000000 1.0
C      1  0.4479900000000  0.4383950000000  0.5071610000000 1.0
C      1  0.5616050000000  0.4928390000000  0.4479900000000 1.0
C      1  0.4383950000000  0.4928390000000  0.5520100000000 1.0
C      1  0.5616050000000  0.5071610000000  0.5520100000000 1.0
C      1  0.4479060000000  0.5416050000000  0.4565270000000 1.0
C      1  0.5416050000000  0.4565270000000  0.4479060000000 1.0
C      1  0.4565270000000  0.4479060000000  0.5416050000000 1.0
C      1  0.5520940000000  0.4583950000000  0.4565270000000 1.0
C      1  0.4479060000000  0.4583950000000  0.5434730000000 1.0
C      1  0.5520940000000  0.5416050000000  0.5434730000000 1.0
C      1  0.4583950000000  0.5434730000000  0.4479060000000 1.0
C      1  0.5416050000000  0.5434730000000  0.5520940000000 1.0
C      1  0.4583950000000  0.4565270000000  0.5520940000000 1.0
C      1  0.5434730000000  0.5520940000000  0.5416050000000 1.0
C      1  0.4565270000000  0.5520940000000  0.4583950000000 1.0
C      1  0.5434730000000  0.4479060000000  0.4583950000000 1.0
C      1  0.4479060000000  0.5416050000000  0.5434730000000 1.0
C      1  0.5416050000000  0.4565270000000  0.5520940000000 1.0
C      1  0.4565270000000  0.4479060000000  0.4583950000000 1.0
C      1  0.5520940000000  0.4583950000000  0.5434730000000 1.0
C      1  0.4479060000000  0.4583950000000  0.4565270000000 1.0
C      1  0.5520940000000  0.5416050000000  0.4565270000000 1.0
C      1  0.4583950000000  0.5434730000000  0.5520940000000 1.0
C      1  0.5416050000000  0.5434730000000  0.4479060000000 1.0
C      1  0.4583950000000  0.4565270000000  0.4479060000000 1.0
C      1  0.5434730000000  0.5520940000000  0.4583950000000 1.0
C      1  0.4565270000000  0.5520940000000  0.5416050000000 1.0
C      1  0.5434730000000  0.4479060000000  0.5416050000000 1.0
C      1  0.5636470000000  0.5508580000000  0.5075330000000 1.0
C      1  0.5508580000000  0.5075330000000  0.5636470000000 1.0
C      1  0.5075330000000  0.5636470000000  0.5508580000000 1.0
C      1  0.4363530000000  0.4491420000000  0.5075330000000 1.0
C      1  0.5636470000000  0.4491420000000  0.4924670000000 1.0
C      1  0.4363530000000  0.5508580000000  0.4924670000000 1.0
C      1  0.4491420000000  0.4924670000000  0.5636470000000 1.0
C      1  0.5508580000000  0.4924670000000  0.4363530000000 1.0
C      1  0.4491420000000  0.5075330000000  0.4363530000000 1.0
C      1  0.4924670000000  0.4363530000000  0.5508580000000 1.0
C      1  0.5075330000000  0.4363530000000  0.4491420000000 1.0
C      1  0.4924670000000  0.5636470000000  0.4491420000000 1.0
C      1  0.5636470000000  0.5508580000000  0.4924670000000 1.0
C      1  0.5508580000000  0.5075330000000  0.4363530000000 1.0
C      1  0.5075330000000  0.5636470000000  0.4491420000000 1.0
C      1  0.4363530000000  0.4491420000000  0.4924670000000 1.0
C      1  0.5636470000000  0.4491420000000  0.5075330000000 1.0
C      1  0.4363530000000  0.5508580000000  0.5075330000000 1.0
C      1  0.4491420000000  0.4924670000000  0.4363530000000 1.0
C      1  0.5508580000000  0.4924670000000  0.5636470000000 1.0
C      1  0.4491420000000  0.5075330000000  0.5636470000000 1.0
C      1  0.4924670000000  0.4363530000000  0.4491420000000 1.0
C      1  0.5075330000000  0.4363530000000  0.5508580000000 1.0
C      1  0.4924670000000  0.5636470000000  0.5508580000000 1.0
C      1  0.5115880000000  0.4686310000000  0.5248440000000 1.0
C      1  0.4686310000000  0.5248440000000  0.5115880000000 1.0
C      1  0.5248440000000  0.5115880000000  0.4686310000000 1.0
C      1  0.4884120000000  0.5313690000000  0.5248440000000 1.0
C      1  0.5115880000000  0.5313690000000  0.4751560000000 1.0
C      1  0.4884120000000  0.4686310000000  0.4751560000000 1.0
C      1  0.5313690000000  0.4751560000000  0.5115880000000 1.0
C      1  0.4686310000000  0.4751560000000  0.4884120000000 1.0
C      1  0.5313690000000  0.5248440000000  0.4884120000000 1.0
C      1  0.4751560000000  0.4884120000000  0.4686310000000 1.0
C      1  0.5248440000000  0.4884120000000  0.5313690000000 1.0
C      1  0.4751560000000  0.5115880000000  0.5313690000000 1.0
C      1  0.5115880000000  0.4686310000000  0.4751560000000 1.0
C      1  0.4686310000000  0.5248440000000  0.4884120000000 1.0
C      1  0.5248440000000  0.5115880000000  0.5313690000000 1.0
C      1  0.4884120000000  0.5313690000000  0.4751560000000 1.0
C      1  0.5115880000000  0.5313690000000  0.5248440000000 1.0
C      1  0.4884120000000  0.4686310000000  0.5248440000000 1.0
C      1  0.5313690000000  0.4751560000000  0.4884120000000 1.0
C      1  0.4686310000000  0.4751560000000  0.5115880000000 1.0
C      1  0.5313690000000  0.5248440000000  0.5115880000000 1.0
C      1  0.4751560000000  0.4884120000000  0.5313690000000 1.0
C      1  0.5248440000000  0.4884120000000  0.4686310000000 1.0
C      1  0.4751560000000  0.5115880000000  0.4686310000000 1.0
END
