TITL C-1892075-7045-14 -3.85761872376908e-07 1000000 -1800.193065964 0 0 260 (C3) n - 1
REM
REM in /nfs/bkarasulu/CARBON/AIRSS/Generating-Clusters/GAP-ML-2020/Higher-Symm/Selected-Sizes/TryA-Only_Ih-Symm/Larger-Clusters
REM
REM
REM
REM
REM
REM ./C.cell (2cf5181f0f1d4d5b12b972d32ad12063)
REM
REM compiler GCC version 9.2.1 20190827 (Red Hat 9.2.1-1)
REM options -cpp -mtune=generic -march=x86-64 -g -O0 -fpre-include=/usr/include/finclude/math-vector-fortran.h
REM seed -1591759744 1071259491 1042947422 632688950 -2102997338 194133122 -1643979178 -1452730818 959338722 1346899216 -1201174553 1436176589 758530946 416514891 694450269 -1348221277 707459585 2034942558 1331217968 197077188 -47283317 -820155093 1991292536 -214594882 1125896576 -104265317 1562094418 1039087337 353806526 -1453109315 1205943103 -1820561392 907710776
REM
CELL 1.54180  100.00000  100.00000  100.00000   90.00000   90.00000   90.00000
LATT -1
SFAC C  
C      1  0.5507330000000  0.5069930000000  0.5169790000000 1.0
C      1  0.5073950000000  0.5169410000000  0.5507990000000 1.0
C      1  0.5175970000000  0.5500100000000  0.5070620000000 1.0
C      1  0.4489230000000  0.4922880000000  0.5169780000000 1.0
C      1  0.5512910000000  0.4922880000000  0.4820460000000 1.0
C      1  0.4496740000000  0.5070250000000  0.4821240000000 1.0
C      1  0.4926580000000  0.4820860000000  0.5500480000000 1.0
C      1  0.5073940000000  0.4820080000000  0.4484280000000 1.0
C      1  0.4926900000000  0.5169410000000  0.4489870000000 1.0
C      1  0.4827420000000  0.4489500000000  0.5070310000000 1.0
C      1  0.5176740000000  0.4483910000000  0.4923270000000 1.0
C      1  0.4827430000000  0.5507610000000  0.4923260000000 1.0
C      1  0.5506510000000  0.5070020000000  0.4820750000000 1.0
C      1  0.5074070000000  0.5169670000000  0.4483400000000 1.0
C      1  0.5176290000000  0.5506570000000  0.4923400000000 1.0
C      1  0.4490270000000  0.4923020000000  0.4820930000000 1.0
C      1  0.5513790000000  0.4922750000000  0.5170050000000 1.0
C      1  0.4495780000000  0.5070160000000  0.5169480000000 1.0
C      1  0.4926800000000  0.4820370000000  0.4490680000000 1.0
C      1  0.5073810000000  0.4820550000000  0.5506950000000 1.0
C      1  0.4926680000000  0.5169100000000  0.5501440000000 1.0
C      1  0.4827150000000  0.4483030000000  0.4923140000000 1.0
C      1  0.5176460000000  0.4490310000000  0.5070400000000 1.0
C      1  0.4827740000000  0.5501060000000  0.5070530000000 1.0
C      1  0.4527240000000  0.4452540000000  0.5248870000000 1.0
C      1  0.4462380000000  0.5248710000000  0.4521340000000 1.0
C      1  0.5256680000000  0.4524580000000  0.4451490000000 1.0
C      1  0.5475870000000  0.5534460000000  0.5249080000000 1.0
C      1  0.4530020000000  0.5537170000000  0.4740590000000 1.0
C      1  0.5472240000000  0.4451110000000  0.4740520000000 1.0
C      1  0.5545700000000  0.4740140000000  0.4524960000000 1.0
C      1  0.4459670000000  0.4740220000000  0.5467200000000 1.0
C      1  0.5544300000000  0.5248490000000  0.5469970000000 1.0
C      1  0.4748340000000  0.5469590000000  0.4452910000000 1.0
C      1  0.5256630000000  0.5466820000000  0.5537540000000 1.0
C      1  0.4748120000000  0.4520970000000  0.5534840000000 1.0
C      1  0.4530670000000  0.4450270000000  0.4740500000000 1.0
C      1  0.4461480000000  0.5248830000000  0.5470280000000 1.0
C      1  0.5256660000000  0.4524200000000  0.5536390000000 1.0
C      1  0.5472630000000  0.5536000000000  0.4740540000000 1.0
C      1  0.4526930000000  0.5535360000000  0.5249200000000 1.0
C      1  0.5475850000000  0.4453110000000  0.5248730000000 1.0
C      1  0.5546560000000  0.4740110000000  0.5466530000000 1.0
C      1  0.4460820000000  0.4740170000000  0.4524580000000 1.0
C      1  0.5543720000000  0.5248340000000  0.4521350000000 1.0
C      1  0.4748020000000  0.5469910000000  0.5535730000000 1.0
C      1  0.5256720000000  0.5466160000000  0.4450640000000 1.0
C      1  0.4748470000000  0.4520970000000  0.4453490000000 1.0
C      1  0.5123970000000  0.5418180000000  0.4427240000000 1.0
C      1  0.5426600000000  0.4435730000000  0.5116240000000 1.0
C      1  0.4443190000000  0.5116320000000  0.5420680000000 1.0
C      1  0.4880960000000  0.4570220000000  0.4436110000000 1.0
C      1  0.5124030000000  0.4572010000000  0.5561180000000 1.0
C      1  0.4880520000000  0.5420310000000  0.5554030000000 1.0
C      1  0.4576530000000  0.5553660000000  0.5116690000000 1.0
C      1  0.5424830000000  0.5560790000000  0.4873170000000 1.0
C      1  0.4578650000000  0.4426870000000  0.4873240000000 1.0
C      1  0.5569950000000  0.4872860000000  0.5418550000000 1.0
C      1  0.4436040000000  0.4872800000000  0.4572390000000 1.0
C      1  0.5561090000000  0.5115860000000  0.4570600000000 1.0
C      1  0.5123990000000  0.5418640000000  0.5562100000000 1.0
C      1  0.5424570000000  0.4427560000000  0.4873230000000 1.0
C      1  0.4443890000000  0.5116270000000  0.4570660000000 1.0
C      1  0.4880570000000  0.4570280000000  0.5553330000000 1.0
C      1  0.5123970000000  0.4572250000000  0.4427940000000 1.0
C      1  0.4880920000000  0.5420150000000  0.4435630000000 1.0
C      1  0.4578200000000  0.5561730000000  0.4873230000000 1.0
C      1  0.5426560000000  0.5552950000000  0.5116640000000 1.0
C      1  0.4576680000000  0.4435260000000  0.5116300000000 1.0
C      1  0.5569250000000  0.4872850000000  0.4572630000000 1.0
C      1  0.4435110000000  0.4872860000000  0.5419020000000 1.0
C      1  0.5561570000000  0.5115910000000  0.5420520000000 1.0
C      1  0.5564910000000  0.5376590000000  0.5405290000000 1.0
C      1  0.5385340000000  0.5403850000000  0.5556110000000 1.0
C      1  0.5411340000000  0.5554560000000  0.5377020000000 1.0
C      1  0.4441100000000  0.4611510000000  0.5404230000000 1.0
C      1  0.5562770000000  0.4610780000000  0.4587600000000 1.0
C      1  0.4442270000000  0.5376650000000  0.4585880000000 1.0
C      1  0.4620180000000  0.4585500000000  0.5554950000000 1.0
C      1  0.5386040000000  0.4587220000000  0.4434430000000 1.0
C      1  0.4620240000000  0.5404920000000  0.4432300000000 1.0
C      1  0.4591920000000  0.4431930000000  0.5376980000000 1.0
C      1  0.5409600000000  0.4434050000000  0.4611160000000 1.0
C      1  0.4592990000000  0.5555740000000  0.4611870000000 1.0
C      1  0.5563270000000  0.5376610000000  0.4586050000000 1.0
C      1  0.5385840000000  0.5403390000000  0.4432490000000 1.0
C      1  0.5409900000000  0.5553600000000  0.4611570000000 1.0
C      1  0.4443230000000  0.4611200000000  0.4587320000000 1.0
C      1  0.5564710000000  0.4610990000000  0.5403770000000 1.0
C      1  0.4440390000000  0.5376600000000  0.5405690000000 1.0
C      1  0.4620210000000  0.4585670000000  0.4433940000000 1.0
C      1  0.5385630000000  0.4586930000000  0.5553980000000 1.0
C      1  0.4620250000000  0.5405330000000  0.5556820000000 1.0
C      1  0.4593430000000  0.4432110000000  0.4611370000000 1.0
C      1  0.5411150000000  0.4433560000000  0.5376990000000 1.0
C      1  0.4591520000000  0.5556450000000  0.5376970000000 1.0
C      1  0.4837830000000  0.4921540000000  0.4456030000000 1.0
C      1  0.4929270000000  0.4449120000000  0.4834470000000 1.0
C      1  0.4455900000000  0.4833800000000  0.4922170000000 1.0
C      1  0.5162740000000  0.5067550000000  0.4449490000000 1.0
C      1  0.4837570000000  0.5067890000000  0.5535820000000 1.0
C      1  0.5163040000000  0.4921790000000  0.5541320000000 1.0
C      1  0.5075050000000  0.5540930000000  0.4834170000000 1.0
C      1  0.4928950000000  0.5535440000000  0.5159650000000 1.0
C      1  0.5075290000000  0.4455660000000  0.5159380000000 1.0
C      1  0.5541160000000  0.5159000000000  0.4921920000000 1.0
C      1  0.4461400000000  0.5159270000000  0.5068260000000 1.0
C      1  0.5547710000000  0.4834080000000  0.5067930000000 1.0
C      1  0.4837270000000  0.4921670000000  0.5535240000000 1.0
C      1  0.4928930000000  0.4455140000000  0.5159110000000 1.0
C      1  0.4455400000000  0.4833900000000  0.5067950000000 1.0
C      1  0.5162930000000  0.5067570000000  0.5541820000000 1.0
C      1  0.4838100000000  0.5067890000000  0.4455510000000 1.0
C      1  0.5162850000000  0.4921640000000  0.4449930000000 1.0
C      1  0.5075170000000  0.5534850000000  0.5159940000000 1.0
C      1  0.4929270000000  0.5541430000000  0.4834270000000 1.0
C      1  0.5075180000000  0.4449560000000  0.4834350000000 1.0
C      1  0.5541690000000  0.5158720000000  0.5068270000000 1.0
C      1  0.4461980000000  0.5159560000000  0.4922050000000 1.0
C      1  0.5547270000000  0.4833970000000  0.4922020000000 1.0
C      1  0.5078710000000  0.4678780000000  0.4512140000000 1.0
C      1  0.4684320000000  0.4518130000000  0.5071590000000 1.0
C      1  0.4525940000000  0.5071500000000  0.4678620000000 1.0
C      1  0.4925620000000  0.5312500000000  0.4518500000000 1.0
C      1  0.5078710000000  0.5310630000000  0.5479700000000 1.0
C      1  0.4925330000000  0.4678240000000  0.5471280000000 1.0
C      1  0.5318600000000  0.5470890000000  0.5071880000000 1.0
C      1  0.4686210000000  0.5479320000000  0.4918500000000 1.0
C      1  0.5318040000000  0.4511760000000  0.4918500000000 1.0
C      1  0.5485050000000  0.4918110000000  0.4679160000000 1.0
C      1  0.4517520000000  0.4918130000000  0.5311010000000 1.0
C      1  0.5478700000000  0.5071210000000  0.5312880000000 1.0
C      1  0.5078570000000  0.4679520000000  0.5478510000000 1.0
C      1  0.4685670000000  0.4510820000000  0.4918350000000 1.0
C      1  0.4524920000000  0.5071470000000  0.5312290000000 1.0
C      1  0.4925370000000  0.5311910000000  0.5472300000000 1.0
C      1  0.5078860000000  0.5311150000000  0.4511190000000 1.0
C      1  0.4925550000000  0.4677440000000  0.4519290000000 1.0
C      1  0.5317310000000  0.5478130000000  0.4918630000000 1.0
C      1  0.4684930000000  0.5471920000000  0.5071840000000 1.0
C      1  0.5319380000000  0.4518920000000  0.5071650000000 1.0
C      1  0.5486010000000  0.4917970000000  0.5311530000000 1.0
C      1  0.4518710000000  0.4918260000000  0.4679900000000 1.0
C      1  0.5477900000000  0.5071270000000  0.4677820000000 1.0
C      1  0.5382790000000  0.4826610000000  0.5626650000000 1.0
C      1  0.4832550000000  0.5631950000000  0.5374100000000 1.0
C      1  0.5636990000000  0.5374230000000  0.4825910000000 1.0
C      1  0.4623110000000  0.5164300000000  0.5632330000000 1.0
C      1  0.5381140000000  0.5162610000000  0.4361110000000 1.0
C      1  0.4622590000000  0.4825530000000  0.4360210000000 1.0
C      1  0.5171290000000  0.4359830000000  0.5374620000000 1.0
C      1  0.4834210000000  0.4360740000000  0.4616070000000 1.0
C      1  0.5170220000000  0.5626270000000  0.4614410000000 1.0
C      1  0.4370560000000  0.4614050000000  0.4827000000000 1.0
C      1  0.5636080000000  0.4615680000000  0.5162990000000 1.0
C      1  0.4364890000000  0.5373730000000  0.5164670000000 1.0
C      1  0.5382730000000  0.4826970000000  0.4363670000000 1.0
C      1  0.4833780000000  0.5628870000000  0.4616000000000 1.0
C      1  0.5638800000000  0.5373400000000  0.5164200000000 1.0
C      1  0.4623430000000  0.5163830000000  0.4358400000000 1.0
C      1  0.5381200000000  0.5163060000000  0.5629250000000 1.0
C      1  0.4622220000000  0.4825200000000  0.5630510000000 1.0
C      1  0.5169840000000  0.4363290000000  0.4614470000000 1.0
C      1  0.4833000000000  0.4358030000000  0.5373790000000 1.0
C      1  0.5171640000000  0.5630120000000  0.5374990000000 1.0
C      1  0.4367960000000  0.4615640000000  0.5163440000000 1.0
C      1  0.5633530000000  0.4614090000000  0.4827350000000 1.0
C      1  0.4366720000000  0.5374610000000  0.4825580000000 1.0
C      1  0.4921300000000  0.5312280000000  0.5831780000000 1.0
C      1  0.5413500000000  0.5769520000000  0.5016870000000 1.0
C      1  0.5777720000000  0.5016630000000  0.5406010000000 1.0
C      1  0.4980330000000  0.4583340000000  0.5769900000000 1.0
C      1  0.4921710000000  0.4678740000000  0.4159100000000 1.0
C      1  0.4980200000000  0.5405640000000  0.4219480000000 1.0
C      1  0.4591190000000  0.4219110000000  0.5017020000000 1.0
C      1  0.5318070000000  0.4158720000000  0.5075490000000 1.0
C      1  0.4684580000000  0.5831410000000  0.5075910000000 1.0
C      1  0.4165430000000  0.5075540000000  0.5312650000000 1.0
C      1  0.5838100000000  0.5075100000000  0.4679130000000 1.0
C      1  0.4227320000000  0.5016500000000  0.4583720000000 1.0
C      1  0.4921690000000  0.5311010000000  0.4158580000000 1.0
C      1  0.5319240000000  0.5830720000000  0.5075830000000 1.0
C      1  0.5777130000000  0.5016500000000  0.4584580000000 1.0
C      1  0.4980310000000  0.4584200000000  0.4220060000000 1.0
C      1  0.4921370000000  0.4677600000000  0.5831100000000 1.0
C      1  0.4980150000000  0.5406640000000  0.5770690000000 1.0
C      1  0.4685810000000  0.4158220000000  0.5075520000000 1.0
C      1  0.5412620000000  0.4219680000000  0.5016890000000 1.0
C      1  0.4590210000000  0.5770320000000  0.5017060000000 1.0
C      1  0.4166120000000  0.5075460000000  0.4677980000000 1.0
C      1  0.5838620000000  0.5075130000000  0.5311390000000 1.0
C      1  0.4226530000000  0.5016690000000  0.5407020000000 1.0
C      1  0.5075990000000  0.4380740000000  0.4703020000000 1.0
C      1  0.4387200000000  0.4702220000000  0.5068230000000 1.0
C      1  0.4708450000000  0.5067710000000  0.4381160000000 1.0
C      1  0.4928980000000  0.5609630000000  0.4702590000000 1.0
C      1  0.5075500000000  0.5609440000000  0.5289350000000 1.0
C      1  0.4929120000000  0.4380790000000  0.5288770000000 1.0
C      1  0.5616040000000  0.5288380000000  0.5068090000000 1.0
C      1  0.4387390000000  0.5288980000000  0.4921710000000 1.0
C      1  0.5616080000000  0.4702640000000  0.4921210000000 1.0
C      1  0.5294190000000  0.4920830000000  0.4381110000000 1.0
C      1  0.4707860000000  0.4921340000000  0.5609830000000 1.0
C      1  0.5294620000000  0.5067850000000  0.5610010000000 1.0
C      1  0.5075490000000  0.4381000000000  0.5288720000000 1.0
C      1  0.4387460000000  0.4702290000000  0.4921240000000 1.0
C      1  0.4707830000000  0.5067810000000  0.5610080000000 1.0
C      1  0.4929040000000  0.5609700000000  0.5289380000000 1.0
C      1  0.5075980000000  0.5609370000000  0.4702650000000 1.0
C      1  0.4929020000000  0.4380530000000  0.4702970000000 1.0
C      1  0.5615840000000  0.5288330000000  0.4921710000000 1.0
C      1  0.4387140000000  0.5289010000000  0.5068180000000 1.0
C      1  0.5616300000000  0.4702590000000  0.5068180000000 1.0
C      1  0.5294550000000  0.4920860000000  0.5609760000000 1.0
C      1  0.4708490000000  0.4921340000000  0.4381370000000 1.0
C      1  0.5294240000000  0.5067800000000  0.4380900000000 1.0
C      1  0.4569840000000  0.5271290000000  0.5569920000000 1.0
C      1  0.5276690000000  0.5566010000000  0.4558800000000 1.0
C      1  0.5576610000000  0.4560010000000  0.5270090000000 1.0
C      1  0.5438400000000  0.4720140000000  0.5566390000000 1.0
C      1  0.4568570000000  0.4719450000000  0.4423060000000 1.0
C      1  0.5436820000000  0.5269710000000  0.4420590000000 1.0
C      1  0.4727110000000  0.4420220000000  0.4560390000000 1.0
C      1  0.5277380000000  0.4422680000000  0.5428630000000 1.0
C      1  0.4725550000000  0.5569540000000  0.5427370000000 1.0
C      1  0.4427300000000  0.5427000000000  0.5271660000000 1.0
C      1  0.5574140000000  0.5428250000000  0.4719820000000 1.0
C      1  0.4430820000000  0.4558440000000  0.4720530000000 1.0
C      1  0.4569970000000  0.5270840000000  0.4420550000000 1.0
C      1  0.5277670000000  0.5567010000000  0.5428880000000 1.0
C      1  0.5573570000000  0.4558210000000  0.4720900000000 1.0
C      1  0.5438610000000  0.4720520000000  0.4423630000000 1.0
C      1  0.4568330000000  0.4719170000000  0.5567390000000 1.0
C      1  0.5436480000000  0.5270220000000  0.5569420000000 1.0
C      1  0.4725990000000  0.4420180000000  0.5427250000000 1.0
C      1  0.5276300000000  0.4423250000000  0.4558590000000 1.0
C      1  0.4726620000000  0.5569050000000  0.4560730000000 1.0
C      1  0.4429830000000  0.5428510000000  0.4719550000000 1.0
C      1  0.5576660000000  0.5426860000000  0.5271210000000 1.0
C      1  0.4427790000000  0.4560360000000  0.5270600000000 1.0
C      1  0.5453640000000  0.4352640000000  0.4997480000000 1.0
C      1  0.4999590000000  0.5447010000000  0.4352350000000 1.0
C      1  0.4549530000000  0.5637240000000  0.4997810000000 1.0
C      1  0.4999570000000  0.4543080000000  0.5636730000000 1.0
C      1  0.5644850000000  0.4997240000000  0.5447380000000 1.0
C      1  0.5644180000000  0.4997100000000  0.4543550000000 1.0
C      1  0.4360490000000  0.4997260000000  0.4543460000000 1.0
C      1  0.4359600000000  0.4997440000000  0.5447690000000 1.0
C      1  0.5453760000000  0.5636340000000  0.4997630000000 1.0
C      1  0.4549820000000  0.4351980000000  0.4997630000000 1.0
C      1  0.4999720000000  0.4543170000000  0.4353020000000 1.0
C      1  0.4999400000000  0.5447320000000  0.5637610000000 1.0
C      1  0.5474170000000  0.4522640000000  0.4523020000000 1.0
C      1  0.4530470000000  0.5466570000000  0.4522300000000 1.0
C      1  0.4530260000000  0.4521930000000  0.5466740000000 1.0
C      1  0.5474690000000  0.4522320000000  0.5466210000000 1.0
C      1  0.4529770000000  0.5467080000000  0.5467440000000 1.0
C      1  0.5474510000000  0.5465820000000  0.4522510000000 1.0
C      1  0.5474910000000  0.5466360000000  0.5466950000000 1.0
C      1  0.4531000000000  0.4522140000000  0.4522700000000 1.0
END
