TITL C-1892081-8120-78 2.77566605269594e-06 1000000 -3849.93017039415 0 0 540 (Td) n - 1
REM
REM in /nfs/bkarasulu/CARBON/AIRSS/Generating-Clusters/GAP-ML-2020/Higher-Symm/Selected-Sizes/TryA-Only_Ih-Symm/Larger-Clusters
REM
REM
REM
REM
REM
REM ./C.cell (2cf5181f0f1d4d5b12b972d32ad12063)
REM
REM compiler GCC version 9.2.1 20190827 (Red Hat 9.2.1-1)
REM options -cpp -mtune=generic -march=x86-64 -g -O0 -fpre-include=/usr/include/finclude/math-vector-fortran.h
REM seed 1810970643 -272374109 -1676217841 -1682864278 -1168894290 908801449 -1621695485 329244936 -718947850 1661439675 1230613241 172105060 1570185989 1879718802 1627864493 -1245039434 1867083117 -1097856044 1297401038 -2059321714 -1946826434 -1025400854 -1192067774 597140688 1100948103 -1539502811 1264980250 -1108610230 985944512 373279176 -1398689055 1382763042 647034529
REM
CELL 1.54180  100.00000  100.00000  100.00000   90.00000   90.00000   90.00000
LATT -1
SFAC C  
C      1  0.4460090000000  0.5339860000000  0.5160590000000 1.0
C      1  0.5339860000000  0.5160590000000  0.4460090000000 1.0
C      1  0.5160590000000  0.4460090000000  0.5339860000000 1.0
C      1  0.5539910000000  0.5339860000000  0.4839410000000 1.0
C      1  0.5539910000000  0.4660140000000  0.5160590000000 1.0
C      1  0.4460090000000  0.4660140000000  0.4839410000000 1.0
C      1  0.4660140000000  0.5160590000000  0.5539910000000 1.0
C      1  0.4660140000000  0.4839410000000  0.4460090000000 1.0
C      1  0.5339860000000  0.4839410000000  0.5539910000000 1.0
C      1  0.4839410000000  0.4460090000000  0.4660140000000 1.0
C      1  0.4839410000000  0.5539910000000  0.5339860000000 1.0
C      1  0.5160590000000  0.5539910000000  0.4660140000000 1.0
C      1  0.5160590000000  0.5339860000000  0.4460090000000 1.0
C      1  0.4460090000000  0.5160590000000  0.5339860000000 1.0
C      1  0.5339860000000  0.4460090000000  0.5160590000000 1.0
C      1  0.4839410000000  0.5339860000000  0.5539910000000 1.0
C      1  0.5160590000000  0.4660140000000  0.5539910000000 1.0
C      1  0.4839410000000  0.4660140000000  0.4460090000000 1.0
C      1  0.5539910000000  0.5160590000000  0.4660140000000 1.0
C      1  0.4460090000000  0.4839410000000  0.4660140000000 1.0
C      1  0.5539910000000  0.4839410000000  0.5339860000000 1.0
C      1  0.4660140000000  0.4460090000000  0.4839410000000 1.0
C      1  0.5339860000000  0.5539910000000  0.4839410000000 1.0
C      1  0.4660140000000  0.5539910000000  0.5160590000000 1.0
C      1  0.4850660000000  0.4284560000000  0.4376890000000 1.0
C      1  0.4284560000000  0.4376890000000  0.4850660000000 1.0
C      1  0.4376890000000  0.4850660000000  0.4284560000000 1.0
C      1  0.5149340000000  0.4284560000000  0.5623110000000 1.0
C      1  0.5149340000000  0.5715440000000  0.4376890000000 1.0
C      1  0.4850660000000  0.5715440000000  0.5623110000000 1.0
C      1  0.5715440000000  0.4376890000000  0.5149340000000 1.0
C      1  0.5715440000000  0.5623110000000  0.4850660000000 1.0
C      1  0.4284560000000  0.5623110000000  0.5149340000000 1.0
C      1  0.5623110000000  0.4850660000000  0.5715440000000 1.0
C      1  0.5623110000000  0.5149340000000  0.4284560000000 1.0
C      1  0.4376890000000  0.5149340000000  0.5715440000000 1.0
C      1  0.4376890000000  0.4284560000000  0.4850660000000 1.0
C      1  0.4850660000000  0.4376890000000  0.4284560000000 1.0
C      1  0.4284560000000  0.4850660000000  0.4376890000000 1.0
C      1  0.5623110000000  0.4284560000000  0.5149340000000 1.0
C      1  0.4376890000000  0.5715440000000  0.5149340000000 1.0
C      1  0.5623110000000  0.5715440000000  0.4850660000000 1.0
C      1  0.5149340000000  0.4376890000000  0.5715440000000 1.0
C      1  0.4850660000000  0.5623110000000  0.5715440000000 1.0
C      1  0.5149340000000  0.5623110000000  0.4284560000000 1.0
C      1  0.5715440000000  0.4850660000000  0.5623110000000 1.0
C      1  0.4284560000000  0.5149340000000  0.5623110000000 1.0
C      1  0.5715440000000  0.5149340000000  0.4376890000000 1.0
C      1  0.5217330000000  0.5740900000000  0.5470410000000 1.0
C      1  0.5740900000000  0.5470410000000  0.5217330000000 1.0
C      1  0.5470410000000  0.5217330000000  0.5740900000000 1.0
C      1  0.4782670000000  0.5740900000000  0.4529590000000 1.0
C      1  0.4782670000000  0.4259100000000  0.5470410000000 1.0
C      1  0.5217330000000  0.4259100000000  0.4529590000000 1.0
C      1  0.4259100000000  0.5470410000000  0.4782670000000 1.0
C      1  0.4259100000000  0.4529590000000  0.5217330000000 1.0
C      1  0.5740900000000  0.4529590000000  0.4782670000000 1.0
C      1  0.4529590000000  0.5217330000000  0.4259100000000 1.0
C      1  0.4529590000000  0.4782670000000  0.5740900000000 1.0
C      1  0.5470410000000  0.4782670000000  0.4259100000000 1.0
C      1  0.5470410000000  0.5740900000000  0.5217330000000 1.0
C      1  0.5217330000000  0.5470410000000  0.5740900000000 1.0
C      1  0.5740900000000  0.5217330000000  0.5470410000000 1.0
C      1  0.4529590000000  0.5740900000000  0.4782670000000 1.0
C      1  0.5470410000000  0.4259100000000  0.4782670000000 1.0
C      1  0.4529590000000  0.4259100000000  0.5217330000000 1.0
C      1  0.4782670000000  0.5470410000000  0.4259100000000 1.0
C      1  0.5217330000000  0.4529590000000  0.4259100000000 1.0
C      1  0.4782670000000  0.4529590000000  0.5740900000000 1.0
C      1  0.4259100000000  0.5217330000000  0.4529590000000 1.0
C      1  0.5740900000000  0.4782670000000  0.4529590000000 1.0
C      1  0.4259100000000  0.4782670000000  0.5470410000000 1.0
C      1  0.4170490000000  0.5026380000000  0.4683890000000 1.0
C      1  0.5026380000000  0.4683890000000  0.4170490000000 1.0
C      1  0.4683890000000  0.4170490000000  0.5026380000000 1.0
C      1  0.5829510000000  0.5026380000000  0.5316110000000 1.0
C      1  0.5829510000000  0.4973620000000  0.4683890000000 1.0
C      1  0.4170490000000  0.4973620000000  0.5316110000000 1.0
C      1  0.4973620000000  0.4683890000000  0.5829510000000 1.0
C      1  0.4973620000000  0.5316110000000  0.4170490000000 1.0
C      1  0.5026380000000  0.5316110000000  0.5829510000000 1.0
C      1  0.5316110000000  0.4170490000000  0.4973620000000 1.0
C      1  0.5316110000000  0.5829510000000  0.5026380000000 1.0
C      1  0.4683890000000  0.5829510000000  0.4973620000000 1.0
C      1  0.4683890000000  0.5026380000000  0.4170490000000 1.0
C      1  0.4170490000000  0.4683890000000  0.5026380000000 1.0
C      1  0.5026380000000  0.4170490000000  0.4683890000000 1.0
C      1  0.5316110000000  0.5026380000000  0.5829510000000 1.0
C      1  0.4683890000000  0.4973620000000  0.5829510000000 1.0
C      1  0.5316110000000  0.4973620000000  0.4170490000000 1.0
C      1  0.5829510000000  0.4683890000000  0.4973620000000 1.0
C      1  0.4170490000000  0.5316110000000  0.4973620000000 1.0
C      1  0.5829510000000  0.5316110000000  0.5026380000000 1.0
C      1  0.4973620000000  0.4170490000000  0.5316110000000 1.0
C      1  0.5026380000000  0.5829510000000  0.5316110000000 1.0
C      1  0.4973620000000  0.5829510000000  0.4683890000000 1.0
C      1  0.4909450000000  0.5711900000000  0.5499660000000 1.0
C      1  0.5711900000000  0.5499660000000  0.4909450000000 1.0
C      1  0.5499660000000  0.4909450000000  0.5711900000000 1.0
C      1  0.5090550000000  0.5711900000000  0.4500340000000 1.0
C      1  0.5090550000000  0.4288100000000  0.5499660000000 1.0
C      1  0.4909450000000  0.4288100000000  0.4500340000000 1.0
C      1  0.4288100000000  0.5499660000000  0.5090550000000 1.0
C      1  0.4288100000000  0.4500340000000  0.4909450000000 1.0
C      1  0.5711900000000  0.4500340000000  0.5090550000000 1.0
C      1  0.4500340000000  0.4909450000000  0.4288100000000 1.0
C      1  0.4500340000000  0.5090550000000  0.5711900000000 1.0
C      1  0.5499660000000  0.5090550000000  0.4288100000000 1.0
C      1  0.5499660000000  0.5711900000000  0.4909450000000 1.0
C      1  0.4909450000000  0.5499660000000  0.5711900000000 1.0
C      1  0.5711900000000  0.4909450000000  0.5499660000000 1.0
C      1  0.4500340000000  0.5711900000000  0.5090550000000 1.0
C      1  0.5499660000000  0.4288100000000  0.5090550000000 1.0
C      1  0.4500340000000  0.4288100000000  0.4909450000000 1.0
C      1  0.5090550000000  0.5499660000000  0.4288100000000 1.0
C      1  0.4909450000000  0.4500340000000  0.4288100000000 1.0
C      1  0.5090550000000  0.4500340000000  0.5711900000000 1.0
C      1  0.4288100000000  0.4909450000000  0.4500340000000 1.0
C      1  0.5711900000000  0.5090550000000  0.4500340000000 1.0
C      1  0.4288100000000  0.5090550000000  0.5499660000000 1.0
C      1  0.5004240000000  0.5113390000000  0.5218120000000 1.0
C      1  0.5113390000000  0.5218120000000  0.5004240000000 1.0
C      1  0.5218120000000  0.5004240000000  0.5113390000000 1.0
C      1  0.4995760000000  0.5113390000000  0.4781880000000 1.0
C      1  0.4995760000000  0.4886610000000  0.5218120000000 1.0
C      1  0.5004240000000  0.4886610000000  0.4781880000000 1.0
C      1  0.4886610000000  0.5218120000000  0.4995760000000 1.0
C      1  0.4886610000000  0.4781880000000  0.5004240000000 1.0
C      1  0.5113390000000  0.4781880000000  0.4995760000000 1.0
C      1  0.4781880000000  0.5004240000000  0.4886610000000 1.0
C      1  0.4781880000000  0.4995760000000  0.5113390000000 1.0
C      1  0.5218120000000  0.4995760000000  0.4886610000000 1.0
C      1  0.5218120000000  0.5113390000000  0.5004240000000 1.0
C      1  0.5004240000000  0.5218120000000  0.5113390000000 1.0
C      1  0.5113390000000  0.5004240000000  0.5218120000000 1.0
C      1  0.4781880000000  0.5113390000000  0.4995760000000 1.0
C      1  0.5218120000000  0.4886610000000  0.4995760000000 1.0
C      1  0.4781880000000  0.4886610000000  0.5004240000000 1.0
C      1  0.4995760000000  0.5218120000000  0.4886610000000 1.0
C      1  0.5004240000000  0.4781880000000  0.4886610000000 1.0
C      1  0.4995760000000  0.4781880000000  0.5113390000000 1.0
C      1  0.4886610000000  0.5004240000000  0.4781880000000 1.0
C      1  0.5113390000000  0.4995760000000  0.4781880000000 1.0
C      1  0.4886610000000  0.4995760000000  0.5218120000000 1.0
C      1  0.5370220000000  0.5272490000000  0.4531160000000 1.0
C      1  0.5272490000000  0.4531160000000  0.5370220000000 1.0
C      1  0.4531160000000  0.5370220000000  0.5272490000000 1.0
C      1  0.4629780000000  0.5272490000000  0.5468840000000 1.0
C      1  0.4629780000000  0.4727510000000  0.4531160000000 1.0
C      1  0.5370220000000  0.4727510000000  0.5468840000000 1.0
C      1  0.4727510000000  0.4531160000000  0.4629780000000 1.0
C      1  0.4727510000000  0.5468840000000  0.5370220000000 1.0
C      1  0.5272490000000  0.5468840000000  0.4629780000000 1.0
C      1  0.5468840000000  0.5370220000000  0.4727510000000 1.0
C      1  0.5468840000000  0.4629780000000  0.5272490000000 1.0
C      1  0.4531160000000  0.4629780000000  0.4727510000000 1.0
C      1  0.4531160000000  0.5272490000000  0.5370220000000 1.0
C      1  0.5370220000000  0.4531160000000  0.5272490000000 1.0
C      1  0.5272490000000  0.5370220000000  0.4531160000000 1.0
C      1  0.5468840000000  0.5272490000000  0.4629780000000 1.0
C      1  0.4531160000000  0.4727510000000  0.4629780000000 1.0
C      1  0.5468840000000  0.4727510000000  0.5370220000000 1.0
C      1  0.4629780000000  0.4531160000000  0.4727510000000 1.0
C      1  0.5370220000000  0.5468840000000  0.4727510000000 1.0
C      1  0.4629780000000  0.5468840000000  0.5272490000000 1.0
C      1  0.4727510000000  0.5370220000000  0.5468840000000 1.0
C      1  0.5272490000000  0.4629780000000  0.5468840000000 1.0
C      1  0.4727510000000  0.4629780000000  0.4531160000000 1.0
C      1  0.5365770000000  0.5264510000000  0.5466690000000 1.0
C      1  0.5264510000000  0.5466690000000  0.5365770000000 1.0
C      1  0.5466690000000  0.5365770000000  0.5264510000000 1.0
C      1  0.4634230000000  0.5264510000000  0.4533310000000 1.0
C      1  0.4634230000000  0.4735490000000  0.5466690000000 1.0
C      1  0.5365770000000  0.4735490000000  0.4533310000000 1.0
C      1  0.4735490000000  0.5466690000000  0.4634230000000 1.0
C      1  0.4735490000000  0.4533310000000  0.5365770000000 1.0
C      1  0.5264510000000  0.4533310000000  0.4634230000000 1.0
C      1  0.4533310000000  0.5365770000000  0.4735490000000 1.0
C      1  0.4533310000000  0.4634230000000  0.5264510000000 1.0
C      1  0.5466690000000  0.4634230000000  0.4735490000000 1.0
C      1  0.5466690000000  0.5264510000000  0.5365770000000 1.0
C      1  0.5365770000000  0.5466690000000  0.5264510000000 1.0
C      1  0.5264510000000  0.5365770000000  0.5466690000000 1.0
C      1  0.4533310000000  0.5264510000000  0.4634230000000 1.0
C      1  0.5466690000000  0.4735490000000  0.4634230000000 1.0
C      1  0.4533310000000  0.4735490000000  0.5365770000000 1.0
C      1  0.4634230000000  0.5466690000000  0.4735490000000 1.0
C      1  0.5365770000000  0.4533310000000  0.4735490000000 1.0
C      1  0.4634230000000  0.4533310000000  0.5264510000000 1.0
C      1  0.4735490000000  0.5365770000000  0.4533310000000 1.0
C      1  0.5264510000000  0.4634230000000  0.4533310000000 1.0
C      1  0.4735490000000  0.4634230000000  0.5466690000000 1.0
C      1  0.5368470000000  0.4235130000000  0.5098150000000 1.0
C      1  0.4235130000000  0.5098150000000  0.5368470000000 1.0
C      1  0.5098150000000  0.5368470000000  0.4235130000000 1.0
C      1  0.4631530000000  0.4235130000000  0.4901850000000 1.0
C      1  0.4631530000000  0.5764870000000  0.5098150000000 1.0
C      1  0.5368470000000  0.5764870000000  0.4901850000000 1.0
C      1  0.5764870000000  0.5098150000000  0.4631530000000 1.0
C      1  0.5764870000000  0.4901850000000  0.5368470000000 1.0
C      1  0.4235130000000  0.4901850000000  0.4631530000000 1.0
C      1  0.4901850000000  0.5368470000000  0.5764870000000 1.0
C      1  0.4901850000000  0.4631530000000  0.4235130000000 1.0
C      1  0.5098150000000  0.4631530000000  0.5764870000000 1.0
C      1  0.5098150000000  0.4235130000000  0.5368470000000 1.0
C      1  0.5368470000000  0.5098150000000  0.4235130000000 1.0
C      1  0.4235130000000  0.5368470000000  0.5098150000000 1.0
C      1  0.4901850000000  0.4235130000000  0.4631530000000 1.0
C      1  0.5098150000000  0.5764870000000  0.4631530000000 1.0
C      1  0.4901850000000  0.5764870000000  0.5368470000000 1.0
C      1  0.4631530000000  0.5098150000000  0.5764870000000 1.0
C      1  0.5368470000000  0.4901850000000  0.5764870000000 1.0
C      1  0.4631530000000  0.4901850000000  0.4235130000000 1.0
C      1  0.5764870000000  0.5368470000000  0.4901850000000 1.0
C      1  0.4235130000000  0.4631530000000  0.4901850000000 1.0
C      1  0.5764870000000  0.4631530000000  0.5098150000000 1.0
C      1  0.5679450000000  0.4845890000000  0.5044470000000 1.0
C      1  0.4845890000000  0.5044470000000  0.5679450000000 1.0
C      1  0.5044470000000  0.5679450000000  0.4845890000000 1.0
C      1  0.4320550000000  0.4845890000000  0.4955530000000 1.0
C      1  0.4320550000000  0.5154110000000  0.5044470000000 1.0
C      1  0.5679450000000  0.5154110000000  0.4955530000000 1.0
C      1  0.5154110000000  0.5044470000000  0.4320550000000 1.0
C      1  0.5154110000000  0.4955530000000  0.5679450000000 1.0
C      1  0.4845890000000  0.4955530000000  0.4320550000000 1.0
C      1  0.4955530000000  0.5679450000000  0.5154110000000 1.0
C      1  0.4955530000000  0.4320550000000  0.4845890000000 1.0
C      1  0.5044470000000  0.4320550000000  0.5154110000000 1.0
C      1  0.5044470000000  0.4845890000000  0.5679450000000 1.0
C      1  0.5679450000000  0.5044470000000  0.4845890000000 1.0
C      1  0.4845890000000  0.5679450000000  0.5044470000000 1.0
C      1  0.4955530000000  0.4845890000000  0.4320550000000 1.0
C      1  0.5044470000000  0.5154110000000  0.4320550000000 1.0
C      1  0.4955530000000  0.5154110000000  0.5679450000000 1.0
C      1  0.4320550000000  0.5044470000000  0.5154110000000 1.0
C      1  0.5679450000000  0.4955530000000  0.5154110000000 1.0
C      1  0.4320550000000  0.4955530000000  0.4845890000000 1.0
C      1  0.5154110000000  0.5679450000000  0.4955530000000 1.0
C      1  0.4845890000000  0.4320550000000  0.4955530000000 1.0
C      1  0.5154110000000  0.4320550000000  0.5044470000000 1.0
C      1  0.5445980000000  0.4448690000000  0.4350420000000 1.0
C      1  0.4448690000000  0.4350420000000  0.5445980000000 1.0
C      1  0.4350420000000  0.5445980000000  0.4448690000000 1.0
C      1  0.4554020000000  0.4448690000000  0.5649580000000 1.0
C      1  0.4554020000000  0.5551310000000  0.4350420000000 1.0
C      1  0.5445980000000  0.5551310000000  0.5649580000000 1.0
C      1  0.5551310000000  0.4350420000000  0.4554020000000 1.0
C      1  0.5551310000000  0.5649580000000  0.5445980000000 1.0
C      1  0.4448690000000  0.5649580000000  0.4554020000000 1.0
C      1  0.5649580000000  0.5445980000000  0.5551310000000 1.0
C      1  0.5649580000000  0.4554020000000  0.4448690000000 1.0
C      1  0.4350420000000  0.4554020000000  0.5551310000000 1.0
C      1  0.4350420000000  0.4448690000000  0.5445980000000 1.0
C      1  0.5445980000000  0.4350420000000  0.4448690000000 1.0
C      1  0.4448690000000  0.5445980000000  0.4350420000000 1.0
C      1  0.5649580000000  0.4448690000000  0.4554020000000 1.0
C      1  0.4350420000000  0.5551310000000  0.4554020000000 1.0
C      1  0.5649580000000  0.5551310000000  0.5445980000000 1.0
C      1  0.4554020000000  0.4350420000000  0.5551310000000 1.0
C      1  0.5445980000000  0.5649580000000  0.5551310000000 1.0
C      1  0.4554020000000  0.5649580000000  0.4448690000000 1.0
C      1  0.5551310000000  0.5445980000000  0.5649580000000 1.0
C      1  0.4448690000000  0.4554020000000  0.5649580000000 1.0
C      1  0.5551310000000  0.4554020000000  0.4350420000000 1.0
C      1  0.5360330000000  0.5465530000000  0.5728940000000 1.0
C      1  0.5465530000000  0.5728940000000  0.5360330000000 1.0
C      1  0.5728940000000  0.5360330000000  0.5465530000000 1.0
C      1  0.4639670000000  0.5465530000000  0.4271060000000 1.0
C      1  0.4639670000000  0.4534470000000  0.5728940000000 1.0
C      1  0.5360330000000  0.4534470000000  0.4271060000000 1.0
C      1  0.4534470000000  0.5728940000000  0.4639670000000 1.0
C      1  0.4534470000000  0.4271060000000  0.5360330000000 1.0
C      1  0.5465530000000  0.4271060000000  0.4639670000000 1.0
C      1  0.4271060000000  0.5360330000000  0.4534470000000 1.0
C      1  0.4271060000000  0.4639670000000  0.5465530000000 1.0
C      1  0.5728940000000  0.4639670000000  0.4534470000000 1.0
C      1  0.5728940000000  0.5465530000000  0.5360330000000 1.0
C      1  0.5360330000000  0.5728940000000  0.5465530000000 1.0
C      1  0.5465530000000  0.5360330000000  0.5728940000000 1.0
C      1  0.4271060000000  0.5465530000000  0.4639670000000 1.0
C      1  0.5728940000000  0.4534470000000  0.4639670000000 1.0
C      1  0.4271060000000  0.4534470000000  0.5360330000000 1.0
C      1  0.4639670000000  0.5728940000000  0.4534470000000 1.0
C      1  0.5360330000000  0.4271060000000  0.4534470000000 1.0
C      1  0.4639670000000  0.4271060000000  0.5465530000000 1.0
C      1  0.4534470000000  0.5360330000000  0.4271060000000 1.0
C      1  0.5465530000000  0.4639670000000  0.4271060000000 1.0
C      1  0.4534470000000  0.4639670000000  0.5728940000000 1.0
C      1  0.4845680000000  0.5267480000000  0.5668860000000 1.0
C      1  0.5267480000000  0.5668860000000  0.4845680000000 1.0
C      1  0.5668860000000  0.4845680000000  0.5267480000000 1.0
C      1  0.5154320000000  0.5267480000000  0.4331140000000 1.0
C      1  0.5154320000000  0.4732520000000  0.5668860000000 1.0
C      1  0.4845680000000  0.4732520000000  0.4331140000000 1.0
C      1  0.4732520000000  0.5668860000000  0.5154320000000 1.0
C      1  0.4732520000000  0.4331140000000  0.4845680000000 1.0
C      1  0.5267480000000  0.4331140000000  0.5154320000000 1.0
C      1  0.4331140000000  0.4845680000000  0.4732520000000 1.0
C      1  0.4331140000000  0.5154320000000  0.5267480000000 1.0
C      1  0.5668860000000  0.5154320000000  0.4732520000000 1.0
C      1  0.5668860000000  0.5267480000000  0.4845680000000 1.0
C      1  0.4845680000000  0.5668860000000  0.5267480000000 1.0
C      1  0.5267480000000  0.4845680000000  0.5668860000000 1.0
C      1  0.4331140000000  0.5267480000000  0.5154320000000 1.0
C      1  0.5668860000000  0.4732520000000  0.5154320000000 1.0
C      1  0.4331140000000  0.4732520000000  0.4845680000000 1.0
C      1  0.5154320000000  0.5668860000000  0.4732520000000 1.0
C      1  0.4845680000000  0.4331140000000  0.4732520000000 1.0
C      1  0.5154320000000  0.4331140000000  0.5267480000000 1.0
C      1  0.4732520000000  0.4845680000000  0.4331140000000 1.0
C      1  0.5267480000000  0.5154320000000  0.4331140000000 1.0
C      1  0.4732520000000  0.5154320000000  0.5668860000000 1.0
C      1  0.4510900000000  0.5030940000000  0.5378900000000 1.0
C      1  0.5030940000000  0.5378900000000  0.4510900000000 1.0
C      1  0.5378900000000  0.4510900000000  0.5030940000000 1.0
C      1  0.5489100000000  0.5030940000000  0.4621100000000 1.0
C      1  0.5489100000000  0.4969060000000  0.5378900000000 1.0
C      1  0.4510900000000  0.4969060000000  0.4621100000000 1.0
C      1  0.4969060000000  0.5378900000000  0.5489100000000 1.0
C      1  0.4969060000000  0.4621100000000  0.4510900000000 1.0
C      1  0.5030940000000  0.4621100000000  0.5489100000000 1.0
C      1  0.4621100000000  0.4510900000000  0.4969060000000 1.0
C      1  0.4621100000000  0.5489100000000  0.5030940000000 1.0
C      1  0.5378900000000  0.5489100000000  0.4969060000000 1.0
C      1  0.5378900000000  0.5030940000000  0.4510900000000 1.0
C      1  0.4510900000000  0.5378900000000  0.5030940000000 1.0
C      1  0.5030940000000  0.4510900000000  0.5378900000000 1.0
C      1  0.4621100000000  0.5030940000000  0.5489100000000 1.0
C      1  0.5378900000000  0.4969060000000  0.5489100000000 1.0
C      1  0.4621100000000  0.4969060000000  0.4510900000000 1.0
C      1  0.5489100000000  0.5378900000000  0.4969060000000 1.0
C      1  0.4510900000000  0.4621100000000  0.4969060000000 1.0
C      1  0.5489100000000  0.4621100000000  0.5030940000000 1.0
C      1  0.4969060000000  0.4510900000000  0.4621100000000 1.0
C      1  0.5030940000000  0.5489100000000  0.4621100000000 1.0
C      1  0.4969060000000  0.5489100000000  0.5378900000000 1.0
C      1  0.5595880000000  0.4516520000000  0.4988460000000 1.0
C      1  0.4516520000000  0.4988460000000  0.5595880000000 1.0
C      1  0.4988460000000  0.5595880000000  0.4516520000000 1.0
C      1  0.4404120000000  0.4516520000000  0.5011540000000 1.0
C      1  0.4404120000000  0.5483480000000  0.4988460000000 1.0
C      1  0.5595880000000  0.5483480000000  0.5011540000000 1.0
C      1  0.5483480000000  0.4988460000000  0.4404120000000 1.0
C      1  0.5483480000000  0.5011540000000  0.5595880000000 1.0
C      1  0.4516520000000  0.5011540000000  0.4404120000000 1.0
C      1  0.5011540000000  0.5595880000000  0.5483480000000 1.0
C      1  0.5011540000000  0.4404120000000  0.4516520000000 1.0
C      1  0.4988460000000  0.4404120000000  0.5483480000000 1.0
C      1  0.4988460000000  0.4516520000000  0.5595880000000 1.0
C      1  0.5595880000000  0.4988460000000  0.4516520000000 1.0
C      1  0.4516520000000  0.5595880000000  0.4988460000000 1.0
C      1  0.5011540000000  0.4516520000000  0.4404120000000 1.0
C      1  0.4988460000000  0.5483480000000  0.4404120000000 1.0
C      1  0.5011540000000  0.5483480000000  0.5595880000000 1.0
C      1  0.4404120000000  0.4988460000000  0.5483480000000 1.0
C      1  0.5595880000000  0.5011540000000  0.5483480000000 1.0
C      1  0.4404120000000  0.5011540000000  0.4516520000000 1.0
C      1  0.5483480000000  0.5595880000000  0.5011540000000 1.0
C      1  0.4516520000000  0.4404120000000  0.5011540000000 1.0
C      1  0.5483480000000  0.4404120000000  0.4988460000000 1.0
C      1  0.5145360000000  0.4464440000000  0.4365410000000 1.0
C      1  0.4464440000000  0.4365410000000  0.5145360000000 1.0
C      1  0.4365410000000  0.5145360000000  0.4464440000000 1.0
C      1  0.4854640000000  0.4464440000000  0.5634590000000 1.0
C      1  0.4854640000000  0.5535560000000  0.4365410000000 1.0
C      1  0.5145360000000  0.5535560000000  0.5634590000000 1.0
C      1  0.5535560000000  0.4365410000000  0.4854640000000 1.0
C      1  0.5535560000000  0.5634590000000  0.5145360000000 1.0
C      1  0.4464440000000  0.5634590000000  0.4854640000000 1.0
C      1  0.5634590000000  0.5145360000000  0.5535560000000 1.0
C      1  0.5634590000000  0.4854640000000  0.4464440000000 1.0
C      1  0.4365410000000  0.4854640000000  0.5535560000000 1.0
C      1  0.4365410000000  0.4464440000000  0.5145360000000 1.0
C      1  0.5145360000000  0.4365410000000  0.4464440000000 1.0
C      1  0.4464440000000  0.5145360000000  0.4365410000000 1.0
C      1  0.5634590000000  0.4464440000000  0.4854640000000 1.0
C      1  0.4365410000000  0.5535560000000  0.4854640000000 1.0
C      1  0.5634590000000  0.5535560000000  0.5145360000000 1.0
C      1  0.4854640000000  0.4365410000000  0.5535560000000 1.0
C      1  0.5145360000000  0.5634590000000  0.5535560000000 1.0
C      1  0.4854640000000  0.5634590000000  0.4464440000000 1.0
C      1  0.5535560000000  0.5145360000000  0.5634590000000 1.0
C      1  0.4464440000000  0.4854640000000  0.5634590000000 1.0
C      1  0.5535560000000  0.4854640000000  0.4365410000000 1.0
C      1  0.5576150000000  0.4937800000000  0.4839450000000 1.0
C      1  0.4937800000000  0.4839450000000  0.5576150000000 1.0
C      1  0.4839450000000  0.5576150000000  0.4937800000000 1.0
C      1  0.4423850000000  0.4937800000000  0.5160550000000 1.0
C      1  0.4423850000000  0.5062200000000  0.4839450000000 1.0
C      1  0.5576150000000  0.5062200000000  0.5160550000000 1.0
C      1  0.5062200000000  0.4839450000000  0.4423850000000 1.0
C      1  0.5062200000000  0.5160550000000  0.5576150000000 1.0
C      1  0.4937800000000  0.5160550000000  0.4423850000000 1.0
C      1  0.5160550000000  0.5576150000000  0.5062200000000 1.0
C      1  0.5160550000000  0.4423850000000  0.4937800000000 1.0
C      1  0.4839450000000  0.4423850000000  0.5062200000000 1.0
C      1  0.4839450000000  0.4937800000000  0.5576150000000 1.0
C      1  0.5576150000000  0.4839450000000  0.4937800000000 1.0
C      1  0.4937800000000  0.5576150000000  0.4839450000000 1.0
C      1  0.5160550000000  0.4937800000000  0.4423850000000 1.0
C      1  0.4839450000000  0.5062200000000  0.4423850000000 1.0
C      1  0.5160550000000  0.5062200000000  0.5576150000000 1.0
C      1  0.4423850000000  0.4839450000000  0.5062200000000 1.0
C      1  0.5576150000000  0.5160550000000  0.5062200000000 1.0
C      1  0.4423850000000  0.5160550000000  0.4937800000000 1.0
C      1  0.5062200000000  0.5576150000000  0.5160550000000 1.0
C      1  0.4937800000000  0.4423850000000  0.5160550000000 1.0
C      1  0.5062200000000  0.4423850000000  0.4839450000000 1.0
C      1  0.4621100000000  0.5165940000000  0.4727770000000 1.0
C      1  0.5165940000000  0.4727770000000  0.4621100000000 1.0
C      1  0.4727770000000  0.4621100000000  0.5165940000000 1.0
C      1  0.5378900000000  0.5165940000000  0.5272230000000 1.0
C      1  0.5378900000000  0.4834060000000  0.4727770000000 1.0
C      1  0.4621100000000  0.4834060000000  0.5272230000000 1.0
C      1  0.4834060000000  0.4727770000000  0.5378900000000 1.0
C      1  0.4834060000000  0.5272230000000  0.4621100000000 1.0
C      1  0.5165940000000  0.5272230000000  0.5378900000000 1.0
C      1  0.5272230000000  0.4621100000000  0.4834060000000 1.0
C      1  0.5272230000000  0.5378900000000  0.5165940000000 1.0
C      1  0.4727770000000  0.5378900000000  0.4834060000000 1.0
C      1  0.4727770000000  0.5165940000000  0.4621100000000 1.0
C      1  0.4621100000000  0.4727770000000  0.5165940000000 1.0
C      1  0.5165940000000  0.4621100000000  0.4727770000000 1.0
C      1  0.5272230000000  0.5165940000000  0.5378900000000 1.0
C      1  0.4727770000000  0.4834060000000  0.5378900000000 1.0
C      1  0.5272230000000  0.4834060000000  0.4621100000000 1.0
C      1  0.5378900000000  0.4727770000000  0.4834060000000 1.0
C      1  0.4621100000000  0.5272230000000  0.4834060000000 1.0
C      1  0.5378900000000  0.5272230000000  0.5165940000000 1.0
C      1  0.4834060000000  0.4621100000000  0.5272230000000 1.0
C      1  0.5165940000000  0.5378900000000  0.5272230000000 1.0
C      1  0.4834060000000  0.5378900000000  0.4727770000000 1.0
C      1  0.5451190000000  0.4760220000000  0.4965200000000 1.0
C      1  0.4760220000000  0.4965200000000  0.5451190000000 1.0
C      1  0.4965200000000  0.5451190000000  0.4760220000000 1.0
C      1  0.4548810000000  0.4760220000000  0.5034800000000 1.0
C      1  0.4548810000000  0.5239780000000  0.4965200000000 1.0
C      1  0.5451190000000  0.5239780000000  0.5034800000000 1.0
C      1  0.5239780000000  0.4965200000000  0.4548810000000 1.0
C      1  0.5239780000000  0.5034800000000  0.5451190000000 1.0
C      1  0.4760220000000  0.5034800000000  0.4548810000000 1.0
C      1  0.5034800000000  0.5451190000000  0.5239780000000 1.0
C      1  0.5034800000000  0.4548810000000  0.4760220000000 1.0
C      1  0.4965200000000  0.4548810000000  0.5239780000000 1.0
C      1  0.4965200000000  0.4760220000000  0.5451190000000 1.0
C      1  0.5451190000000  0.4965200000000  0.4760220000000 1.0
C      1  0.4760220000000  0.5451190000000  0.4965200000000 1.0
C      1  0.5034800000000  0.4760220000000  0.4548810000000 1.0
C      1  0.4965200000000  0.5239780000000  0.4548810000000 1.0
C      1  0.5034800000000  0.5239780000000  0.5451190000000 1.0
C      1  0.4548810000000  0.4965200000000  0.5239780000000 1.0
C      1  0.5451190000000  0.5034800000000  0.5239780000000 1.0
C      1  0.4548810000000  0.5034800000000  0.4760220000000 1.0
C      1  0.5239780000000  0.5451190000000  0.5034800000000 1.0
C      1  0.4760220000000  0.4548810000000  0.5034800000000 1.0
C      1  0.5239780000000  0.4548810000000  0.4965200000000 1.0
C      1  0.5150190000000  0.5358470000000  0.4951740000000 1.0
C      1  0.5358470000000  0.4951740000000  0.5150190000000 1.0
C      1  0.4951740000000  0.5150190000000  0.5358470000000 1.0
C      1  0.4849810000000  0.5358470000000  0.5048260000000 1.0
C      1  0.4849810000000  0.4641530000000  0.4951740000000 1.0
C      1  0.5150190000000  0.4641530000000  0.5048260000000 1.0
C      1  0.4641530000000  0.4951740000000  0.4849810000000 1.0
C      1  0.4641530000000  0.5048260000000  0.5150190000000 1.0
C      1  0.5358470000000  0.5048260000000  0.4849810000000 1.0
C      1  0.5048260000000  0.5150190000000  0.4641530000000 1.0
C      1  0.5048260000000  0.4849810000000  0.5358470000000 1.0
C      1  0.4951740000000  0.4849810000000  0.4641530000000 1.0
C      1  0.4951740000000  0.5358470000000  0.5150190000000 1.0
C      1  0.5150190000000  0.4951740000000  0.5358470000000 1.0
C      1  0.5358470000000  0.5150190000000  0.4951740000000 1.0
C      1  0.5048260000000  0.5358470000000  0.4849810000000 1.0
C      1  0.4951740000000  0.4641530000000  0.4849810000000 1.0
C      1  0.5048260000000  0.4641530000000  0.5150190000000 1.0
C      1  0.4849810000000  0.4951740000000  0.4641530000000 1.0
C      1  0.5150190000000  0.5048260000000  0.4641530000000 1.0
C      1  0.4849810000000  0.5048260000000  0.5358470000000 1.0
C      1  0.4641530000000  0.5150190000000  0.5048260000000 1.0
C      1  0.5358470000000  0.4849810000000  0.5048260000000 1.0
C      1  0.4641530000000  0.4849810000000  0.4951740000000 1.0
C      1  0.4179760000000  0.5174120000000  0.4989550000000 1.0
C      1  0.5174120000000  0.4989550000000  0.4179760000000 1.0
C      1  0.4989550000000  0.4179760000000  0.5174120000000 1.0
C      1  0.5820240000000  0.5174120000000  0.5010450000000 1.0
C      1  0.5820240000000  0.4825880000000  0.4989550000000 1.0
C      1  0.4179760000000  0.4825880000000  0.5010450000000 1.0
C      1  0.4825880000000  0.4989550000000  0.5820240000000 1.0
C      1  0.4825880000000  0.5010450000000  0.4179760000000 1.0
C      1  0.5174120000000  0.5010450000000  0.5820240000000 1.0
C      1  0.5010450000000  0.4179760000000  0.4825880000000 1.0
C      1  0.5010450000000  0.5820240000000  0.5174120000000 1.0
C      1  0.4989550000000  0.5820240000000  0.4825880000000 1.0
C      1  0.4989550000000  0.5174120000000  0.4179760000000 1.0
C      1  0.4179760000000  0.4989550000000  0.5174120000000 1.0
C      1  0.5174120000000  0.4179760000000  0.4989550000000 1.0
C      1  0.5010450000000  0.5174120000000  0.5820240000000 1.0
C      1  0.4989550000000  0.4825880000000  0.5820240000000 1.0
C      1  0.5010450000000  0.4825880000000  0.4179760000000 1.0
C      1  0.5820240000000  0.4989550000000  0.4825880000000 1.0
C      1  0.4179760000000  0.5010450000000  0.4825880000000 1.0
C      1  0.5820240000000  0.5010450000000  0.5174120000000 1.0
C      1  0.4825880000000  0.4179760000000  0.5010450000000 1.0
C      1  0.5174120000000  0.5820240000000  0.5010450000000 1.0
C      1  0.4825880000000  0.5820240000000  0.4989550000000 1.0
C      1  0.4861640000000  0.5387830000000  0.4185300000000 1.0
C      1  0.5387830000000  0.4185300000000  0.4861640000000 1.0
C      1  0.4185300000000  0.4861640000000  0.5387830000000 1.0
C      1  0.5138360000000  0.5387830000000  0.5814700000000 1.0
C      1  0.5138360000000  0.4612170000000  0.4185300000000 1.0
C      1  0.4861640000000  0.4612170000000  0.5814700000000 1.0
C      1  0.4612170000000  0.4185300000000  0.5138360000000 1.0
C      1  0.4612170000000  0.5814700000000  0.4861640000000 1.0
C      1  0.5387830000000  0.5814700000000  0.5138360000000 1.0
C      1  0.5814700000000  0.4861640000000  0.4612170000000 1.0
C      1  0.5814700000000  0.5138360000000  0.5387830000000 1.0
C      1  0.4185300000000  0.5138360000000  0.4612170000000 1.0
C      1  0.4185300000000  0.5387830000000  0.4861640000000 1.0
C      1  0.4861640000000  0.4185300000000  0.5387830000000 1.0
C      1  0.5387830000000  0.4861640000000  0.4185300000000 1.0
C      1  0.5814700000000  0.5387830000000  0.5138360000000 1.0
C      1  0.4185300000000  0.4612170000000  0.5138360000000 1.0
C      1  0.5814700000000  0.4612170000000  0.4861640000000 1.0
C      1  0.5138360000000  0.4185300000000  0.4612170000000 1.0
C      1  0.4861640000000  0.5814700000000  0.4612170000000 1.0
C      1  0.5138360000000  0.5814700000000  0.5387830000000 1.0
C      1  0.4612170000000  0.4861640000000  0.5814700000000 1.0
C      1  0.5387830000000  0.5138360000000  0.5814700000000 1.0
C      1  0.4612170000000  0.5138360000000  0.4185300000000 1.0
C      1  0.4947490000000  0.5877730000000  0.4947490000000 1.0
C      1  0.5877730000000  0.4947490000000  0.4947490000000 1.0
C      1  0.4947490000000  0.4947490000000  0.5877730000000 1.0
C      1  0.5052510000000  0.5877730000000  0.5052510000000 1.0
C      1  0.5052510000000  0.4122270000000  0.4947490000000 1.0
C      1  0.4947490000000  0.4122270000000  0.5052510000000 1.0
C      1  0.4122270000000  0.4947490000000  0.5052510000000 1.0
C      1  0.4122270000000  0.5052510000000  0.4947490000000 1.0
C      1  0.5877730000000  0.5052510000000  0.5052510000000 1.0
C      1  0.5052510000000  0.4947490000000  0.4122270000000 1.0
C      1  0.5052510000000  0.5052510000000  0.5877730000000 1.0
C      1  0.4947490000000  0.5052510000000  0.4122270000000 1.0
END
