TITL C-1887021-2772-38 9.79091633102585e-07 1000000 -3255.85999979853 0 0 460 (C1) n - 1
REM
REM in /nfs/bkarasulu/CARBON/AIRSS/Generating-Clusters/GAP-ML-2020/Higher-Symm/Selected-Sizes/TryA-Only_Ih-Symm/Larger-Clusters
REM
REM
REM
REM
REM
REM ./C.cell (2cf5181f0f1d4d5b12b972d32ad12063)
REM
REM compiler GCC version 9.2.1 20190827 (Red Hat 9.2.1-1)
REM options -cpp -mtune=generic -march=x86-64 -g -O0 -fpre-include=/usr/include/finclude/math-vector-fortran.h
REM seed -482687523 272543702 -1139249407 -1433711491 -1922317301 261688274 -1811107125 1869641 1885193757 236656620 42370054 1798094422 -93358091 -1747094903 46273478 -577111990 -1398352077 -898407474 1208574074 -648646529 2003136161 1158196863 1660458309 -984743610 2102493454 1111358409 -654543025 219677892 -1848491381 1890534268 52472185 -1530960818 1534083868
REM
CELL 1.54180  100.00000  100.00000  100.00000   90.00000   90.00000   90.00000
LATT -1
SFAC C  
C      1  0.5751030000000  0.5342300000000  0.5251440000000 1.0
C      1  0.5241470000000  0.5751100000000  0.5340350000000 1.0
C      1  0.5339170000000  0.5250690000000  0.5771500000000 1.0
C      1  0.5749140000000  0.4657140000000  0.4756360000000 1.0
C      1  0.4240710000000  0.4654700000000  0.5245500000000 1.0
C      1  0.4241870000000  0.5336820000000  0.4765900000000 1.0
C      1  0.5240150000000  0.4240050000000  0.4667870000000 1.0
C      1  0.4763420000000  0.4247740000000  0.5331720000000 1.0
C      1  0.4758830000000  0.5746970000000  0.4670860000000 1.0
C      1  0.5341740000000  0.4747120000000  0.4236170000000 1.0
C      1  0.4665340000000  0.4755930000000  0.5744270000000 1.0
C      1  0.4661680000000  0.5241500000000  0.4253680000000 1.0
C      1  0.5754830000000  0.5247980000000  0.5346180000000 1.0
C      1  0.5243690000000  0.5344320000000  0.5766020000000 1.0
C      1  0.5334420000000  0.5750490000000  0.5245520000000 1.0
C      1  0.5749010000000  0.4750620000000  0.4661870000000 1.0
C      1  0.4236130000000  0.5243420000000  0.4670460000000 1.0
C      1  0.4239150000000  0.4752880000000  0.5336790000000 1.0
C      1  0.5250070000000  0.4649010000000  0.4237860000000 1.0
C      1  0.4756430000000  0.5335640000000  0.4257440000000 1.0
C      1  0.4759640000000  0.4662480000000  0.5744530000000 1.0
C      1  0.5333340000000  0.4244570000000  0.4762950000000 1.0
C      1  0.4664020000000  0.5747460000000  0.4763960000000 1.0
C      1  0.4668280000000  0.4243240000000  0.5238540000000 1.0
C      1  0.4901740000000  0.5420790000000  0.5637300000000 1.0
C      1  0.5637920000000  0.4906280000000  0.5427990000000 1.0
C      1  0.5421370000000  0.5640540000000  0.4901430000000 1.0
C      1  0.4902690000000  0.4579100000000  0.4365790000000 1.0
C      1  0.5103700000000  0.4583410000000  0.5635390000000 1.0
C      1  0.5104480000000  0.5419760000000  0.4366270000000 1.0
C      1  0.5641570000000  0.5098270000000  0.4576150000000 1.0
C      1  0.4363510000000  0.5102780000000  0.5417470000000 1.0
C      1  0.4367850000000  0.4905120000000  0.4587220000000 1.0
C      1  0.5418030000000  0.4366710000000  0.5104700000000 1.0
C      1  0.4585280000000  0.4367770000000  0.4897660000000 1.0
C      1  0.4585090000000  0.5634160000000  0.5104720000000 1.0
C      1  0.4901550000000  0.5637480000000  0.5421310000000 1.0
C      1  0.5641550000000  0.5424210000000  0.4902690000000 1.0
C      1  0.5421770000000  0.4909570000000  0.5640440000000 1.0
C      1  0.4899580000000  0.4365330000000  0.4584070000000 1.0
C      1  0.5103820000000  0.5637680000000  0.4584990000000 1.0
C      1  0.5105850000000  0.4368380000000  0.5416660000000 1.0
C      1  0.5637950000000  0.4580800000000  0.5101480000000 1.0
C      1  0.4370690000000  0.5415390000000  0.5106600000000 1.0
C      1  0.4368320000000  0.4582990000000  0.4899510000000 1.0
C      1  0.5421510000000  0.5099760000000  0.4359830000000 1.0
C      1  0.4579640000000  0.4902230000000  0.4371510000000 1.0
C      1  0.4579180000000  0.5101130000000  0.5636680000000 1.0
C      1  0.5005720000000  0.4892090000000  0.5660540000000 1.0
C      1  0.5668070000000  0.5004860000000  0.4889730000000 1.0
C      1  0.4892380000000  0.5654750000000  0.5005680000000 1.0
C      1  0.5010780000000  0.5107520000000  0.4342480000000 1.0
C      1  0.5001010000000  0.5115260000000  0.5662680000000 1.0
C      1  0.5005970000000  0.4883850000000  0.4345290000000 1.0
C      1  0.5667450000000  0.4995990000000  0.5109910000000 1.0
C      1  0.4349700000000  0.4995240000000  0.4895490000000 1.0
C      1  0.4352410000000  0.5002760000000  0.5113350000000 1.0
C      1  0.4894220000000  0.4347240000000  0.4998680000000 1.0
C      1  0.5114420000000  0.4348780000000  0.5006090000000 1.0
C      1  0.5113920000000  0.5656520000000  0.4998930000000 1.0
C      1  0.5006660000000  0.5655670000000  0.4891830000000 1.0
C      1  0.5667050000000  0.4888190000000  0.5001970000000 1.0
C      1  0.4893530000000  0.5008370000000  0.5660950000000 1.0
C      1  0.5007550000000  0.4349400000000  0.5112830000000 1.0
C      1  0.5000000000000  0.5655660000000  0.5113320000000 1.0
C      1  0.5000230000000  0.4346580000000  0.4892770000000 1.0
C      1  0.5669140000000  0.5113110000000  0.4997110000000 1.0
C      1  0.4352590000000  0.4887870000000  0.5002260000000 1.0
C      1  0.4349980000000  0.5109530000000  0.5006910000000 1.0
C      1  0.4898490000000  0.4991470000000  0.4343800000000 1.0
C      1  0.5117450000000  0.4999090000000  0.4344610000000 1.0
C      1  0.5113260000000  0.5000010000000  0.5662370000000 1.0
C      1  0.4718110000000  0.5206730000000  0.4566390000000 1.0
C      1  0.4578180000000  0.4664350000000  0.5197170000000 1.0
C      1  0.5197280000000  0.4596950000000  0.4699800000000 1.0
C      1  0.4709920000000  0.4818410000000  0.5403700000000 1.0
C      1  0.5335560000000  0.4821700000000  0.4588380000000 1.0
C      1  0.5310360000000  0.5221940000000  0.5447470000000 1.0
C      1  0.4599930000000  0.5300820000000  0.4806720000000 1.0
C      1  0.5406810000000  0.5299440000000  0.5187160000000 1.0
C      1  0.5396440000000  0.4711340000000  0.4801290000000 1.0
C      1  0.5203800000000  0.5392580000000  0.5299120000000 1.0
C      1  0.4811580000000  0.5389100000000  0.4705280000000 1.0
C      1  0.4803100000000  0.4614160000000  0.5293530000000 1.0
C      1  0.4702480000000  0.4599230000000  0.5194570000000 1.0
C      1  0.4561490000000  0.5217540000000  0.4697390000000 1.0
C      1  0.5200350000000  0.4661190000000  0.4575130000000 1.0
C      1  0.4708500000000  0.5389540000000  0.4803550000000 1.0
C      1  0.5296400000000  0.4611890000000  0.4800220000000 1.0
C      1  0.5302000000000  0.5392080000000  0.5196070000000 1.0
C      1  0.4592180000000  0.4825180000000  0.5332160000000 1.0
C      1  0.5442040000000  0.5210650000000  0.5289680000000 1.0
C      1  0.5407750000000  0.4815140000000  0.4705950000000 1.0
C      1  0.5201160000000  0.5304660000000  0.5408520000000 1.0
C      1  0.4805030000000  0.4714350000000  0.5392720000000 1.0
C      1  0.4821070000000  0.5295620000000  0.4601340000000 1.0
C      1  0.4750340000000  0.5453380000000  0.4338340000000 1.0
C      1  0.4322600000000  0.4752600000000  0.5450420000000 1.0
C      1  0.5450360000000  0.4325260000000  0.4755230000000 1.0
C      1  0.4755000000000  0.4545690000000  0.5664170000000 1.0
C      1  0.5253140000000  0.4528910000000  0.4316500000000 1.0
C      1  0.5249050000000  0.5461910000000  0.5685110000000 1.0
C      1  0.4309690000000  0.5255710000000  0.4548780000000 1.0
C      1  0.5678230000000  0.5251890000000  0.5465600000000 1.0
C      1  0.5667970000000  0.4743060000000  0.4544830000000 1.0
C      1  0.5452140000000  0.5672350000000  0.5252310000000 1.0
C      1  0.4544960000000  0.5669870000000  0.4758350000000 1.0
C      1  0.4548300000000  0.4320010000000  0.5245400000000 1.0
C      1  0.4756040000000  0.4329060000000  0.5448320000000 1.0
C      1  0.4321490000000  0.5455260000000  0.4759540000000 1.0
C      1  0.5454480000000  0.4747690000000  0.4320650000000 1.0
C      1  0.4752700000000  0.5667550000000  0.4553900000000 1.0
C      1  0.5247460000000  0.4316140000000  0.4547530000000 1.0
C      1  0.5247980000000  0.5674990000000  0.5460250000000 1.0
C      1  0.4318260000000  0.4533940000000  0.5249470000000 1.0
C      1  0.5668800000000  0.5459160000000  0.5256560000000 1.0
C      1  0.5667390000000  0.4541170000000  0.4752730000000 1.0
C      1  0.5460020000000  0.5262440000000  0.5696720000000 1.0
C      1  0.4547540000000  0.4747900000000  0.5664390000000 1.0
C      1  0.4541680000000  0.5245840000000  0.4329480000000 1.0
C      1  0.5293740000000  0.5812340000000  0.5119530000000 1.0
C      1  0.5115040000000  0.5301420000000  0.5820700000000 1.0
C      1  0.5812700000000  0.5120530000000  0.5301280000000 1.0
C      1  0.5293170000000  0.4187470000000  0.4890960000000 1.0
C      1  0.4710070000000  0.4187260000000  0.5110750000000 1.0
C      1  0.4706100000000  0.5809790000000  0.4889080000000 1.0
C      1  0.5121070000000  0.4695620000000  0.4188120000000 1.0
C      1  0.4884020000000  0.4703630000000  0.5809620000000 1.0
C      1  0.4883350000000  0.5293480000000  0.4196520000000 1.0
C      1  0.5811840000000  0.4876620000000  0.4702240000000 1.0
C      1  0.4189030000000  0.4882520000000  0.5289120000000 1.0
C      1  0.4187650000000  0.5113350000000  0.4715310000000 1.0
C      1  0.5295750000000  0.5120580000000  0.5821170000000 1.0
C      1  0.5116090000000  0.5812700000000  0.5297940000000 1.0
C      1  0.5813260000000  0.5301330000000  0.5124820000000 1.0
C      1  0.5295790000000  0.4876730000000  0.4184420000000 1.0
C      1  0.4707540000000  0.5114070000000  0.4196850000000 1.0
C      1  0.4706790000000  0.4881710000000  0.5806420000000 1.0
C      1  0.5112070000000  0.4184860000000  0.4710040000000 1.0
C      1  0.4884660000000  0.5809510000000  0.4711090000000 1.0
C      1  0.4891210000000  0.4189770000000  0.5292090000000 1.0
C      1  0.5814500000000  0.4697610000000  0.4880860000000 1.0
C      1  0.4188800000000  0.5292610000000  0.4894820000000 1.0
C      1  0.4192340000000  0.4702500000000  0.5116490000000 1.0
C      1  0.5006720000000  0.5622350000000  0.4478250000000 1.0
C      1  0.4471360000000  0.5004440000000  0.5620170000000 1.0
C      1  0.5620970000000  0.4472640000000  0.5006270000000 1.0
C      1  0.5008320000000  0.4381140000000  0.5522960000000 1.0
C      1  0.4995360000000  0.4374810000000  0.4475490000000 1.0
C      1  0.4996410000000  0.5625520000000  0.5530260000000 1.0
C      1  0.4468250000000  0.4995880000000  0.4379790000000 1.0
C      1  0.5530190000000  0.5006300000000  0.5632210000000 1.0
C      1  0.5528200000000  0.5001870000000  0.4372980000000 1.0
C      1  0.5623480000000  0.5530990000000  0.4999800000000 1.0
C      1  0.4381380000000  0.5524080000000  0.5011450000000 1.0
C      1  0.4379600000000  0.4473020000000  0.4994130000000 1.0
C      1  0.5008180000000  0.4475390000000  0.5619360000000 1.0
C      1  0.4475760000000  0.5620720000000  0.5010560000000 1.0
C      1  0.5623330000000  0.5000440000000  0.4469510000000 1.0
C      1  0.5006920000000  0.5526410000000  0.4383150000000 1.0
C      1  0.4997400000000  0.4469320000000  0.4378470000000 1.0
C      1  0.4996850000000  0.5529350000000  0.5624960000000 1.0
C      1  0.4476410000000  0.4378130000000  0.4993010000000 1.0
C      1  0.5528120000000  0.5626640000000  0.4998850000000 1.0
C      1  0.5524470000000  0.4378510000000  0.5007200000000 1.0
C      1  0.5628120000000  0.5001210000000  0.5538280000000 1.0
C      1  0.4374530000000  0.5006100000000  0.5525080000000 1.0
C      1  0.4373940000000  0.5000500000000  0.4477700000000 1.0
C      1  0.4889190000000  0.5001510000000  0.5231950000000 1.0
C      1  0.5236000000000  0.4885630000000  0.4997780000000 1.0
C      1  0.5002670000000  0.5229800000000  0.4883470000000 1.0
C      1  0.4891120000000  0.5003930000000  0.4772170000000 1.0
C      1  0.5124330000000  0.5007580000000  0.5232400000000 1.0
C      1  0.5126310000000  0.4996990000000  0.4771380000000 1.0
C      1  0.5236790000000  0.5120830000000  0.5004980000000 1.0
C      1  0.4776940000000  0.5118980000000  0.4997830000000 1.0
C      1  0.4775850000000  0.4885200000000  0.5005620000000 1.0
C      1  0.5002100000000  0.4775110000000  0.5119590000000 1.0
C      1  0.5009470000000  0.4772700000000  0.4884520000000 1.0
C      1  0.5011310000000  0.5232030000000  0.5119120000000 1.0
C      1  0.4889390000000  0.5230160000000  0.4997100000000 1.0
C      1  0.5236680000000  0.4999000000000  0.4883960000000 1.0
C      1  0.5003050000000  0.4887990000000  0.5231880000000 1.0
C      1  0.4888320000000  0.4773940000000  0.5005640000000 1.0
C      1  0.5124840000000  0.5231660000000  0.5005790000000 1.0
C      1  0.5123180000000  0.4773880000000  0.4998340000000 1.0
C      1  0.5236830000000  0.5007210000000  0.5118870000000 1.0
C      1  0.4776400000000  0.4999580000000  0.5121170000000 1.0
C      1  0.4776890000000  0.5004270000000  0.4885510000000 1.0
C      1  0.5004240000000  0.5117890000000  0.4771800000000 1.0
C      1  0.5010990000000  0.4882790000000  0.4771430000000 1.0
C      1  0.5011350000000  0.5122040000000  0.5231980000000 1.0
C      1  0.5804430000000  0.4575770000000  0.4950180000000 1.0
C      1  0.4951820000000  0.5801260000000  0.4588050000000 1.0
C      1  0.4583390000000  0.4947360000000  0.5795640000000 1.0
C      1  0.5801220000000  0.5423630000000  0.5058170000000 1.0
C      1  0.4201350000000  0.5413670000000  0.4963870000000 1.0
C      1  0.4199590000000  0.4582820000000  0.5044450000000 1.0
C      1  0.4958900000000  0.4199210000000  0.5414530000000 1.0
C      1  0.5043010000000  0.4195770000000  0.4588500000000 1.0
C      1  0.5047050000000  0.5806660000000  0.5420190000000 1.0
C      1  0.4584660000000  0.5046840000000  0.4203830000000 1.0
C      1  0.5418470000000  0.5053200000000  0.5812680000000 1.0
C      1  0.5417090000000  0.4946820000000  0.4194630000000 1.0
C      1  0.5800290000000  0.4942190000000  0.4578760000000 1.0
C      1  0.4952610000000  0.4581350000000  0.5801080000000 1.0
C      1  0.4584140000000  0.5802550000000  0.4958500000000 1.0
C      1  0.5805380000000  0.5053530000000  0.5424340000000 1.0
C      1  0.4198190000000  0.4952440000000  0.5410370000000 1.0
C      1  0.4195410000000  0.5045880000000  0.4592780000000 1.0
C      1  0.4949570000000  0.5416030000000  0.4207370000000 1.0
C      1  0.5048730000000  0.4576070000000  0.4196590000000 1.0
C      1  0.5045630000000  0.5422380000000  0.5807340000000 1.0
C      1  0.4588690000000  0.4198780000000  0.5041530000000 1.0
C      1  0.5416910000000  0.5805090000000  0.5052440000000 1.0
C      1  0.5415560000000  0.4196530000000  0.4958830000000 1.0
C      1  0.4848370000000  0.4626870000000  0.4949990000000 1.0
C      1  0.4957800000000  0.4842060000000  0.4625080000000 1.0
C      1  0.4629130000000  0.4952090000000  0.4846630000000 1.0
C      1  0.4849910000000  0.5377700000000  0.5052550000000 1.0
C      1  0.5162930000000  0.5378920000000  0.4949480000000 1.0
C      1  0.5161300000000  0.4626800000000  0.5053340000000 1.0
C      1  0.4956380000000  0.5162120000000  0.5378800000000 1.0
C      1  0.5061260000000  0.5156250000000  0.4624900000000 1.0
C      1  0.5058030000000  0.4849830000000  0.5379560000000 1.0
C      1  0.4630100000000  0.5055350000000  0.5159560000000 1.0
C      1  0.5383550000000  0.5055890000000  0.4844170000000 1.0
C      1  0.5383320000000  0.4952760000000  0.5156030000000 1.0
C      1  0.4853620000000  0.4948900000000  0.4625500000000 1.0
C      1  0.4952930000000  0.4625960000000  0.4845360000000 1.0
C      1  0.4629030000000  0.4845500000000  0.4952000000000 1.0
C      1  0.4849980000000  0.5059760000000  0.5378810000000 1.0
C      1  0.5162960000000  0.4955950000000  0.5380040000000 1.0
C      1  0.5165420000000  0.5051420000000  0.4625080000000 1.0
C      1  0.4954870000000  0.5379040000000  0.5157800000000 1.0
C      1  0.5056270000000  0.4627620000000  0.5158540000000 1.0
C      1  0.5058100000000  0.5377630000000  0.4844560000000 1.0
C      1  0.4630070000000  0.5157800000000  0.5052260000000 1.0
C      1  0.5382970000000  0.4846560000000  0.5052280000000 1.0
C      1  0.5383550000000  0.5160480000000  0.4947670000000 1.0
C      1  0.4936880000000  0.4650960000000  0.4250110000000 1.0
C      1  0.4252550000000  0.4932380000000  0.4662900000000 1.0
C      1  0.4660930000000  0.4253180000000  0.4929110000000 1.0
C      1  0.4933520000000  0.5348950000000  0.5753700000000 1.0
C      1  0.5067690000000  0.5345870000000  0.4252600000000 1.0
C      1  0.5066650000000  0.4654420000000  0.5751260000000 1.0
C      1  0.4250060000000  0.5068120000000  0.5341200000000 1.0
C      1  0.5755700000000  0.5059880000000  0.4648570000000 1.0
C      1  0.5753730000000  0.4938690000000  0.5354260000000 1.0
C      1  0.4657610000000  0.5750160000000  0.5071390000000 1.0
C      1  0.5346760000000  0.5754720000000  0.4936790000000 1.0
C      1  0.5344660000000  0.4250600000000  0.5072810000000 1.0
C      1  0.4930720000000  0.4251040000000  0.4660290000000 1.0
C      1  0.4253720000000  0.4657200000000  0.4932540000000 1.0
C      1  0.4654920000000  0.4932190000000  0.4256240000000 1.0
C      1  0.4934250000000  0.5752890000000  0.5347510000000 1.0
C      1  0.5073430000000  0.4252150000000  0.5343680000000 1.0
C      1  0.5067830000000  0.5752330000000  0.4658530000000 1.0
C      1  0.4255420000000  0.5340910000000  0.5076360000000 1.0
C      1  0.5755060000000  0.4649700000000  0.5063730000000 1.0
C      1  0.5756370000000  0.5352570000000  0.4940760000000 1.0
C      1  0.4653270000000  0.5064790000000  0.5750220000000 1.0
C      1  0.5348290000000  0.4939360000000  0.5756570000000 1.0
C      1  0.5347640000000  0.5062920000000  0.4245600000000 1.0
C      1  0.5152730000000  0.5511220000000  0.5044750000000 1.0
C      1  0.5046990000000  0.5152080000000  0.5515960000000 1.0
C      1  0.5518660000000  0.5041630000000  0.5138290000000 1.0
C      1  0.5150680000000  0.4493790000000  0.4958360000000 1.0
C      1  0.4858690000000  0.4493100000000  0.5043260000000 1.0
C      1  0.4857770000000  0.5509260000000  0.4957000000000 1.0
C      1  0.5054540000000  0.4848310000000  0.4494080000000 1.0
C      1  0.4961730000000  0.4859990000000  0.5512510000000 1.0
C      1  0.4970720000000  0.5144840000000  0.4489880000000 1.0
C      1  0.5519170000000  0.4963410000000  0.4856910000000 1.0
C      1  0.4499280000000  0.4959780000000  0.5153110000000 1.0
C      1  0.4495840000000  0.5042810000000  0.4858700000000 1.0
C      1  0.5149460000000  0.5046900000000  0.5514700000000 1.0
C      1  0.5049620000000  0.5510850000000  0.5148970000000 1.0
C      1  0.5520220000000  0.5149280000000  0.5037710000000 1.0
C      1  0.5157400000000  0.4956350000000  0.4492970000000 1.0
C      1  0.4870090000000  0.5037560000000  0.4491630000000 1.0
C      1  0.4861370000000  0.4966870000000  0.5513110000000 1.0
C      1  0.5045510000000  0.4491930000000  0.4856460000000 1.0
C      1  0.4962020000000  0.5509640000000  0.4853770000000 1.0
C      1  0.4960630000000  0.4494930000000  0.5148520000000 1.0
C      1  0.5518260000000  0.4856080000000  0.4956920000000 1.0
C      1  0.4494670000000  0.5147740000000  0.4961050000000 1.0
C      1  0.4499940000000  0.4852190000000  0.5049900000000 1.0
C      1  0.4523330000000  0.5289700000000  0.5386100000000 1.0
C      1  0.5376250000000  0.4536200000000  0.5278590000000 1.0
C      1  0.5290160000000  0.5381580000000  0.4523600000000 1.0
C      1  0.4532050000000  0.4728640000000  0.4627460000000 1.0
C      1  0.5474110000000  0.4731490000000  0.5373730000000 1.0
C      1  0.5485820000000  0.5286090000000  0.4620380000000 1.0
C      1  0.5383140000000  0.5478300000000  0.4719990000000 1.0
C      1  0.4630910000000  0.5474850000000  0.5281070000000 1.0
C      1  0.4625880000000  0.4530500000000  0.4719660000000 1.0
C      1  0.5280890000000  0.4636070000000  0.5473090000000 1.0
C      1  0.4723570000000  0.4628360000000  0.4526420000000 1.0
C      1  0.4723970000000  0.5379800000000  0.5477720000000 1.0
C      1  0.4530410000000  0.5379420000000  0.5284220000000 1.0
C      1  0.5388400000000  0.5287240000000  0.4520570000000 1.0
C      1  0.5280820000000  0.4537030000000  0.5374990000000 1.0
C      1  0.4528650000000  0.4630050000000  0.4720690000000 1.0
C      1  0.5483500000000  0.5381560000000  0.4717740000000 1.0
C      1  0.5474390000000  0.4634840000000  0.5278030000000 1.0
C      1  0.5376160000000  0.4733240000000  0.5472340000000 1.0
C      1  0.4623270000000  0.5288610000000  0.5483720000000 1.0
C      1  0.4630260000000  0.4726880000000  0.4529570000000 1.0
C      1  0.5287170000000  0.5478160000000  0.4623900000000 1.0
C      1  0.4722000000000  0.4529230000000  0.4623850000000 1.0
C      1  0.4726370000000  0.5475440000000  0.5377080000000 1.0
C      1  0.4657090000000  0.5523940000000  0.5151670000000 1.0
C      1  0.5152460000000  0.4656900000000  0.5526930000000 1.0
C      1  0.5535000000000  0.5156090000000  0.4647540000000 1.0
C      1  0.4653760000000  0.4479240000000  0.4848080000000 1.0
C      1  0.5352120000000  0.4480910000000  0.5151090000000 1.0
C      1  0.5355380000000  0.5528450000000  0.4849260000000 1.0
C      1  0.5161240000000  0.5351550000000  0.4475000000000 1.0
C      1  0.4852980000000  0.5350970000000  0.5526460000000 1.0
C      1  0.4852980000000  0.4650700000000  0.4475470000000 1.0
C      1  0.5529720000000  0.4858930000000  0.5352290000000 1.0
C      1  0.4482720000000  0.4858420000000  0.4652110000000 1.0
C      1  0.4475960000000  0.5160230000000  0.5356160000000 1.0
C      1  0.4651280000000  0.5158240000000  0.5530610000000 1.0
C      1  0.5157230000000  0.5526530000000  0.4651600000000 1.0
C      1  0.5529530000000  0.4655120000000  0.5149820000000 1.0
C      1  0.4656250000000  0.4855470000000  0.4479310000000 1.0
C      1  0.5359330000000  0.5158030000000  0.4471710000000 1.0
C      1  0.5356010000000  0.4862080000000  0.5526380000000 1.0
C      1  0.5153170000000  0.4482210000000  0.5350810000000 1.0
C      1  0.4855100000000  0.5526230000000  0.5350670000000 1.0
C      1  0.4850260000000  0.4477350000000  0.4651890000000 1.0
C      1  0.5533360000000  0.5354530000000  0.4846860000000 1.0
C      1  0.4478750000000  0.4653150000000  0.4850150000000 1.0
C      1  0.4482710000000  0.5347520000000  0.5155540000000 1.0
C      1  0.4637860000000  0.5571410000000  0.4538140000000 1.0
C      1  0.4537130000000  0.4639150000000  0.5564230000000 1.0
C      1  0.5569140000000  0.4525750000000  0.4639710000000 1.0
C      1  0.4639950000000  0.4423630000000  0.5464180000000 1.0
C      1  0.5360190000000  0.4411610000000  0.4526370000000 1.0
C      1  0.5361350000000  0.5578860000000  0.5480250000000 1.0
C      1  0.4537030000000  0.5344190000000  0.4456620000000 1.0
C      1  0.5473050000000  0.5376880000000  0.5602470000000 1.0
C      1  0.5441610000000  0.4645250000000  0.4445350000000 1.0
C      1  0.5570400000000  0.5475750000000  0.5364910000000 1.0
C      1  0.4413140000000  0.5475360000000  0.4643360000000 1.0
C      1  0.4418420000000  0.4512690000000  0.5355030000000 1.0
C      1  0.4641500000000  0.4530330000000  0.5566190000000 1.0
C      1  0.4525330000000  0.5573050000000  0.4645520000000 1.0
C      1  0.5567540000000  0.4634370000000  0.4535060000000 1.0
C      1  0.4641350000000  0.5470170000000  0.4436340000000 1.0
C      1  0.5358270000000  0.4507860000000  0.4416990000000 1.0
C      1  0.5364490000000  0.5481700000000  0.5592820000000 1.0
C      1  0.4527410000000  0.4415960000000  0.5357650000000 1.0
C      1  0.5468430000000  0.5576930000000  0.5367710000000 1.0
C      1  0.5466660000000  0.4419370000000  0.4638810000000 1.0
C      1  0.5550750000000  0.5349980000000  0.5469490000000 1.0
C      1  0.4447380000000  0.4650020000000  0.5438050000000 1.0
C      1  0.4403710000000  0.5370270000000  0.4534940000000 1.0
C      1  0.4720410000000  0.5474940000000  0.4917180000000 1.0
C      1  0.4919260000000  0.4723260000000  0.5477040000000 1.0
C      1  0.5489750000000  0.4927670000000  0.4719370000000 1.0
C      1  0.4720740000000  0.4520730000000  0.5079470000000 1.0
C      1  0.5287250000000  0.4527910000000  0.4915460000000 1.0
C      1  0.5290240000000  0.5478560000000  0.5083650000000 1.0
C      1  0.4934550000000  0.5284070000000  0.4520240000000 1.0
C      1  0.5084190000000  0.5290630000000  0.5485520000000 1.0
C      1  0.5082190000000  0.4706400000000  0.4516570000000 1.0
C      1  0.5496660000000  0.5083610000000  0.5274980000000 1.0
C      1  0.4517480000000  0.5085440000000  0.4720460000000 1.0
C      1  0.4522730000000  0.4938370000000  0.5294820000000 1.0
C      1  0.4723730000000  0.4931590000000  0.5484510000000 1.0
C      1  0.4923720000000  0.5475810000000  0.4716510000000 1.0
C      1  0.5481360000000  0.4719720000000  0.4915220000000 1.0
C      1  0.4733090000000  0.5079030000000  0.4512880000000 1.0
C      1  0.5299050000000  0.4934460000000  0.4517320000000 1.0
C      1  0.5287390000000  0.5090240000000  0.5492110000000 1.0
C      1  0.4918040000000  0.4529790000000  0.5284940000000 1.0
C      1  0.5090000000000  0.5477780000000  0.5286580000000 1.0
C      1  0.5082060000000  0.4518670000000  0.4718380000000 1.0
C      1  0.5488560000000  0.5288220000000  0.5074080000000 1.0
C      1  0.4521120000000  0.4710230000000  0.5078450000000 1.0
C      1  0.4523590000000  0.5286590000000  0.4924160000000 1.0
C      1  0.5700210000000  0.5506370000000  0.5117570000000 1.0
C      1  0.5109610000000  0.5708300000000  0.5507370000000 1.0
C      1  0.5505490000000  0.5119490000000  0.5718090000000 1.0
C      1  0.5700870000000  0.4493410000000  0.4890530000000 1.0
C      1  0.4294270000000  0.4494440000000  0.5106890000000 1.0
C      1  0.4297260000000  0.5500050000000  0.4899350000000 1.0
C      1  0.5107810000000  0.4291280000000  0.4501740000000 1.0
C      1  0.4894700000000  0.4299460000000  0.5497760000000 1.0
C      1  0.4890460000000  0.5700920000000  0.4503910000000 1.0
C      1  0.5500870000000  0.4885590000000  0.4293150000000 1.0
C      1  0.4499160000000  0.4886770000000  0.5696050000000 1.0
C      1  0.4495830000000  0.5110070000000  0.4298740000000 1.0
C      1  0.5708750000000  0.5115980000000  0.5511500000000 1.0
C      1  0.5109340000000  0.5506800000000  0.5709140000000 1.0
C      1  0.5501980000000  0.5705810000000  0.5114490000000 1.0
C      1  0.5699090000000  0.4882270000000  0.4496490000000 1.0
C      1  0.4287660000000  0.5112920000000  0.4503520000000 1.0
C      1  0.4294510000000  0.4890440000000  0.5496540000000 1.0
C      1  0.5110500000000  0.4489360000000  0.4292950000000 1.0
C      1  0.4889410000000  0.5500460000000  0.4306590000000 1.0
C      1  0.4892490000000  0.4497490000000  0.5698830000000 1.0
C      1  0.5499360000000  0.4296080000000  0.4894140000000 1.0
C      1  0.4497840000000  0.5703030000000  0.4896740000000 1.0
C      1  0.4502360000000  0.4295010000000  0.5105860000000 1.0
C      1  0.5768290000000  0.5222680000000  0.5003530000000 1.0
C      1  0.4999960000000  0.5760140000000  0.5217710000000 1.0
C      1  0.5218300000000  0.5002450000000  0.5766300000000 1.0
C      1  0.5766420000000  0.4778830000000  0.4998360000000 1.0
C      1  0.4247180000000  0.4784660000000  0.5003120000000 1.0
C      1  0.4244640000000  0.5212250000000  0.5009140000000 1.0
C      1  0.4997820000000  0.4241640000000  0.4789370000000 1.0
C      1  0.5008380000000  0.4243040000000  0.5214020000000 1.0
C      1  0.5003740000000  0.5760480000000  0.4788710000000 1.0
C      1  0.5219420000000  0.4994840000000  0.4238290000000 1.0
C      1  0.4784090000000  0.5002450000000  0.5760580000000 1.0
C      1  0.4786200000000  0.4994670000000  0.4246090000000 1.0
C      1  0.5764200000000  0.5000510000000  0.5223020000000 1.0
C      1  0.5000510000000  0.5220720000000  0.5765630000000 1.0
C      1  0.5216440000000  0.5762030000000  0.5000840000000 1.0
C      1  0.5766450000000  0.4997850000000  0.4779200000000 1.0
C      1  0.4243700000000  0.4996020000000  0.4793090000000 1.0
C      1  0.4243760000000  0.5000140000000  0.5212490000000 1.0
C      1  0.5007470000000  0.4778000000000  0.4242170000000 1.0
C      1  0.5005180000000  0.5215580000000  0.4241630000000 1.0
C      1  0.5002030000000  0.4784080000000  0.5761310000000 1.0
C      1  0.5215060000000  0.4241870000000  0.5007580000000 1.0
C      1  0.4787110000000  0.5758360000000  0.5005200000000 1.0
C      1  0.4789890000000  0.4243130000000  0.4996430000000 1.0
C      1  0.4700580000000  0.4950960000000  0.4586310000000 1.0
C      1  0.4589500000000  0.4692790000000  0.4944120000000 1.0
C      1  0.4946140000000  0.4584430000000  0.4692970000000 1.0
C      1  0.4697330000000  0.5068590000000  0.5419010000000 1.0
C      1  0.5317110000000  0.5067890000000  0.4585220000000 1.0
C      1  0.5316760000000  0.4959680000000  0.5418130000000 1.0
C      1  0.4590910000000  0.5309550000000  0.5059630000000 1.0
C      1  0.5422450000000  0.5312900000000  0.4939230000000 1.0
C      1  0.5421160000000  0.4693620000000  0.5053280000000 1.0
C      1  0.4950720000000  0.5418530000000  0.5311670000000 1.0
C      1  0.5064390000000  0.5415900000000  0.4691440000000 1.0
C      1  0.5056670000000  0.4589660000000  0.5312210000000 1.0
C      1  0.4695890000000  0.4586420000000  0.4943340000000 1.0
C      1  0.4591760000000  0.4954410000000  0.4692710000000 1.0
C      1  0.4947860000000  0.4689860000000  0.4585730000000 1.0
C      1  0.4696200000000  0.5415650000000  0.5056790000000 1.0
C      1  0.5314840000000  0.4587950000000  0.5053730000000 1.0
C      1  0.5316080000000  0.5418750000000  0.4943440000000 1.0
C      1  0.4590600000000  0.5071970000000  0.5311860000000 1.0
C      1  0.5423560000000  0.4956150000000  0.5309100000000 1.0
C      1  0.5424280000000  0.5064520000000  0.4692030000000 1.0
C      1  0.4949110000000  0.5313580000000  0.5418010000000 1.0
C      1  0.5057230000000  0.4696250000000  0.5417810000000 1.0
C      1  0.5069620000000  0.5308950000000  0.4586050000000 1.0
C      1  0.5320690000000  0.4704200000000  0.4518690000000 1.0
C      1  0.4521730000000  0.4708100000000  0.5317370000000 1.0
C      1  0.4591330000000  0.5259270000000  0.4567090000000 1.0
C      1  0.5440730000000  0.5262830000000  0.5416540000000 1.0
END
