TITL C-1887019-1280-43 1.66536833385492e-07 1000000 -2052.44651228368 0 0 300 (Th) n - 1
REM
REM in /nfs/bkarasulu/CARBON/AIRSS/Generating-Clusters/GAP-ML-2020/Higher-Symm/Selected-Sizes/TryA-Only_Ih-Symm/Larger-Clusters
REM
REM
REM
REM
REM
REM ./C.cell (2cf5181f0f1d4d5b12b972d32ad12063)
REM
REM compiler GCC version 9.2.1 20190827 (Red Hat 9.2.1-1)
REM options -cpp -mtune=generic -march=x86-64 -g -O0 -fpre-include=/usr/include/finclude/math-vector-fortran.h
REM seed -1881275231 -244477181 -48697607 -1342919344 -1619722026 -1597163011 -996378380 1405725535 -1188088652 -386406434 377810252 -393346292 423378883 -1113864771 -486246811 1593737253 -1214037234 -730390925 -316447329 2072232613 -1971729662 -1048472465 281448503 1774442034 -500231536 -1303269167 1315875573 1729625207 -437693744 -1295609650 -487049086 1464251515 1100402529
REM
CELL 1.54180  100.00000  100.00000  100.00000   90.00000   90.00000   90.00000
LATT -1
SFAC C  
C      1  0.5300010000000  0.5649340000000  0.4719540000000 1.0
C      1  0.4719540000000  0.5300010000000  0.5649340000000 1.0
C      1  0.5649340000000  0.4719540000000  0.5300010000000 1.0
C      1  0.4699990000000  0.5649340000000  0.5280460000000 1.0
C      1  0.5300010000000  0.4350660000000  0.5280460000000 1.0
C      1  0.4699990000000  0.4350660000000  0.4719540000000 1.0
C      1  0.5280460000000  0.5300010000000  0.4350660000000 1.0
C      1  0.4719540000000  0.4699990000000  0.4350660000000 1.0
C      1  0.5280460000000  0.4699990000000  0.5649340000000 1.0
C      1  0.4350660000000  0.4719540000000  0.4699990000000 1.0
C      1  0.5649340000000  0.5280460000000  0.4699990000000 1.0
C      1  0.4350660000000  0.5280460000000  0.5300010000000 1.0
C      1  0.5300010000000  0.4350660000000  0.4719540000000 1.0
C      1  0.4719540000000  0.4699990000000  0.5649340000000 1.0
C      1  0.5649340000000  0.5280460000000  0.5300010000000 1.0
C      1  0.4699990000000  0.4350660000000  0.5280460000000 1.0
C      1  0.5300010000000  0.5649340000000  0.5280460000000 1.0
C      1  0.4699990000000  0.5649340000000  0.4719540000000 1.0
C      1  0.5280460000000  0.4699990000000  0.4350660000000 1.0
C      1  0.4719540000000  0.5300010000000  0.4350660000000 1.0
C      1  0.5280460000000  0.5300010000000  0.5649340000000 1.0
C      1  0.4350660000000  0.5280460000000  0.4699990000000 1.0
C      1  0.5649340000000  0.4719540000000  0.4699990000000 1.0
C      1  0.4350660000000  0.4719540000000  0.5300010000000 1.0
C      1  0.5479290000000  0.4516110000000  0.4771910000000 1.0
C      1  0.4771910000000  0.5479290000000  0.4516110000000 1.0
C      1  0.4516110000000  0.4771910000000  0.5479290000000 1.0
C      1  0.4520710000000  0.4516110000000  0.5228090000000 1.0
C      1  0.5479290000000  0.5483890000000  0.5228090000000 1.0
C      1  0.4520710000000  0.5483890000000  0.4771910000000 1.0
C      1  0.5228090000000  0.5479290000000  0.5483890000000 1.0
C      1  0.4771910000000  0.4520710000000  0.5483890000000 1.0
C      1  0.5228090000000  0.4520710000000  0.4516110000000 1.0
C      1  0.5483890000000  0.4771910000000  0.4520710000000 1.0
C      1  0.4516110000000  0.5228090000000  0.4520710000000 1.0
C      1  0.5483890000000  0.5228090000000  0.5479290000000 1.0
C      1  0.5479290000000  0.5483890000000  0.4771910000000 1.0
C      1  0.4771910000000  0.4520710000000  0.4516110000000 1.0
C      1  0.4516110000000  0.5228090000000  0.5479290000000 1.0
C      1  0.4520710000000  0.5483890000000  0.5228090000000 1.0
C      1  0.5479290000000  0.4516110000000  0.5228090000000 1.0
C      1  0.4520710000000  0.4516110000000  0.4771910000000 1.0
C      1  0.5228090000000  0.4520710000000  0.5483890000000 1.0
C      1  0.4771910000000  0.5479290000000  0.5483890000000 1.0
C      1  0.5228090000000  0.5479290000000  0.4516110000000 1.0
C      1  0.5483890000000  0.5228090000000  0.4520710000000 1.0
C      1  0.4516110000000  0.4771910000000  0.4520710000000 1.0
C      1  0.5483890000000  0.4771910000000  0.5479290000000 1.0
C      1  0.5387640000000  0.5128310000000  0.5535960000000 1.0
C      1  0.5535960000000  0.5387640000000  0.5128310000000 1.0
C      1  0.5128310000000  0.5535960000000  0.5387640000000 1.0
C      1  0.4612360000000  0.5128310000000  0.4464040000000 1.0
C      1  0.5387640000000  0.4871690000000  0.4464040000000 1.0
C      1  0.4612360000000  0.4871690000000  0.5535960000000 1.0
C      1  0.4464040000000  0.5387640000000  0.4871690000000 1.0
C      1  0.5535960000000  0.4612360000000  0.4871690000000 1.0
C      1  0.4464040000000  0.4612360000000  0.5128310000000 1.0
C      1  0.4871690000000  0.5535960000000  0.4612360000000 1.0
C      1  0.5128310000000  0.4464040000000  0.4612360000000 1.0
C      1  0.4871690000000  0.4464040000000  0.5387640000000 1.0
C      1  0.5387640000000  0.4871690000000  0.5535960000000 1.0
C      1  0.5535960000000  0.4612360000000  0.5128310000000 1.0
C      1  0.5128310000000  0.4464040000000  0.5387640000000 1.0
C      1  0.4612360000000  0.4871690000000  0.4464040000000 1.0
C      1  0.5387640000000  0.5128310000000  0.4464040000000 1.0
C      1  0.4612360000000  0.5128310000000  0.5535960000000 1.0
C      1  0.4464040000000  0.4612360000000  0.4871690000000 1.0
C      1  0.5535960000000  0.5387640000000  0.4871690000000 1.0
C      1  0.4464040000000  0.5387640000000  0.5128310000000 1.0
C      1  0.4871690000000  0.4464040000000  0.4612360000000 1.0
C      1  0.5128310000000  0.5535960000000  0.4612360000000 1.0
C      1  0.4871690000000  0.5535960000000  0.5387640000000 1.0
C      1  0.4606800000000  0.5368750000000  0.4723090000000 1.0
C      1  0.4723090000000  0.4606800000000  0.5368750000000 1.0
C      1  0.5368750000000  0.4723090000000  0.4606800000000 1.0
C      1  0.5393200000000  0.5368750000000  0.5276910000000 1.0
C      1  0.4606800000000  0.4631250000000  0.5276910000000 1.0
C      1  0.5393200000000  0.4631250000000  0.4723090000000 1.0
C      1  0.5276910000000  0.4606800000000  0.4631250000000 1.0
C      1  0.4723090000000  0.5393200000000  0.4631250000000 1.0
C      1  0.5276910000000  0.5393200000000  0.5368750000000 1.0
C      1  0.4631250000000  0.4723090000000  0.5393200000000 1.0
C      1  0.5368750000000  0.5276910000000  0.5393200000000 1.0
C      1  0.4631250000000  0.5276910000000  0.4606800000000 1.0
C      1  0.4606800000000  0.4631250000000  0.4723090000000 1.0
C      1  0.4723090000000  0.5393200000000  0.5368750000000 1.0
C      1  0.5368750000000  0.5276910000000  0.4606800000000 1.0
C      1  0.5393200000000  0.4631250000000  0.5276910000000 1.0
C      1  0.4606800000000  0.5368750000000  0.5276910000000 1.0
C      1  0.5393200000000  0.5368750000000  0.4723090000000 1.0
C      1  0.5276910000000  0.5393200000000  0.4631250000000 1.0
C      1  0.4723090000000  0.4606800000000  0.4631250000000 1.0
C      1  0.5276910000000  0.4606800000000  0.5368750000000 1.0
C      1  0.4631250000000  0.5276910000000  0.5393200000000 1.0
C      1  0.5368750000000  0.4723090000000  0.5393200000000 1.0
C      1  0.4631250000000  0.4723090000000  0.4606800000000 1.0
C      1  0.4933120000000  0.5382080000000  0.5653800000000 1.0
C      1  0.5653800000000  0.4933120000000  0.5382080000000 1.0
C      1  0.5382080000000  0.5653800000000  0.4933120000000 1.0
C      1  0.5066880000000  0.5382080000000  0.4346200000000 1.0
C      1  0.4933120000000  0.4617920000000  0.4346200000000 1.0
C      1  0.5066880000000  0.4617920000000  0.5653800000000 1.0
C      1  0.4346200000000  0.4933120000000  0.4617920000000 1.0
C      1  0.5653800000000  0.5066880000000  0.4617920000000 1.0
C      1  0.4346200000000  0.5066880000000  0.5382080000000 1.0
C      1  0.4617920000000  0.5653800000000  0.5066880000000 1.0
C      1  0.5382080000000  0.4346200000000  0.5066880000000 1.0
C      1  0.4617920000000  0.4346200000000  0.4933120000000 1.0
C      1  0.4933120000000  0.4617920000000  0.5653800000000 1.0
C      1  0.5653800000000  0.5066880000000  0.5382080000000 1.0
C      1  0.5382080000000  0.4346200000000  0.4933120000000 1.0
C      1  0.5066880000000  0.4617920000000  0.4346200000000 1.0
C      1  0.4933120000000  0.5382080000000  0.4346200000000 1.0
C      1  0.5066880000000  0.5382080000000  0.5653800000000 1.0
C      1  0.4346200000000  0.5066880000000  0.4617920000000 1.0
C      1  0.5653800000000  0.4933120000000  0.4617920000000 1.0
C      1  0.4346200000000  0.4933120000000  0.5382080000000 1.0
C      1  0.4617920000000  0.4346200000000  0.5066880000000 1.0
C      1  0.5382080000000  0.5653800000000  0.5066880000000 1.0
C      1  0.4617920000000  0.5653800000000  0.4933120000000 1.0
C      1  0.5297200000000  0.4835720000000  0.4355340000000 1.0
C      1  0.4355340000000  0.5297200000000  0.4835720000000 1.0
C      1  0.4835720000000  0.4355340000000  0.5297200000000 1.0
C      1  0.4702800000000  0.4835720000000  0.5644660000000 1.0
C      1  0.5297200000000  0.5164280000000  0.5644660000000 1.0
C      1  0.4702800000000  0.5164280000000  0.4355340000000 1.0
C      1  0.5644660000000  0.5297200000000  0.5164280000000 1.0
C      1  0.4355340000000  0.4702800000000  0.5164280000000 1.0
C      1  0.5644660000000  0.4702800000000  0.4835720000000 1.0
C      1  0.5164280000000  0.4355340000000  0.4702800000000 1.0
C      1  0.4835720000000  0.5644660000000  0.4702800000000 1.0
C      1  0.5164280000000  0.5644660000000  0.5297200000000 1.0
C      1  0.5297200000000  0.5164280000000  0.4355340000000 1.0
C      1  0.4355340000000  0.4702800000000  0.4835720000000 1.0
C      1  0.4835720000000  0.5644660000000  0.5297200000000 1.0
C      1  0.4702800000000  0.5164280000000  0.5644660000000 1.0
C      1  0.5297200000000  0.4835720000000  0.5644660000000 1.0
C      1  0.4702800000000  0.4835720000000  0.4355340000000 1.0
C      1  0.5644660000000  0.4702800000000  0.5164280000000 1.0
C      1  0.4355340000000  0.5297200000000  0.5164280000000 1.0
C      1  0.5644660000000  0.5297200000000  0.4835720000000 1.0
C      1  0.5164280000000  0.5644660000000  0.4702800000000 1.0
C      1  0.4835720000000  0.4355340000000  0.4702800000000 1.0
C      1  0.5164280000000  0.4355340000000  0.5297200000000 1.0
C      1  0.4395840000000  0.5201410000000  0.5402540000000 1.0
C      1  0.5402540000000  0.4395840000000  0.5201410000000 1.0
C      1  0.5201410000000  0.5402540000000  0.4395840000000 1.0
C      1  0.5604160000000  0.5201410000000  0.4597460000000 1.0
C      1  0.4395840000000  0.4798590000000  0.4597460000000 1.0
C      1  0.5604160000000  0.4798590000000  0.5402540000000 1.0
C      1  0.4597460000000  0.4395840000000  0.4798590000000 1.0
C      1  0.5402540000000  0.5604160000000  0.4798590000000 1.0
C      1  0.4597460000000  0.5604160000000  0.5201410000000 1.0
C      1  0.4798590000000  0.5402540000000  0.5604160000000 1.0
C      1  0.5201410000000  0.4597460000000  0.5604160000000 1.0
C      1  0.4798590000000  0.4597460000000  0.4395840000000 1.0
C      1  0.4395840000000  0.4798590000000  0.5402540000000 1.0
C      1  0.5402540000000  0.5604160000000  0.5201410000000 1.0
C      1  0.5201410000000  0.4597460000000  0.4395840000000 1.0
C      1  0.5604160000000  0.4798590000000  0.4597460000000 1.0
C      1  0.4395840000000  0.5201410000000  0.4597460000000 1.0
C      1  0.5604160000000  0.5201410000000  0.5402540000000 1.0
C      1  0.4597460000000  0.5604160000000  0.4798590000000 1.0
C      1  0.5402540000000  0.4395840000000  0.4798590000000 1.0
C      1  0.4597460000000  0.4395840000000  0.5201410000000 1.0
C      1  0.4798590000000  0.4597460000000  0.5604160000000 1.0
C      1  0.5201410000000  0.5402540000000  0.5604160000000 1.0
C      1  0.4798590000000  0.5402540000000  0.4395840000000 1.0
C      1  0.5335720000000  0.4781730000000  0.4929150000000 1.0
C      1  0.4929150000000  0.5335720000000  0.4781730000000 1.0
C      1  0.4781730000000  0.4929150000000  0.5335720000000 1.0
C      1  0.4664280000000  0.4781730000000  0.5070850000000 1.0
C      1  0.5335720000000  0.5218270000000  0.5070850000000 1.0
C      1  0.4664280000000  0.5218270000000  0.4929150000000 1.0
C      1  0.5070850000000  0.5335720000000  0.5218270000000 1.0
C      1  0.4929150000000  0.4664280000000  0.5218270000000 1.0
C      1  0.5070850000000  0.4664280000000  0.4781730000000 1.0
C      1  0.5218270000000  0.4929150000000  0.4664280000000 1.0
C      1  0.4781730000000  0.5070850000000  0.4664280000000 1.0
C      1  0.5218270000000  0.5070850000000  0.5335720000000 1.0
C      1  0.5335720000000  0.5218270000000  0.4929150000000 1.0
C      1  0.4929150000000  0.4664280000000  0.4781730000000 1.0
C      1  0.4781730000000  0.5070850000000  0.5335720000000 1.0
C      1  0.4664280000000  0.5218270000000  0.5070850000000 1.0
C      1  0.5335720000000  0.4781730000000  0.5070850000000 1.0
C      1  0.4664280000000  0.4781730000000  0.4929150000000 1.0
C      1  0.5070850000000  0.4664280000000  0.5218270000000 1.0
C      1  0.4929150000000  0.5335720000000  0.5218270000000 1.0
C      1  0.5070850000000  0.5335720000000  0.4781730000000 1.0
C      1  0.5218270000000  0.5070850000000  0.4664280000000 1.0
C      1  0.4781730000000  0.4929150000000  0.4664280000000 1.0
C      1  0.5218270000000  0.4929150000000  0.5335720000000 1.0
C      1  0.4933060000000  0.5130770000000  0.4274770000000 1.0
C      1  0.4274770000000  0.4933060000000  0.5130770000000 1.0
C      1  0.5130770000000  0.4274770000000  0.4933060000000 1.0
C      1  0.5066940000000  0.5130770000000  0.5725230000000 1.0
C      1  0.4933060000000  0.4869230000000  0.5725230000000 1.0
C      1  0.5066940000000  0.4869230000000  0.4274770000000 1.0
C      1  0.5725230000000  0.4933060000000  0.4869230000000 1.0
C      1  0.4274770000000  0.5066940000000  0.4869230000000 1.0
C      1  0.5725230000000  0.5066940000000  0.5130770000000 1.0
C      1  0.4869230000000  0.4274770000000  0.5066940000000 1.0
C      1  0.5130770000000  0.5725230000000  0.5066940000000 1.0
C      1  0.4869230000000  0.5725230000000  0.4933060000000 1.0
C      1  0.4933060000000  0.4869230000000  0.4274770000000 1.0
C      1  0.4274770000000  0.5066940000000  0.5130770000000 1.0
C      1  0.5130770000000  0.5725230000000  0.4933060000000 1.0
C      1  0.5066940000000  0.4869230000000  0.5725230000000 1.0
C      1  0.4933060000000  0.5130770000000  0.5725230000000 1.0
C      1  0.5066940000000  0.5130770000000  0.4274770000000 1.0
C      1  0.5725230000000  0.5066940000000  0.4869230000000 1.0
C      1  0.4274770000000  0.4933060000000  0.4869230000000 1.0
C      1  0.5725230000000  0.4933060000000  0.5130770000000 1.0
C      1  0.4869230000000  0.5725230000000  0.5066940000000 1.0
C      1  0.5130770000000  0.4274770000000  0.5066940000000 1.0
C      1  0.4869230000000  0.4274770000000  0.4933060000000 1.0
C      1  0.5139880000000  0.4593390000000  0.5311920000000 1.0
C      1  0.5311920000000  0.5139880000000  0.4593390000000 1.0
C      1  0.4593390000000  0.5311920000000  0.5139880000000 1.0
C      1  0.4860120000000  0.4593390000000  0.4688080000000 1.0
C      1  0.5139880000000  0.5406610000000  0.4688080000000 1.0
C      1  0.4860120000000  0.5406610000000  0.5311920000000 1.0
C      1  0.4688080000000  0.5139880000000  0.5406610000000 1.0
C      1  0.5311920000000  0.4860120000000  0.5406610000000 1.0
C      1  0.4688080000000  0.4860120000000  0.4593390000000 1.0
C      1  0.5406610000000  0.5311920000000  0.4860120000000 1.0
C      1  0.4593390000000  0.4688080000000  0.4860120000000 1.0
C      1  0.5406610000000  0.4688080000000  0.5139880000000 1.0
C      1  0.5139880000000  0.5406610000000  0.5311920000000 1.0
C      1  0.5311920000000  0.4860120000000  0.4593390000000 1.0
C      1  0.4593390000000  0.4688080000000  0.5139880000000 1.0
C      1  0.4860120000000  0.5406610000000  0.4688080000000 1.0
C      1  0.5139880000000  0.4593390000000  0.4688080000000 1.0
C      1  0.4860120000000  0.4593390000000  0.5311920000000 1.0
C      1  0.4688080000000  0.4860120000000  0.5406610000000 1.0
C      1  0.5311920000000  0.5139880000000  0.5406610000000 1.0
C      1  0.4688080000000  0.5139880000000  0.4593390000000 1.0
C      1  0.5406610000000  0.4688080000000  0.4860120000000 1.0
C      1  0.4593390000000  0.5311920000000  0.4860120000000 1.0
C      1  0.5406610000000  0.5311920000000  0.5139880000000 1.0
C      1  0.4308080000000  0.5193940000000  0.5070650000000 1.0
C      1  0.5070650000000  0.4308080000000  0.5193940000000 1.0
C      1  0.5193940000000  0.5070650000000  0.4308080000000 1.0
C      1  0.5691920000000  0.5193940000000  0.4929350000000 1.0
C      1  0.4308080000000  0.4806060000000  0.4929350000000 1.0
C      1  0.5691920000000  0.4806060000000  0.5070650000000 1.0
C      1  0.4929350000000  0.4308080000000  0.4806060000000 1.0
C      1  0.5070650000000  0.5691920000000  0.4806060000000 1.0
C      1  0.4929350000000  0.5691920000000  0.5193940000000 1.0
C      1  0.4806060000000  0.5070650000000  0.5691920000000 1.0
C      1  0.5193940000000  0.4929350000000  0.5691920000000 1.0
C      1  0.4806060000000  0.4929350000000  0.4308080000000 1.0
C      1  0.4308080000000  0.4806060000000  0.5070650000000 1.0
C      1  0.5070650000000  0.5691920000000  0.5193940000000 1.0
C      1  0.5193940000000  0.4929350000000  0.4308080000000 1.0
C      1  0.5691920000000  0.4806060000000  0.4929350000000 1.0
C      1  0.4308080000000  0.5193940000000  0.4929350000000 1.0
C      1  0.5691920000000  0.5193940000000  0.5070650000000 1.0
C      1  0.4929350000000  0.5691920000000  0.4806060000000 1.0
C      1  0.5070650000000  0.4308080000000  0.4806060000000 1.0
C      1  0.4929350000000  0.4308080000000  0.5193940000000 1.0
C      1  0.4806060000000  0.4929350000000  0.5691920000000 1.0
C      1  0.5193940000000  0.5070650000000  0.5691920000000 1.0
C      1  0.4806060000000  0.5070650000000  0.4308080000000 1.0
C      1  0.5151540000000  0.5078490000000  0.4798680000000 1.0
C      1  0.4798680000000  0.5151540000000  0.5078490000000 1.0
C      1  0.5078490000000  0.4798680000000  0.5151540000000 1.0
C      1  0.4848460000000  0.5078490000000  0.5201320000000 1.0
C      1  0.5151540000000  0.4921510000000  0.5201320000000 1.0
C      1  0.4848460000000  0.4921510000000  0.4798680000000 1.0
C      1  0.5201320000000  0.5151540000000  0.4921510000000 1.0
C      1  0.4798680000000  0.4848460000000  0.4921510000000 1.0
C      1  0.5201320000000  0.4848460000000  0.5078490000000 1.0
C      1  0.4921510000000  0.4798680000000  0.4848460000000 1.0
C      1  0.5078490000000  0.5201320000000  0.4848460000000 1.0
C      1  0.4921510000000  0.5201320000000  0.5151540000000 1.0
C      1  0.5151540000000  0.4921510000000  0.4798680000000 1.0
C      1  0.4798680000000  0.4848460000000  0.5078490000000 1.0
C      1  0.5078490000000  0.5201320000000  0.5151540000000 1.0
C      1  0.4848460000000  0.4921510000000  0.5201320000000 1.0
C      1  0.5151540000000  0.5078490000000  0.5201320000000 1.0
C      1  0.4848460000000  0.5078490000000  0.4798680000000 1.0
C      1  0.5201320000000  0.4848460000000  0.4921510000000 1.0
C      1  0.4798680000000  0.5151540000000  0.4921510000000 1.0
C      1  0.5201320000000  0.5151540000000  0.5078490000000 1.0
C      1  0.4921510000000  0.5201320000000  0.4848460000000 1.0
C      1  0.5078490000000  0.4798680000000  0.4848460000000 1.0
C      1  0.4921510000000  0.4798680000000  0.5151540000000 1.0
C      1  0.5000000000000  0.5258280000000  0.5703390000000 1.0
C      1  0.4741720000000  0.5703390000000  0.5000000000000 1.0
C      1  0.5258280000000  0.4296610000000  0.5000000000000 1.0
C      1  0.5000000000000  0.5258280000000  0.4296610000000 1.0
C      1  0.5000000000000  0.4741720000000  0.5703390000000 1.0
C      1  0.5000000000000  0.4741720000000  0.4296610000000 1.0
C      1  0.5703390000000  0.5000000000000  0.5258280000000 1.0
C      1  0.5258280000000  0.5703390000000  0.5000000000000 1.0
C      1  0.4296610000000  0.5000000000000  0.4741720000000 1.0
C      1  0.5703390000000  0.5000000000000  0.4741720000000 1.0
C      1  0.4296610000000  0.5000000000000  0.5258280000000 1.0
C      1  0.4741720000000  0.4296610000000  0.5000000000000 1.0
END
