TITL C-1887019-1280-56 -4.90174711712428e-08 1000000 -2881.77243801054 0 0 420 (Th) n - 1
REM
REM in /nfs/bkarasulu/CARBON/AIRSS/Generating-Clusters/GAP-ML-2020/Higher-Symm/Selected-Sizes/TryA-Only_Ih-Symm/Larger-Clusters
REM
REM
REM
REM
REM
REM ./C.cell (2cf5181f0f1d4d5b12b972d32ad12063)
REM
REM compiler GCC version 9.2.1 20190827 (Red Hat 9.2.1-1)
REM options -cpp -mtune=generic -march=x86-64 -g -O0 -fpre-include=/usr/include/finclude/math-vector-fortran.h
REM seed -527181250 813970842 -792838723 107682985 -222550008 1570318244 1670745889 -1506875572 2068480760 49299972 1162056338 1421831704 -625435885 -6358513 2027023493 -554399400 918593586 -297886172 -1390270506 1309406542 465576715 810787221 -1480427167 1114389544 -2135824333 -1351353077 1736294608 661914871 979375695 -695158978 1266712294 -1408118539 -688277914
REM
CELL 1.54180  100.00000  100.00000  100.00000   90.00000   90.00000   90.00000
LATT -1
SFAC C  
C      1  0.4245400000000  0.4927760000000  0.5314260000000 1.0
C      1  0.4927760000000  0.5314260000000  0.4245400000000 1.0
C      1  0.5314260000000  0.4245400000000  0.4927760000000 1.0
C      1  0.5754600000000  0.5072240000000  0.5314260000000 1.0
C      1  0.4245400000000  0.5072240000000  0.4685740000000 1.0
C      1  0.5754600000000  0.4927760000000  0.4685740000000 1.0
C      1  0.5072240000000  0.4685740000000  0.4245400000000 1.0
C      1  0.4927760000000  0.4685740000000  0.5754600000000 1.0
C      1  0.5072240000000  0.5314260000000  0.5754600000000 1.0
C      1  0.4685740000000  0.5754600000000  0.4927760000000 1.0
C      1  0.5314260000000  0.5754600000000  0.5072240000000 1.0
C      1  0.4685740000000  0.4245400000000  0.5072240000000 1.0
C      1  0.4245400000000  0.4927760000000  0.4685740000000 1.0
C      1  0.4927760000000  0.5314260000000  0.5754600000000 1.0
C      1  0.5314260000000  0.4245400000000  0.5072240000000 1.0
C      1  0.5754600000000  0.5072240000000  0.4685740000000 1.0
C      1  0.4245400000000  0.5072240000000  0.5314260000000 1.0
C      1  0.5754600000000  0.4927760000000  0.5314260000000 1.0
C      1  0.5072240000000  0.4685740000000  0.5754600000000 1.0
C      1  0.4927760000000  0.4685740000000  0.4245400000000 1.0
C      1  0.5072240000000  0.5314260000000  0.4245400000000 1.0
C      1  0.4685740000000  0.5754600000000  0.5072240000000 1.0
C      1  0.5314260000000  0.5754600000000  0.4927760000000 1.0
C      1  0.4685740000000  0.4245400000000  0.4927760000000 1.0
C      1  0.4542320000000  0.5387110000000  0.5193450000000 1.0
C      1  0.5387110000000  0.5193450000000  0.4542320000000 1.0
C      1  0.5193450000000  0.4542320000000  0.5387110000000 1.0
C      1  0.5457680000000  0.4612890000000  0.5193450000000 1.0
C      1  0.4542320000000  0.4612890000000  0.4806550000000 1.0
C      1  0.5457680000000  0.5387110000000  0.4806550000000 1.0
C      1  0.4612890000000  0.4806550000000  0.4542320000000 1.0
C      1  0.5387110000000  0.4806550000000  0.5457680000000 1.0
C      1  0.4612890000000  0.5193450000000  0.5457680000000 1.0
C      1  0.4806550000000  0.5457680000000  0.5387110000000 1.0
C      1  0.5193450000000  0.5457680000000  0.4612890000000 1.0
C      1  0.4806550000000  0.4542320000000  0.4612890000000 1.0
C      1  0.4542320000000  0.5387110000000  0.4806550000000 1.0
C      1  0.5387110000000  0.5193450000000  0.5457680000000 1.0
C      1  0.5193450000000  0.4542320000000  0.4612890000000 1.0
C      1  0.5457680000000  0.4612890000000  0.4806550000000 1.0
C      1  0.4542320000000  0.4612890000000  0.5193450000000 1.0
C      1  0.5457680000000  0.5387110000000  0.5193450000000 1.0
C      1  0.4612890000000  0.4806550000000  0.5457680000000 1.0
C      1  0.5387110000000  0.4806550000000  0.4542320000000 1.0
C      1  0.4612890000000  0.5193450000000  0.4542320000000 1.0
C      1  0.4806550000000  0.5457680000000  0.4612890000000 1.0
C      1  0.5193450000000  0.5457680000000  0.5387110000000 1.0
C      1  0.4806550000000  0.4542320000000  0.5387110000000 1.0
C      1  0.5081100000000  0.5317490000000  0.4830890000000 1.0
C      1  0.5317490000000  0.4830890000000  0.5081100000000 1.0
C      1  0.4830890000000  0.5081100000000  0.5317490000000 1.0
C      1  0.4918900000000  0.4682510000000  0.4830890000000 1.0
C      1  0.5081100000000  0.4682510000000  0.5169110000000 1.0
C      1  0.4918900000000  0.5317490000000  0.5169110000000 1.0
C      1  0.4682510000000  0.5169110000000  0.5081100000000 1.0
C      1  0.5317490000000  0.5169110000000  0.4918900000000 1.0
C      1  0.4682510000000  0.4830890000000  0.4918900000000 1.0
C      1  0.5169110000000  0.4918900000000  0.5317490000000 1.0
C      1  0.4830890000000  0.4918900000000  0.4682510000000 1.0
C      1  0.5169110000000  0.5081100000000  0.4682510000000 1.0
C      1  0.5081100000000  0.5317490000000  0.5169110000000 1.0
C      1  0.5317490000000  0.4830890000000  0.4918900000000 1.0
C      1  0.4830890000000  0.5081100000000  0.4682510000000 1.0
C      1  0.4918900000000  0.4682510000000  0.5169110000000 1.0
C      1  0.5081100000000  0.4682510000000  0.4830890000000 1.0
C      1  0.4918900000000  0.5317490000000  0.4830890000000 1.0
C      1  0.4682510000000  0.5169110000000  0.4918900000000 1.0
C      1  0.5317490000000  0.5169110000000  0.5081100000000 1.0
C      1  0.4682510000000  0.4830890000000  0.5081100000000 1.0
C      1  0.5169110000000  0.4918900000000  0.4682510000000 1.0
C      1  0.4830890000000  0.4918900000000  0.5317490000000 1.0
C      1  0.5169110000000  0.5081100000000  0.5317490000000 1.0
C      1  0.4883920000000  0.5636760000000  0.4478770000000 1.0
C      1  0.5636760000000  0.4478770000000  0.4883920000000 1.0
C      1  0.4478770000000  0.4883920000000  0.5636760000000 1.0
C      1  0.5116080000000  0.4363240000000  0.4478770000000 1.0
C      1  0.4883920000000  0.4363240000000  0.5521230000000 1.0
C      1  0.5116080000000  0.5636760000000  0.5521230000000 1.0
C      1  0.4363240000000  0.5521230000000  0.4883920000000 1.0
C      1  0.5636760000000  0.5521230000000  0.5116080000000 1.0
C      1  0.4363240000000  0.4478770000000  0.5116080000000 1.0
C      1  0.5521230000000  0.5116080000000  0.5636760000000 1.0
C      1  0.4478770000000  0.5116080000000  0.4363240000000 1.0
C      1  0.5521230000000  0.4883920000000  0.4363240000000 1.0
C      1  0.4883920000000  0.5636760000000  0.5521230000000 1.0
C      1  0.5636760000000  0.4478770000000  0.5116080000000 1.0
C      1  0.4478770000000  0.4883920000000  0.4363240000000 1.0
C      1  0.5116080000000  0.4363240000000  0.5521230000000 1.0
C      1  0.4883920000000  0.4363240000000  0.4478770000000 1.0
C      1  0.5116080000000  0.5636760000000  0.4478770000000 1.0
C      1  0.4363240000000  0.5521230000000  0.5116080000000 1.0
C      1  0.5636760000000  0.5521230000000  0.4883920000000 1.0
C      1  0.4363240000000  0.4478770000000  0.4883920000000 1.0
C      1  0.5521230000000  0.5116080000000  0.4363240000000 1.0
C      1  0.4478770000000  0.5116080000000  0.5636760000000 1.0
C      1  0.5521230000000  0.4883920000000  0.5636760000000 1.0
C      1  0.5498360000000  0.5195390000000  0.4625190000000 1.0
C      1  0.5195390000000  0.4625190000000  0.5498360000000 1.0
C      1  0.4625190000000  0.5498360000000  0.5195390000000 1.0
C      1  0.4501640000000  0.4804610000000  0.4625190000000 1.0
C      1  0.5498360000000  0.4804610000000  0.5374810000000 1.0
C      1  0.4501640000000  0.5195390000000  0.5374810000000 1.0
C      1  0.4804610000000  0.5374810000000  0.5498360000000 1.0
C      1  0.5195390000000  0.5374810000000  0.4501640000000 1.0
C      1  0.4804610000000  0.4625190000000  0.4501640000000 1.0
C      1  0.5374810000000  0.4501640000000  0.5195390000000 1.0
C      1  0.4625190000000  0.4501640000000  0.4804610000000 1.0
C      1  0.5374810000000  0.5498360000000  0.4804610000000 1.0
C      1  0.5498360000000  0.5195390000000  0.5374810000000 1.0
C      1  0.5195390000000  0.4625190000000  0.4501640000000 1.0
C      1  0.4625190000000  0.5498360000000  0.4804610000000 1.0
C      1  0.4501640000000  0.4804610000000  0.5374810000000 1.0
C      1  0.5498360000000  0.4804610000000  0.4625190000000 1.0
C      1  0.4501640000000  0.5195390000000  0.4625190000000 1.0
C      1  0.4804610000000  0.5374810000000  0.4501640000000 1.0
C      1  0.5195390000000  0.5374810000000  0.5498360000000 1.0
C      1  0.4804610000000  0.4625190000000  0.5498360000000 1.0
C      1  0.5374810000000  0.4501640000000  0.4804610000000 1.0
C      1  0.4625190000000  0.4501640000000  0.5195390000000 1.0
C      1  0.5374810000000  0.5498360000000  0.5195390000000 1.0
C      1  0.5071930000000  0.4312560000000  0.4855040000000 1.0
C      1  0.4312560000000  0.4855040000000  0.5071930000000 1.0
C      1  0.4855040000000  0.5071930000000  0.4312560000000 1.0
C      1  0.4928070000000  0.5687440000000  0.4855040000000 1.0
C      1  0.5071930000000  0.5687440000000  0.5144960000000 1.0
C      1  0.4928070000000  0.4312560000000  0.5144960000000 1.0
C      1  0.5687440000000  0.5144960000000  0.5071930000000 1.0
C      1  0.4312560000000  0.5144960000000  0.4928070000000 1.0
C      1  0.5687440000000  0.4855040000000  0.4928070000000 1.0
C      1  0.5144960000000  0.4928070000000  0.4312560000000 1.0
C      1  0.4855040000000  0.4928070000000  0.5687440000000 1.0
C      1  0.5144960000000  0.5071930000000  0.5687440000000 1.0
C      1  0.5071930000000  0.4312560000000  0.5144960000000 1.0
C      1  0.4312560000000  0.4855040000000  0.4928070000000 1.0
C      1  0.4855040000000  0.5071930000000  0.5687440000000 1.0
C      1  0.4928070000000  0.5687440000000  0.5144960000000 1.0
C      1  0.5071930000000  0.5687440000000  0.4855040000000 1.0
C      1  0.4928070000000  0.4312560000000  0.4855040000000 1.0
C      1  0.5687440000000  0.5144960000000  0.4928070000000 1.0
C      1  0.4312560000000  0.5144960000000  0.5071930000000 1.0
C      1  0.5687440000000  0.4855040000000  0.5071930000000 1.0
C      1  0.5144960000000  0.4928070000000  0.5687440000000 1.0
C      1  0.4855040000000  0.4928070000000  0.4312560000000 1.0
C      1  0.5144960000000  0.5071930000000  0.4312560000000 1.0
C      1  0.4610180000000  0.4368190000000  0.4749590000000 1.0
C      1  0.4368190000000  0.4749590000000  0.4610180000000 1.0
C      1  0.4749590000000  0.4610180000000  0.4368190000000 1.0
C      1  0.5389820000000  0.5631810000000  0.4749590000000 1.0
C      1  0.4610180000000  0.5631810000000  0.5250410000000 1.0
C      1  0.5389820000000  0.4368190000000  0.5250410000000 1.0
C      1  0.5631810000000  0.5250410000000  0.4610180000000 1.0
C      1  0.4368190000000  0.5250410000000  0.5389820000000 1.0
C      1  0.5631810000000  0.4749590000000  0.5389820000000 1.0
C      1  0.5250410000000  0.5389820000000  0.4368190000000 1.0
C      1  0.4749590000000  0.5389820000000  0.5631810000000 1.0
C      1  0.5250410000000  0.4610180000000  0.5631810000000 1.0
C      1  0.4610180000000  0.4368190000000  0.5250410000000 1.0
C      1  0.4368190000000  0.4749590000000  0.5389820000000 1.0
C      1  0.4749590000000  0.4610180000000  0.5631810000000 1.0
C      1  0.5389820000000  0.5631810000000  0.5250410000000 1.0
C      1  0.4610180000000  0.5631810000000  0.4749590000000 1.0
C      1  0.5389820000000  0.4368190000000  0.4749590000000 1.0
C      1  0.5631810000000  0.5250410000000  0.5389820000000 1.0
C      1  0.4368190000000  0.5250410000000  0.4610180000000 1.0
C      1  0.5631810000000  0.4749590000000  0.4610180000000 1.0
C      1  0.5250410000000  0.5389820000000  0.5631810000000 1.0
C      1  0.4749590000000  0.5389820000000  0.4368190000000 1.0
C      1  0.5250410000000  0.4610180000000  0.4368190000000 1.0
C      1  0.5078190000000  0.5128490000000  0.5200650000000 1.0
C      1  0.5128490000000  0.5200650000000  0.5078190000000 1.0
C      1  0.5200650000000  0.5078190000000  0.5128490000000 1.0
C      1  0.4921810000000  0.4871510000000  0.5200650000000 1.0
C      1  0.5078190000000  0.4871510000000  0.4799350000000 1.0
C      1  0.4921810000000  0.5128490000000  0.4799350000000 1.0
C      1  0.4871510000000  0.4799350000000  0.5078190000000 1.0
C      1  0.5128490000000  0.4799350000000  0.4921810000000 1.0
C      1  0.4871510000000  0.5200650000000  0.4921810000000 1.0
C      1  0.4799350000000  0.4921810000000  0.5128490000000 1.0
C      1  0.5200650000000  0.4921810000000  0.4871510000000 1.0
C      1  0.4799350000000  0.5078190000000  0.4871510000000 1.0
C      1  0.5078190000000  0.5128490000000  0.4799350000000 1.0
C      1  0.5128490000000  0.5200650000000  0.4921810000000 1.0
C      1  0.5200650000000  0.5078190000000  0.4871510000000 1.0
C      1  0.4921810000000  0.4871510000000  0.4799350000000 1.0
C      1  0.5078190000000  0.4871510000000  0.5200650000000 1.0
C      1  0.4921810000000  0.5128490000000  0.5200650000000 1.0
C      1  0.4871510000000  0.4799350000000  0.4921810000000 1.0
C      1  0.5128490000000  0.4799350000000  0.5078190000000 1.0
C      1  0.4871510000000  0.5200650000000  0.5078190000000 1.0
C      1  0.4799350000000  0.4921810000000  0.4871510000000 1.0
C      1  0.5200650000000  0.4921810000000  0.5128490000000 1.0
C      1  0.4799350000000  0.5078190000000  0.5128490000000 1.0
C      1  0.5205870000000  0.5603210000000  0.4592920000000 1.0
C      1  0.5603210000000  0.4592920000000  0.5205870000000 1.0
C      1  0.4592920000000  0.5205870000000  0.5603210000000 1.0
C      1  0.4794130000000  0.4396790000000  0.4592920000000 1.0
C      1  0.5205870000000  0.4396790000000  0.5407080000000 1.0
C      1  0.4794130000000  0.5603210000000  0.5407080000000 1.0
C      1  0.4396790000000  0.5407080000000  0.5205870000000 1.0
C      1  0.5603210000000  0.5407080000000  0.4794130000000 1.0
C      1  0.4396790000000  0.4592920000000  0.4794130000000 1.0
C      1  0.5407080000000  0.4794130000000  0.5603210000000 1.0
C      1  0.4592920000000  0.4794130000000  0.4396790000000 1.0
C      1  0.5407080000000  0.5205870000000  0.4396790000000 1.0
C      1  0.5205870000000  0.5603210000000  0.5407080000000 1.0
C      1  0.5603210000000  0.4592920000000  0.4794130000000 1.0
C      1  0.4592920000000  0.5205870000000  0.4396790000000 1.0
C      1  0.4794130000000  0.4396790000000  0.5407080000000 1.0
C      1  0.5205870000000  0.4396790000000  0.4592920000000 1.0
C      1  0.4794130000000  0.5603210000000  0.4592920000000 1.0
C      1  0.4396790000000  0.5407080000000  0.4794130000000 1.0
C      1  0.5603210000000  0.5407080000000  0.5205870000000 1.0
C      1  0.4396790000000  0.4592920000000  0.5205870000000 1.0
C      1  0.5407080000000  0.4794130000000  0.4396790000000 1.0
C      1  0.4592920000000  0.4794130000000  0.5603210000000 1.0
C      1  0.5407080000000  0.5205870000000  0.5603210000000 1.0
C      1  0.5070030000000  0.5546080000000  0.5635120000000 1.0
C      1  0.5546080000000  0.5635120000000  0.5070030000000 1.0
C      1  0.5635120000000  0.5070030000000  0.5546080000000 1.0
C      1  0.4929970000000  0.4453920000000  0.5635120000000 1.0
C      1  0.5070030000000  0.4453920000000  0.4364880000000 1.0
C      1  0.4929970000000  0.5546080000000  0.4364880000000 1.0
C      1  0.4453920000000  0.4364880000000  0.5070030000000 1.0
C      1  0.5546080000000  0.4364880000000  0.4929970000000 1.0
C      1  0.4453920000000  0.5635120000000  0.4929970000000 1.0
C      1  0.4364880000000  0.4929970000000  0.5546080000000 1.0
C      1  0.5635120000000  0.4929970000000  0.4453920000000 1.0
C      1  0.4364880000000  0.5070030000000  0.4453920000000 1.0
C      1  0.5070030000000  0.5546080000000  0.4364880000000 1.0
C      1  0.5546080000000  0.5635120000000  0.4929970000000 1.0
C      1  0.5635120000000  0.5070030000000  0.4453920000000 1.0
C      1  0.4929970000000  0.4453920000000  0.4364880000000 1.0
C      1  0.5070030000000  0.4453920000000  0.5635120000000 1.0
C      1  0.4929970000000  0.5546080000000  0.5635120000000 1.0
C      1  0.4453920000000  0.4364880000000  0.4929970000000 1.0
C      1  0.5546080000000  0.4364880000000  0.5070030000000 1.0
C      1  0.4453920000000  0.5635120000000  0.5070030000000 1.0
C      1  0.4364880000000  0.4929970000000  0.4453920000000 1.0
C      1  0.5635120000000  0.4929970000000  0.5546080000000 1.0
C      1  0.4364880000000  0.5070030000000  0.5546080000000 1.0
C      1  0.5400240000000  0.4744880000000  0.4827150000000 1.0
C      1  0.4744880000000  0.4827150000000  0.5400240000000 1.0
C      1  0.4827150000000  0.5400240000000  0.4744880000000 1.0
C      1  0.4599760000000  0.5255120000000  0.4827150000000 1.0
C      1  0.5400240000000  0.5255120000000  0.5172850000000 1.0
C      1  0.4599760000000  0.4744880000000  0.5172850000000 1.0
C      1  0.5255120000000  0.5172850000000  0.5400240000000 1.0
C      1  0.4744880000000  0.5172850000000  0.4599760000000 1.0
C      1  0.5255120000000  0.4827150000000  0.4599760000000 1.0
C      1  0.5172850000000  0.4599760000000  0.4744880000000 1.0
C      1  0.4827150000000  0.4599760000000  0.5255120000000 1.0
C      1  0.5172850000000  0.5400240000000  0.5255120000000 1.0
C      1  0.5400240000000  0.4744880000000  0.5172850000000 1.0
C      1  0.4744880000000  0.4827150000000  0.4599760000000 1.0
C      1  0.4827150000000  0.5400240000000  0.5255120000000 1.0
C      1  0.4599760000000  0.5255120000000  0.5172850000000 1.0
C      1  0.5400240000000  0.5255120000000  0.4827150000000 1.0
C      1  0.4599760000000  0.4744880000000  0.4827150000000 1.0
C      1  0.5255120000000  0.5172850000000  0.4599760000000 1.0
C      1  0.4744880000000  0.5172850000000  0.5400240000000 1.0
C      1  0.5255120000000  0.4827150000000  0.5400240000000 1.0
C      1  0.5172850000000  0.4599760000000  0.5255120000000 1.0
C      1  0.4827150000000  0.4599760000000  0.4744880000000 1.0
C      1  0.5172850000000  0.5400240000000  0.4744880000000 1.0
C      1  0.4928370000000  0.4929120000000  0.4562890000000 1.0
C      1  0.4929120000000  0.4562890000000  0.4928370000000 1.0
C      1  0.4562890000000  0.4928370000000  0.4929120000000 1.0
C      1  0.5071630000000  0.5070880000000  0.4562890000000 1.0
C      1  0.4928370000000  0.5070880000000  0.5437110000000 1.0
C      1  0.5071630000000  0.4929120000000  0.5437110000000 1.0
C      1  0.5070880000000  0.5437110000000  0.4928370000000 1.0
C      1  0.4929120000000  0.5437110000000  0.5071630000000 1.0
C      1  0.5070880000000  0.4562890000000  0.5071630000000 1.0
C      1  0.5437110000000  0.5071630000000  0.4929120000000 1.0
C      1  0.4562890000000  0.5071630000000  0.5070880000000 1.0
C      1  0.5437110000000  0.4928370000000  0.5070880000000 1.0
C      1  0.4928370000000  0.4929120000000  0.5437110000000 1.0
C      1  0.4929120000000  0.4562890000000  0.5071630000000 1.0
C      1  0.4562890000000  0.4928370000000  0.5070880000000 1.0
C      1  0.5071630000000  0.5070880000000  0.5437110000000 1.0
C      1  0.4928370000000  0.5070880000000  0.4562890000000 1.0
C      1  0.5071630000000  0.4929120000000  0.4562890000000 1.0
C      1  0.5070880000000  0.5437110000000  0.5071630000000 1.0
C      1  0.4929120000000  0.5437110000000  0.4928370000000 1.0
C      1  0.5070880000000  0.4562890000000  0.4928370000000 1.0
C      1  0.5437110000000  0.5071630000000  0.5070880000000 1.0
C      1  0.4562890000000  0.5071630000000  0.4929120000000 1.0
C      1  0.5437110000000  0.4928370000000  0.4929120000000 1.0
C      1  0.4799230000000  0.5744210000000  0.4821330000000 1.0
C      1  0.5744210000000  0.4821330000000  0.4799230000000 1.0
C      1  0.4821330000000  0.4799230000000  0.5744210000000 1.0
C      1  0.5200770000000  0.4255790000000  0.4821330000000 1.0
C      1  0.4799230000000  0.4255790000000  0.5178670000000 1.0
C      1  0.5200770000000  0.5744210000000  0.5178670000000 1.0
C      1  0.4255790000000  0.5178670000000  0.4799230000000 1.0
C      1  0.5744210000000  0.5178670000000  0.5200770000000 1.0
C      1  0.4255790000000  0.4821330000000  0.5200770000000 1.0
C      1  0.5178670000000  0.5200770000000  0.5744210000000 1.0
C      1  0.4821330000000  0.5200770000000  0.4255790000000 1.0
C      1  0.5178670000000  0.4799230000000  0.4255790000000 1.0
C      1  0.4799230000000  0.5744210000000  0.5178670000000 1.0
C      1  0.5744210000000  0.4821330000000  0.5200770000000 1.0
C      1  0.4821330000000  0.4799230000000  0.4255790000000 1.0
C      1  0.5200770000000  0.4255790000000  0.5178670000000 1.0
C      1  0.4799230000000  0.4255790000000  0.4821330000000 1.0
C      1  0.5200770000000  0.5744210000000  0.4821330000000 1.0
C      1  0.4255790000000  0.5178670000000  0.5200770000000 1.0
C      1  0.5744210000000  0.5178670000000  0.4799230000000 1.0
C      1  0.4255790000000  0.4821330000000  0.4799230000000 1.0
C      1  0.5178670000000  0.5200770000000  0.4255790000000 1.0
C      1  0.4821330000000  0.5200770000000  0.5744210000000 1.0
C      1  0.5178670000000  0.4799230000000  0.5744210000000 1.0
C      1  0.5565310000000  0.4920960000000  0.4854070000000 1.0
C      1  0.4920960000000  0.4854070000000  0.5565310000000 1.0
C      1  0.4854070000000  0.5565310000000  0.4920960000000 1.0
C      1  0.4434690000000  0.5079040000000  0.4854070000000 1.0
C      1  0.5565310000000  0.5079040000000  0.5145930000000 1.0
C      1  0.4434690000000  0.4920960000000  0.5145930000000 1.0
C      1  0.5079040000000  0.5145930000000  0.5565310000000 1.0
C      1  0.4920960000000  0.5145930000000  0.4434690000000 1.0
C      1  0.5079040000000  0.4854070000000  0.4434690000000 1.0
C      1  0.5145930000000  0.4434690000000  0.4920960000000 1.0
C      1  0.4854070000000  0.4434690000000  0.5079040000000 1.0
C      1  0.5145930000000  0.5565310000000  0.5079040000000 1.0
C      1  0.5565310000000  0.4920960000000  0.5145930000000 1.0
C      1  0.4920960000000  0.4854070000000  0.4434690000000 1.0
C      1  0.4854070000000  0.5565310000000  0.5079040000000 1.0
C      1  0.4434690000000  0.5079040000000  0.5145930000000 1.0
C      1  0.5565310000000  0.5079040000000  0.4854070000000 1.0
C      1  0.4434690000000  0.4920960000000  0.4854070000000 1.0
C      1  0.5079040000000  0.5145930000000  0.4434690000000 1.0
C      1  0.4920960000000  0.5145930000000  0.5565310000000 1.0
C      1  0.5079040000000  0.4854070000000  0.5565310000000 1.0
C      1  0.5145930000000  0.4434690000000  0.5079040000000 1.0
C      1  0.4854070000000  0.4434690000000  0.4920960000000 1.0
C      1  0.5145930000000  0.5565310000000  0.4920960000000 1.0
C      1  0.4759140000000  0.5479220000000  0.4843550000000 1.0
C      1  0.5479220000000  0.4843550000000  0.4759140000000 1.0
C      1  0.4843550000000  0.4759140000000  0.5479220000000 1.0
C      1  0.5240860000000  0.4520780000000  0.4843550000000 1.0
C      1  0.4759140000000  0.4520780000000  0.5156450000000 1.0
C      1  0.5240860000000  0.5479220000000  0.5156450000000 1.0
C      1  0.4520780000000  0.5156450000000  0.4759140000000 1.0
C      1  0.5479220000000  0.5156450000000  0.5240860000000 1.0
C      1  0.4520780000000  0.4843550000000  0.5240860000000 1.0
C      1  0.5156450000000  0.5240860000000  0.5479220000000 1.0
C      1  0.4843550000000  0.5240860000000  0.4520780000000 1.0
C      1  0.5156450000000  0.4759140000000  0.4520780000000 1.0
C      1  0.4759140000000  0.5479220000000  0.5156450000000 1.0
C      1  0.5479220000000  0.4843550000000  0.5240860000000 1.0
C      1  0.4843550000000  0.4759140000000  0.4520780000000 1.0
C      1  0.5240860000000  0.4520780000000  0.5156450000000 1.0
C      1  0.4759140000000  0.4520780000000  0.4843550000000 1.0
C      1  0.5240860000000  0.5479220000000  0.4843550000000 1.0
C      1  0.4520780000000  0.5156450000000  0.5240860000000 1.0
C      1  0.5479220000000  0.5156450000000  0.4759140000000 1.0
C      1  0.4520780000000  0.4843550000000  0.4759140000000 1.0
C      1  0.5156450000000  0.5240860000000  0.4520780000000 1.0
C      1  0.4843550000000  0.5240860000000  0.5479220000000 1.0
C      1  0.5156450000000  0.4759140000000  0.5479220000000 1.0
C      1  0.4564890000000  0.4300120000000  0.4865690000000 1.0
C      1  0.4300120000000  0.4865690000000  0.4564890000000 1.0
C      1  0.4865690000000  0.4564890000000  0.4300120000000 1.0
C      1  0.5435110000000  0.5699880000000  0.4865690000000 1.0
C      1  0.4564890000000  0.5699880000000  0.5134310000000 1.0
C      1  0.5435110000000  0.4300120000000  0.5134310000000 1.0
C      1  0.5699880000000  0.5134310000000  0.4564890000000 1.0
C      1  0.4300120000000  0.5134310000000  0.5435110000000 1.0
C      1  0.5699880000000  0.4865690000000  0.5435110000000 1.0
C      1  0.5134310000000  0.5435110000000  0.4300120000000 1.0
C      1  0.4865690000000  0.5435110000000  0.5699880000000 1.0
C      1  0.5134310000000  0.4564890000000  0.5699880000000 1.0
C      1  0.4564890000000  0.4300120000000  0.5134310000000 1.0
C      1  0.4300120000000  0.4865690000000  0.5435110000000 1.0
C      1  0.4865690000000  0.4564890000000  0.5699880000000 1.0
C      1  0.5435110000000  0.5699880000000  0.5134310000000 1.0
C      1  0.4564890000000  0.5699880000000  0.4865690000000 1.0
C      1  0.5435110000000  0.4300120000000  0.4865690000000 1.0
C      1  0.5699880000000  0.5134310000000  0.5435110000000 1.0
C      1  0.4300120000000  0.5134310000000  0.4564890000000 1.0
C      1  0.5699880000000  0.4865690000000  0.4564890000000 1.0
C      1  0.5134310000000  0.5435110000000  0.5699880000000 1.0
C      1  0.4865690000000  0.5435110000000  0.4300120000000 1.0
C      1  0.5134310000000  0.4564890000000  0.4300120000000 1.0
C      1  0.4736570000000  0.4317620000000  0.5298640000000 1.0
C      1  0.4317620000000  0.5298640000000  0.4736570000000 1.0
C      1  0.5298640000000  0.4736570000000  0.4317620000000 1.0
C      1  0.5263430000000  0.5682380000000  0.5298640000000 1.0
C      1  0.4736570000000  0.5682380000000  0.4701360000000 1.0
C      1  0.5263430000000  0.4317620000000  0.4701360000000 1.0
C      1  0.5682380000000  0.4701360000000  0.4736570000000 1.0
C      1  0.4317620000000  0.4701360000000  0.5263430000000 1.0
C      1  0.5682380000000  0.5298640000000  0.5263430000000 1.0
C      1  0.4701360000000  0.5263430000000  0.4317620000000 1.0
C      1  0.5298640000000  0.5263430000000  0.5682380000000 1.0
C      1  0.4701360000000  0.4736570000000  0.5682380000000 1.0
C      1  0.4736570000000  0.4317620000000  0.4701360000000 1.0
C      1  0.4317620000000  0.5298640000000  0.5263430000000 1.0
C      1  0.5298640000000  0.4736570000000  0.5682380000000 1.0
C      1  0.5263430000000  0.5682380000000  0.4701360000000 1.0
C      1  0.4736570000000  0.5682380000000  0.5298640000000 1.0
C      1  0.5263430000000  0.4317620000000  0.5298640000000 1.0
C      1  0.5682380000000  0.4701360000000  0.5263430000000 1.0
C      1  0.4317620000000  0.4701360000000  0.4736570000000 1.0
C      1  0.5682380000000  0.5298640000000  0.4736570000000 1.0
C      1  0.4701360000000  0.5263430000000  0.5682380000000 1.0
C      1  0.5298640000000  0.5263430000000  0.4317620000000 1.0
C      1  0.4701360000000  0.4736570000000  0.4317620000000 1.0
C      1  0.5000000000000  0.5706420000000  0.5487780000000 1.0
C      1  0.5706420000000  0.5487780000000  0.5000000000000 1.0
C      1  0.5487780000000  0.5000000000000  0.5706420000000 1.0
C      1  0.5000000000000  0.4293580000000  0.5487780000000 1.0
C      1  0.5000000000000  0.4293580000000  0.4512220000000 1.0
C      1  0.5000000000000  0.5706420000000  0.4512220000000 1.0
C      1  0.4293580000000  0.4512220000000  0.5000000000000 1.0
C      1  0.5706420000000  0.4512220000000  0.5000000000000 1.0
C      1  0.4293580000000  0.5487780000000  0.5000000000000 1.0
C      1  0.4512220000000  0.5000000000000  0.5706420000000 1.0
C      1  0.5487780000000  0.5000000000000  0.4293580000000 1.0
C      1  0.4512220000000  0.5000000000000  0.4293580000000 1.0
END
