TITL C-1892073-1155-47 -1.39071700068707e-06 1000000 -3011.99343577888 0 0 440 (Th) n - 1
REM
REM in /nfs/bkarasulu/CARBON/AIRSS/Generating-Clusters/GAP-ML-2020/Higher-Symm/Selected-Sizes/TryA-Only_Ih-Symm/Larger-Clusters
REM
REM
REM
REM
REM
REM ./C.cell (2cf5181f0f1d4d5b12b972d32ad12063)
REM
REM compiler GCC version 9.2.1 20190827 (Red Hat 9.2.1-1)
REM options -cpp -mtune=generic -march=x86-64 -g -O0 -fpre-include=/usr/include/finclude/math-vector-fortran.h
REM seed 893401224 -1550959017 -1044444122 426776908 1872005804 464992075 -1019887127 -1720585751 349831144 163619220 -1508882520 1447652193 -1135970132 -386751052 -361206825 -951623756 251567808 757618972 -454178337 1363698419 -1015608197 1496996396 -1169466859 969689199 279307480 -2028364360 867840208 -935416839 1406978707 868486095 434772339 -1124771819 -354172072
REM
CELL 1.54180  100.00000  100.00000  100.00000   90.00000   90.00000   90.00000
LATT -1
SFAC C  
C      1  0.5413510000000  0.5577140000000  0.4607470000000 1.0
C      1  0.4610220000000  0.5412920000000  0.5574970000000 1.0
C      1  0.5577720000000  0.4609640000000  0.5410750000000 1.0
C      1  0.4590840000000  0.5577140000000  0.5391370000000 1.0
C      1  0.5413510000000  0.4426040000000  0.5391370000000 1.0
C      1  0.4590840000000  0.4426040000000  0.4607470000000 1.0
C      1  0.5394130000000  0.5412920000000  0.4423870000000 1.0
C      1  0.4610220000000  0.4590260000000  0.4423870000000 1.0
C      1  0.5394130000000  0.4590260000000  0.5574970000000 1.0
C      1  0.4426630000000  0.4609640000000  0.4588090000000 1.0
C      1  0.5577720000000  0.5393540000000  0.4588090000000 1.0
C      1  0.4426630000000  0.5393540000000  0.5410750000000 1.0
C      1  0.5413510000000  0.4426040000000  0.4607470000000 1.0
C      1  0.4610220000000  0.4590260000000  0.5574970000000 1.0
C      1  0.5577720000000  0.5393540000000  0.5410750000000 1.0
C      1  0.4590840000000  0.4426040000000  0.5391370000000 1.0
C      1  0.5413510000000  0.5577140000000  0.5391370000000 1.0
C      1  0.4590840000000  0.5577140000000  0.4607470000000 1.0
C      1  0.5394130000000  0.4590260000000  0.4423870000000 1.0
C      1  0.4610220000000  0.5412920000000  0.4423870000000 1.0
C      1  0.5394130000000  0.5412920000000  0.5574970000000 1.0
C      1  0.4426630000000  0.5393540000000  0.4588090000000 1.0
C      1  0.5577720000000  0.4609640000000  0.4588090000000 1.0
C      1  0.4426630000000  0.4609640000000  0.5410750000000 1.0
C      1  0.5565410000000  0.4929030000000  0.4462750000000 1.0
C      1  0.4465510000000  0.5564830000000  0.4926860000000 1.0
C      1  0.4929620000000  0.4464930000000  0.5562650000000 1.0
C      1  0.4438940000000  0.4929030000000  0.5536080000000 1.0
C      1  0.5565410000000  0.5074150000000  0.5536080000000 1.0
C      1  0.4438940000000  0.5074150000000  0.4462750000000 1.0
C      1  0.5538840000000  0.5564830000000  0.5071980000000 1.0
C      1  0.4465510000000  0.4438360000000  0.5071980000000 1.0
C      1  0.5538840000000  0.4438360000000  0.4926860000000 1.0
C      1  0.5074730000000  0.4464930000000  0.4436180000000 1.0
C      1  0.4929620000000  0.5538260000000  0.4436180000000 1.0
C      1  0.5074730000000  0.5538260000000  0.5562650000000 1.0
C      1  0.5565410000000  0.5074150000000  0.4462750000000 1.0
C      1  0.4465510000000  0.4438360000000  0.4926860000000 1.0
C      1  0.4929620000000  0.5538260000000  0.5562650000000 1.0
C      1  0.4438940000000  0.5074150000000  0.5536080000000 1.0
C      1  0.5565410000000  0.4929030000000  0.5536080000000 1.0
C      1  0.4438940000000  0.4929030000000  0.4462750000000 1.0
C      1  0.5538840000000  0.4438360000000  0.5071980000000 1.0
C      1  0.4465510000000  0.5564830000000  0.5071980000000 1.0
C      1  0.5538840000000  0.5564830000000  0.4926860000000 1.0
C      1  0.5074730000000  0.5538260000000  0.4436180000000 1.0
C      1  0.4929620000000  0.4464930000000  0.4436180000000 1.0
C      1  0.5074730000000  0.4464930000000  0.5562650000000 1.0
C      1  0.4474440000000  0.5448030000000  0.5149020000000 1.0
C      1  0.5151780000000  0.4473860000000  0.5445850000000 1.0
C      1  0.5448610000000  0.5151200000000  0.4471690000000 1.0
C      1  0.5529900000000  0.5448030000000  0.4849810000000 1.0
C      1  0.4474440000000  0.4555160000000  0.4849810000000 1.0
C      1  0.5529900000000  0.4555160000000  0.5149020000000 1.0
C      1  0.4852570000000  0.4473860000000  0.4552980000000 1.0
C      1  0.5151780000000  0.5529320000000  0.4552980000000 1.0
C      1  0.4852570000000  0.5529320000000  0.5445850000000 1.0
C      1  0.4555740000000  0.5151200000000  0.5527150000000 1.0
C      1  0.5448610000000  0.4851990000000  0.5527150000000 1.0
C      1  0.4555740000000  0.4851990000000  0.4471690000000 1.0
C      1  0.4474440000000  0.4555160000000  0.5149020000000 1.0
C      1  0.5151780000000  0.5529320000000  0.5445850000000 1.0
C      1  0.5448610000000  0.4851990000000  0.4471690000000 1.0
C      1  0.5529900000000  0.4555160000000  0.4849810000000 1.0
C      1  0.4474440000000  0.5448030000000  0.4849810000000 1.0
C      1  0.5529900000000  0.5448030000000  0.5149020000000 1.0
C      1  0.4852570000000  0.5529320000000  0.4552980000000 1.0
C      1  0.5151780000000  0.4473860000000  0.4552980000000 1.0
C      1  0.4852570000000  0.4473860000000  0.5445850000000 1.0
C      1  0.4555740000000  0.4851990000000  0.5527150000000 1.0
C      1  0.5448610000000  0.5151200000000  0.5527150000000 1.0
C      1  0.4555740000000  0.5151200000000  0.4471690000000 1.0
C      1  0.5296180000000  0.5319490000000  0.4513630000000 1.0
C      1  0.4516390000000  0.5295600000000  0.5317310000000 1.0
C      1  0.5320070000000  0.4515810000000  0.5293420000000 1.0
C      1  0.4708170000000  0.5319490000000  0.5485200000000 1.0
C      1  0.5296180000000  0.4683700000000  0.5485200000000 1.0
C      1  0.4708170000000  0.4683700000000  0.4513630000000 1.0
C      1  0.5487960000000  0.5295600000000  0.4681520000000 1.0
C      1  0.4516390000000  0.4707580000000  0.4681520000000 1.0
C      1  0.5487960000000  0.4707580000000  0.5317310000000 1.0
C      1  0.4684280000000  0.4515810000000  0.4705410000000 1.0
C      1  0.5320070000000  0.5487380000000  0.4705410000000 1.0
C      1  0.4684280000000  0.5487380000000  0.5293420000000 1.0
C      1  0.5296180000000  0.4683700000000  0.4513630000000 1.0
C      1  0.4516390000000  0.4707580000000  0.5317310000000 1.0
C      1  0.5320070000000  0.5487380000000  0.5293420000000 1.0
C      1  0.4708170000000  0.4683700000000  0.5485200000000 1.0
C      1  0.5296180000000  0.5319490000000  0.5485200000000 1.0
C      1  0.4708170000000  0.5319490000000  0.4513630000000 1.0
C      1  0.5487960000000  0.4707590000000  0.4681520000000 1.0
C      1  0.4516390000000  0.5295600000000  0.4681520000000 1.0
C      1  0.5487960000000  0.5295600000000  0.5317310000000 1.0
C      1  0.4684280000000  0.5487380000000  0.4705410000000 1.0
C      1  0.5320070000000  0.4515810000000  0.4705410000000 1.0
C      1  0.4684280000000  0.4515810000000  0.5293420000000 1.0
C      1  0.5130280000000  0.4376530000000  0.4657630000000 1.0
C      1  0.4660390000000  0.5129700000000  0.4374350000000 1.0
C      1  0.4377110000000  0.4659800000000  0.5127520000000 1.0
C      1  0.4874070000000  0.4376530000000  0.5341210000000 1.0
C      1  0.5130280000000  0.5626660000000  0.5341210000000 1.0
C      1  0.4874070000000  0.5626660000000  0.4657630000000 1.0
C      1  0.5343960000000  0.5129700000000  0.5624480000000 1.0
C      1  0.4660390000000  0.4873490000000  0.5624480000000 1.0
C      1  0.5343960000000  0.4873490000000  0.4374350000000 1.0
C      1  0.5627240000000  0.4659800000000  0.4871310000000 1.0
C      1  0.4377110000000  0.5343380000000  0.4871310000000 1.0
C      1  0.5627240000000  0.5343380000000  0.5127520000000 1.0
C      1  0.5130280000000  0.5626660000000  0.4657630000000 1.0
C      1  0.4660390000000  0.4873490000000  0.4374350000000 1.0
C      1  0.4377110000000  0.5343380000000  0.5127520000000 1.0
C      1  0.4874070000000  0.5626660000000  0.5341210000000 1.0
C      1  0.5130280000000  0.4376530000000  0.5341210000000 1.0
C      1  0.4874070000000  0.4376530000000  0.4657630000000 1.0
C      1  0.5343960000000  0.4873490000000  0.5624480000000 1.0
C      1  0.4660390000000  0.5129700000000  0.5624480000000 1.0
C      1  0.5343960000000  0.5129700000000  0.4374350000000 1.0
C      1  0.5627240000000  0.5343380000000  0.4871310000000 1.0
C      1  0.4377110000000  0.4659800000000  0.4871310000000 1.0
C      1  0.5627240000000  0.4659800000000  0.5127520000000 1.0
C      1  0.5211590000000  0.5267010000000  0.5073270000000 1.0
C      1  0.5076020000000  0.5211000000000  0.5264830000000 1.0
C      1  0.5267590000000  0.5075440000000  0.5208830000000 1.0
C      1  0.4792760000000  0.5267010000000  0.4925570000000 1.0
C      1  0.5211590000000  0.4736180000000  0.4925570000000 1.0
C      1  0.4792760000000  0.4736180000000  0.5073270000000 1.0
C      1  0.4928320000000  0.5211000000000  0.4734000000000 1.0
C      1  0.5076020000000  0.4792180000000  0.4734000000000 1.0
C      1  0.4928320000000  0.4792180000000  0.5264830000000 1.0
C      1  0.4736760000000  0.5075440000000  0.4790010000000 1.0
C      1  0.5267590000000  0.4927740000000  0.4790010000000 1.0
C      1  0.4736760000000  0.4927740000000  0.5208830000000 1.0
C      1  0.5211590000000  0.4736180000000  0.5073270000000 1.0
C      1  0.5076020000000  0.4792180000000  0.5264830000000 1.0
C      1  0.5267590000000  0.4927740000000  0.5208830000000 1.0
C      1  0.4792760000000  0.4736180000000  0.4925570000000 1.0
C      1  0.5211590000000  0.5267010000000  0.4925570000000 1.0
C      1  0.4792760000000  0.5267010000000  0.5073270000000 1.0
C      1  0.4928320000000  0.4792180000000  0.4734000000000 1.0
C      1  0.5076020000000  0.5211000000000  0.4734000000000 1.0
C      1  0.4928320000000  0.5211000000000  0.5264830000000 1.0
C      1  0.4736760000000  0.4927740000000  0.4790010000000 1.0
C      1  0.5267590000000  0.5075440000000  0.4790010000000 1.0
C      1  0.4736760000000  0.5075440000000  0.5208830000000 1.0
C      1  0.4708010000000  0.4701060000000  0.5186380000000 1.0
C      1  0.5189130000000  0.4707430000000  0.4698890000000 1.0
C      1  0.4701640000000  0.5188550000000  0.4705260000000 1.0
C      1  0.5296330000000  0.4701060000000  0.4812460000000 1.0
C      1  0.4708010000000  0.5302120000000  0.4812460000000 1.0
C      1  0.5296330000000  0.5302120000000  0.5186380000000 1.0
C      1  0.4815210000000  0.4707430000000  0.5299950000000 1.0
C      1  0.5189130000000  0.5295750000000  0.5299950000000 1.0
C      1  0.4815210000000  0.5295750000000  0.4698890000000 1.0
C      1  0.5302710000000  0.5188550000000  0.5293580000000 1.0
C      1  0.4701640000000  0.4814630000000  0.5293580000000 1.0
C      1  0.5302710000000  0.4814630000000  0.4705260000000 1.0
C      1  0.4708010000000  0.5302120000000  0.5186380000000 1.0
C      1  0.5189130000000  0.5295750000000  0.4698890000000 1.0
C      1  0.4701640000000  0.4814630000000  0.4705260000000 1.0
C      1  0.5296330000000  0.5302120000000  0.4812460000000 1.0
C      1  0.4708010000000  0.4701060000000  0.4812460000000 1.0
C      1  0.5296330000000  0.4701060000000  0.5186380000000 1.0
C      1  0.4815210000000  0.5295750000000  0.5299950000000 1.0
C      1  0.5189130000000  0.4707430000000  0.5299950000000 1.0
C      1  0.4815210000000  0.4707430000000  0.4698890000000 1.0
C      1  0.5302710000000  0.4814630000000  0.5293580000000 1.0
C      1  0.4701640000000  0.5188550000000  0.5293580000000 1.0
C      1  0.5302710000000  0.5188550000000  0.4705260000000 1.0
C      1  0.5343210000000  0.4284010000000  0.4860720000000 1.0
C      1  0.4863470000000  0.5342630000000  0.4281840000000 1.0
C      1  0.4284600000000  0.4862890000000  0.5340460000000 1.0
C      1  0.4661140000000  0.4284010000000  0.5138120000000 1.0
C      1  0.5343210000000  0.5719170000000  0.5138120000000 1.0
C      1  0.4661140000000  0.5719170000000  0.4860720000000 1.0
C      1  0.5140870000000  0.5342630000000  0.5717000000000 1.0
C      1  0.4863480000000  0.4660550000000  0.5717000000000 1.0
C      1  0.5140870000000  0.4660550000000  0.4281840000000 1.0
C      1  0.5719750000000  0.4862890000000  0.4658380000000 1.0
C      1  0.4284600000000  0.5140290000000  0.4658380000000 1.0
C      1  0.5719750000000  0.5140290000000  0.5340460000000 1.0
C      1  0.5343210000000  0.5719170000000  0.4860720000000 1.0
C      1  0.4863480000000  0.4660550000000  0.4281840000000 1.0
C      1  0.4284600000000  0.5140290000000  0.5340460000000 1.0
C      1  0.4661140000000  0.5719170000000  0.5138120000000 1.0
C      1  0.5343210000000  0.4284010000000  0.5138120000000 1.0
C      1  0.4661140000000  0.4284010000000  0.4860720000000 1.0
C      1  0.5140870000000  0.4660550000000  0.5717000000000 1.0
C      1  0.4863480000000  0.5342630000000  0.5717000000000 1.0
C      1  0.5140870000000  0.5342630000000  0.4281840000000 1.0
C      1  0.5719750000000  0.5140290000000  0.4658380000000 1.0
C      1  0.4284600000000  0.4862890000000  0.4658380000000 1.0
C      1  0.5719750000000  0.4862890000000  0.5340460000000 1.0
C      1  0.4929570000000  0.5467530000000  0.4303220000000 1.0
C      1  0.4305970000000  0.4928990000000  0.5465360000000 1.0
C      1  0.5468110000000  0.4305390000000  0.4926810000000 1.0
C      1  0.5074780000000  0.5467530000000  0.5695620000000 1.0
C      1  0.4929570000000  0.4535650000000  0.5695620000000 1.0
C      1  0.5074780000000  0.4535650000000  0.4303220000000 1.0
C      1  0.5698380000000  0.4928990000000  0.4533480000000 1.0
C      1  0.4305970000000  0.5074200000000  0.4533480000000 1.0
C      1  0.5698380000000  0.5074200000000  0.5465360000000 1.0
C      1  0.4536240000000  0.4305390000000  0.5072020000000 1.0
C      1  0.5468110000000  0.5697790000000  0.5072020000000 1.0
C      1  0.4536240000000  0.5697790000000  0.4926810000000 1.0
C      1  0.4929570000000  0.4535650000000  0.4303220000000 1.0
C      1  0.4305970000000  0.5074200000000  0.5465360000000 1.0
C      1  0.5468110000000  0.5697790000000  0.4926810000000 1.0
C      1  0.5074780000000  0.4535650000000  0.5695620000000 1.0
C      1  0.4929570000000  0.5467530000000  0.5695620000000 1.0
C      1  0.5074780000000  0.5467530000000  0.4303220000000 1.0
C      1  0.5698380000000  0.5074200000000  0.4533480000000 1.0
C      1  0.4305970000000  0.4928990000000  0.4533480000000 1.0
C      1  0.5698380000000  0.4928990000000  0.5465360000000 1.0
C      1  0.4536240000000  0.5697790000000  0.5072020000000 1.0
C      1  0.5468110000000  0.4305390000000  0.5072020000000 1.0
C      1  0.4536240000000  0.4305390000000  0.4926810000000 1.0
C      1  0.4245750000000  0.5278810000000  0.4685610000000 1.0
C      1  0.4688360000000  0.4245170000000  0.5276640000000 1.0
C      1  0.5279390000000  0.4687780000000  0.4242990000000 1.0
C      1  0.5758600000000  0.5278810000000  0.5313230000000 1.0
C      1  0.4245750000000  0.4724370000000  0.5313230000000 1.0
C      1  0.5758600000000  0.4724370000000  0.4685610000000 1.0
C      1  0.5315980000000  0.4245170000000  0.4722200000000 1.0
C      1  0.4688360000000  0.5758020000000  0.4722200000000 1.0
C      1  0.5315980000000  0.5758020000000  0.5276640000000 1.0
C      1  0.4724950000000  0.4687780000000  0.5755840000000 1.0
C      1  0.5279390000000  0.5315400000000  0.5755840000000 1.0
C      1  0.4724950000000  0.5315400000000  0.4242990000000 1.0
C      1  0.4245750000000  0.4724370000000  0.4685610000000 1.0
C      1  0.4688360000000  0.5758020000000  0.5276640000000 1.0
C      1  0.5279390000000  0.5315400000000  0.4242990000000 1.0
C      1  0.5758600000000  0.4724370000000  0.5313230000000 1.0
C      1  0.4245750000000  0.5278810000000  0.5313230000000 1.0
C      1  0.5758600000000  0.5278810000000  0.4685610000000 1.0
C      1  0.5315980000000  0.5758020000000  0.4722200000000 1.0
C      1  0.4688360000000  0.4245170000000  0.4722200000000 1.0
C      1  0.5315980000000  0.4245170000000  0.5276640000000 1.0
C      1  0.4724950000000  0.5315400000000  0.5755840000000 1.0
C      1  0.5279390000000  0.4687780000000  0.5755840000000 1.0
C      1  0.4724950000000  0.4687780000000  0.4242990000000 1.0
C      1  0.5070360000000  0.5553780000000  0.4770670000000 1.0
C      1  0.4773420000000  0.5069770000000  0.5551600000000 1.0
C      1  0.5554360000000  0.4772840000000  0.5067600000000 1.0
C      1  0.4933990000000  0.5553780000000  0.5228170000000 1.0
C      1  0.5070360000000  0.4449410000000  0.5228170000000 1.0
C      1  0.4933990000000  0.4449410000000  0.4770670000000 1.0
C      1  0.5230930000000  0.5069770000000  0.4447230000000 1.0
C      1  0.4773420000000  0.4933410000000  0.4447230000000 1.0
C      1  0.5230930000000  0.4933410000000  0.5551600000000 1.0
C      1  0.4449990000000  0.4772840000000  0.4931240000000 1.0
C      1  0.5554360000000  0.5230340000000  0.4931240000000 1.0
C      1  0.4449990000000  0.5230340000000  0.5067600000000 1.0
C      1  0.5070360000000  0.4449410000000  0.4770670000000 1.0
C      1  0.4773420000000  0.4933410000000  0.5551600000000 1.0
C      1  0.5554360000000  0.5230340000000  0.5067600000000 1.0
C      1  0.4933990000000  0.4449410000000  0.5228170000000 1.0
C      1  0.5070360000000  0.5553780000000  0.5228170000000 1.0
C      1  0.4933990000000  0.5553780000000  0.4770670000000 1.0
C      1  0.5230930000000  0.4933410000000  0.4447230000000 1.0
C      1  0.4773420000000  0.5069770000000  0.4447230000000 1.0
C      1  0.5230930000000  0.5069770000000  0.5551600000000 1.0
C      1  0.4449990000000  0.5230340000000  0.4931240000000 1.0
C      1  0.5554360000000  0.4772840000000  0.4931240000000 1.0
C      1  0.4449990000000  0.4772840000000  0.5067600000000 1.0
C      1  0.5207050000000  0.5538120000000  0.5184120000000 1.0
C      1  0.5186880000000  0.5206470000000  0.5535950000000 1.0
C      1  0.5538700000000  0.5186300000000  0.5204300000000 1.0
C      1  0.4797290000000  0.5538120000000  0.4814710000000 1.0
C      1  0.5207050000000  0.4465060000000  0.4814710000000 1.0
C      1  0.4797290000000  0.4465060000000  0.5184120000000 1.0
C      1  0.4817470000000  0.5206470000000  0.4462890000000 1.0
C      1  0.5186880000000  0.4796710000000  0.4462890000000 1.0
C      1  0.4817470000000  0.4796710000000  0.5535950000000 1.0
C      1  0.4465640000000  0.5186300000000  0.4794540000000 1.0
C      1  0.5538700000000  0.4816890000000  0.4794540000000 1.0
C      1  0.4465640000000  0.4816890000000  0.5204300000000 1.0
C      1  0.5207050000000  0.4465060000000  0.5184120000000 1.0
C      1  0.5186880000000  0.4796710000000  0.5535950000000 1.0
C      1  0.5538700000000  0.4816890000000  0.5204300000000 1.0
C      1  0.4797290000000  0.4465060000000  0.4814710000000 1.0
C      1  0.5207050000000  0.5538120000000  0.4814710000000 1.0
C      1  0.4797290000000  0.5538120000000  0.5184120000000 1.0
C      1  0.4817470000000  0.4796710000000  0.4462890000000 1.0
C      1  0.5186880000000  0.5206470000000  0.4462890000000 1.0
C      1  0.4817470000000  0.5206470000000  0.5535950000000 1.0
C      1  0.4465640000000  0.4816890000000  0.4794540000000 1.0
C      1  0.5538700000000  0.5186300000000  0.4794540000000 1.0
C      1  0.4465640000000  0.5186300000000  0.5204300000000 1.0
C      1  0.4594440000000  0.5391830000000  0.5223560000000 1.0
C      1  0.5226320000000  0.4593860000000  0.5389660000000 1.0
C      1  0.5392410000000  0.5225730000000  0.4591690000000 1.0
C      1  0.5409900000000  0.5391830000000  0.4775280000000 1.0
C      1  0.4594440000000  0.4611350000000  0.4775280000000 1.0
C      1  0.5409900000000  0.4611350000000  0.5223560000000 1.0
C      1  0.4778030000000  0.4593860000000  0.4609180000000 1.0
C      1  0.5226320000000  0.5409320000000  0.4609180000000 1.0
C      1  0.4778030000000  0.5409320000000  0.5389660000000 1.0
C      1  0.4611940000000  0.5225730000000  0.5407150000000 1.0
C      1  0.5392410000000  0.4777450000000  0.5407150000000 1.0
C      1  0.4611940000000  0.4777450000000  0.4591690000000 1.0
C      1  0.4594440000000  0.4611350000000  0.5223560000000 1.0
C      1  0.5226320000000  0.5409320000000  0.5389660000000 1.0
C      1  0.5392410000000  0.4777450000000  0.4591690000000 1.0
C      1  0.5409900000000  0.4611350000000  0.4775280000000 1.0
C      1  0.4594440000000  0.5391830000000  0.4775280000000 1.0
C      1  0.5409900000000  0.5391830000000  0.5223560000000 1.0
C      1  0.4778030000000  0.5409320000000  0.4609180000000 1.0
C      1  0.5226320000000  0.4593860000000  0.4609180000000 1.0
C      1  0.4778030000000  0.4593860000000  0.5389660000000 1.0
C      1  0.4611940000000  0.4777450000000  0.5407150000000 1.0
C      1  0.5392410000000  0.5225730000000  0.5407150000000 1.0
C      1  0.4611940000000  0.5225730000000  0.4591690000000 1.0
C      1  0.4623940000000  0.4604450000000  0.5707480000000 1.0
C      1  0.5710240000000  0.4623360000000  0.4602280000000 1.0
C      1  0.4605030000000  0.5709660000000  0.4621180000000 1.0
C      1  0.5380410000000  0.4604450000000  0.4291350000000 1.0
C      1  0.4623940000000  0.5398730000000  0.4291350000000 1.0
C      1  0.5380410000000  0.5398730000000  0.5707480000000 1.0
C      1  0.4294110000000  0.4623360000000  0.5396560000000 1.0
C      1  0.5710240000000  0.5379830000000  0.5396560000000 1.0
C      1  0.4294110000000  0.5379830000000  0.4602280000000 1.0
C      1  0.5399320000000  0.5709660000000  0.5377650000000 1.0
C      1  0.4605030000000  0.4293530000000  0.5377650000000 1.0
C      1  0.5399320000000  0.4293530000000  0.4621180000000 1.0
C      1  0.4623940000000  0.5398730000000  0.5707480000000 1.0
C      1  0.5710240000000  0.5379830000000  0.4602280000000 1.0
C      1  0.4605030000000  0.4293530000000  0.4621180000000 1.0
C      1  0.5380410000000  0.5398730000000  0.4291350000000 1.0
C      1  0.4623940000000  0.4604450000000  0.4291350000000 1.0
C      1  0.5380410000000  0.4604450000000  0.5707480000000 1.0
C      1  0.4294110000000  0.5379830000000  0.5396560000000 1.0
C      1  0.5710240000000  0.4623360000000  0.5396560000000 1.0
C      1  0.4294110000000  0.4623360000000  0.4602280000000 1.0
C      1  0.5399320000000  0.4293530000000  0.5377650000000 1.0
C      1  0.4605030000000  0.5709660000000  0.5377650000000 1.0
C      1  0.5399320000000  0.5709660000000  0.4621180000000 1.0
C      1  0.5251730000000  0.5621960000000  0.5073450000000 1.0
C      1  0.5076210000000  0.5251150000000  0.5619780000000 1.0
C      1  0.5622540000000  0.5075630000000  0.5248970000000 1.0
C      1  0.4752620000000  0.5621960000000  0.4925380000000 1.0
C      1  0.5251730000000  0.4381230000000  0.4925380000000 1.0
C      1  0.4752620000000  0.4381230000000  0.5073450000000 1.0
C      1  0.4928140000000  0.5251150000000  0.4379050000000 1.0
C      1  0.5076210000000  0.4752040000000  0.4379050000000 1.0
C      1  0.4928140000000  0.4752040000000  0.5619780000000 1.0
C      1  0.4381810000000  0.5075630000000  0.4749860000000 1.0
C      1  0.5622540000000  0.4927560000000  0.4749860000000 1.0
C      1  0.4381810000000  0.4927560000000  0.5248970000000 1.0
C      1  0.5251730000000  0.4381230000000  0.5073450000000 1.0
C      1  0.5076210000000  0.4752040000000  0.5619780000000 1.0
C      1  0.5622540000000  0.4927560000000  0.5248970000000 1.0
C      1  0.4752620000000  0.4381230000000  0.4925380000000 1.0
C      1  0.5251730000000  0.5621960000000  0.4925380000000 1.0
C      1  0.4752620000000  0.5621960000000  0.5073450000000 1.0
C      1  0.4928140000000  0.4752040000000  0.4379050000000 1.0
C      1  0.5076210000000  0.5251150000000  0.4379050000000 1.0
C      1  0.4928140000000  0.5251150000000  0.5619780000000 1.0
C      1  0.4381810000000  0.4927560000000  0.4749860000000 1.0
C      1  0.5622540000000  0.5075630000000  0.4749860000000 1.0
C      1  0.4381810000000  0.5075630000000  0.5248970000000 1.0
C      1  0.5268860000000  0.5125090000000  0.4929520000000 1.0
C      1  0.4932270000000  0.5268280000000  0.5122910000000 1.0
C      1  0.5125670000000  0.4931690000000  0.5266110000000 1.0
C      1  0.4735490000000  0.5125090000000  0.5069320000000 1.0
C      1  0.5268860000000  0.4878100000000  0.5069320000000 1.0
C      1  0.4735490000000  0.4878100000000  0.4929520000000 1.0
C      1  0.5072080000000  0.5268280000000  0.4875920000000 1.0
C      1  0.4932270000000  0.4734900000000  0.4875920000000 1.0
C      1  0.5072080000000  0.4734900000000  0.5122910000000 1.0
C      1  0.4878680000000  0.4931690000000  0.4732730000000 1.0
C      1  0.5125670000000  0.5071490000000  0.4732730000000 1.0
C      1  0.4878680000000  0.5071490000000  0.5266110000000 1.0
C      1  0.5268860000000  0.4878100000000  0.4929520000000 1.0
C      1  0.4932270000000  0.4734900000000  0.5122910000000 1.0
C      1  0.5125670000000  0.5071490000000  0.5266110000000 1.0
C      1  0.4735490000000  0.4878100000000  0.5069320000000 1.0
C      1  0.5268860000000  0.5125090000000  0.5069320000000 1.0
C      1  0.4735490000000  0.5125090000000  0.4929520000000 1.0
C      1  0.5072080000000  0.4734900000000  0.4875920000000 1.0
C      1  0.4932270000000  0.5268280000000  0.4875920000000 1.0
C      1  0.5072080000000  0.5268280000000  0.5122910000000 1.0
C      1  0.4878680000000  0.5071490000000  0.4732730000000 1.0
C      1  0.5125670000000  0.4931690000000  0.4732730000000 1.0
C      1  0.4878680000000  0.4931690000000  0.5266110000000 1.0
C      1  0.5311140000000  0.5065160000000  0.4150300000000 1.0
C      1  0.4153060000000  0.5310560000000  0.5062980000000 1.0
C      1  0.5065740000000  0.4152480000000  0.5308380000000 1.0
C      1  0.4693210000000  0.5065160000000  0.5848530000000 1.0
C      1  0.5311140000000  0.4938030000000  0.5848530000000 1.0
C      1  0.4693210000000  0.4938030000000  0.4150300000000 1.0
C      1  0.5851290000000  0.5310560000000  0.4935850000000 1.0
C      1  0.4153060000000  0.4692630000000  0.4935850000000 1.0
C      1  0.5851290000000  0.4692630000000  0.5062980000000 1.0
C      1  0.4938610000000  0.4152480000000  0.4690450000000 1.0
C      1  0.5065740000000  0.5850710000000  0.4690450000000 1.0
C      1  0.4938610000000  0.5850710000000  0.5308380000000 1.0
C      1  0.5311140000000  0.4938030000000  0.4150300000000 1.0
C      1  0.4153060000000  0.4692630000000  0.5062980000000 1.0
C      1  0.5065740000000  0.5850710000000  0.5308380000000 1.0
C      1  0.4693210000000  0.4938030000000  0.5848530000000 1.0
C      1  0.5311140000000  0.5065160000000  0.5848530000000 1.0
C      1  0.4693210000000  0.5065160000000  0.4150300000000 1.0
C      1  0.5851290000000  0.4692630000000  0.4935850000000 1.0
C      1  0.4153060000000  0.5310560000000  0.4935850000000 1.0
C      1  0.5851290000000  0.5310560000000  0.5062980000000 1.0
C      1  0.4938610000000  0.5850710000000  0.4690450000000 1.0
C      1  0.5065740000000  0.4152480000000  0.4690450000000 1.0
C      1  0.4938610000000  0.4152480000000  0.5308380000000 1.0
C      1  0.5174630000000  0.4239800000000  0.4684200000000 1.0
C      1  0.4686950000000  0.5174040000000  0.4237620000000 1.0
C      1  0.4240380000000  0.4686370000000  0.5171870000000 1.0
C      1  0.4829720000000  0.4239800000000  0.5314640000000 1.0
C      1  0.5174630000000  0.5763390000000  0.5314640000000 1.0
C      1  0.4829720000000  0.5763390000000  0.4684200000000 1.0
C      1  0.5317390000000  0.5174040000000  0.5761210000000 1.0
C      1  0.4686950000000  0.4829140000000  0.5761210000000 1.0
C      1  0.5317390000000  0.4829140000000  0.4237620000000 1.0
C      1  0.5763970000000  0.4686370000000  0.4826970000000 1.0
C      1  0.4240380000000  0.5316810000000  0.4826970000000 1.0
C      1  0.5763970000000  0.5316810000000  0.5171870000000 1.0
C      1  0.5174630000000  0.5763390000000  0.4684200000000 1.0
C      1  0.4686950000000  0.4829140000000  0.4237620000000 1.0
C      1  0.4240380000000  0.5316810000000  0.5171870000000 1.0
C      1  0.4829720000000  0.5763390000000  0.5314640000000 1.0
C      1  0.5174630000000  0.4239800000000  0.5314640000000 1.0
C      1  0.4829720000000  0.4239800000000  0.4684200000000 1.0
C      1  0.5317390000000  0.4829140000000  0.5761210000000 1.0
C      1  0.4686950000000  0.5174040000000  0.5761210000000 1.0
C      1  0.5317390000000  0.5174040000000  0.4237620000000 1.0
C      1  0.5763970000000  0.5316810000000  0.4826970000000 1.0
C      1  0.4240380000000  0.4686370000000  0.4826970000000 1.0
C      1  0.5763970000000  0.4686370000000  0.5171870000000 1.0
C      1  0.5480280000000  0.4523480000000  0.4521310000000 1.0
C      1  0.4524070000000  0.5479700000000  0.4521310000000 1.0
C      1  0.4524070000000  0.4523480000000  0.5477530000000 1.0
C      1  0.5480280000000  0.4523480000000  0.5477530000000 1.0
C      1  0.4524070000000  0.5479700000000  0.5477530000000 1.0
C      1  0.5480280000000  0.5479700000000  0.4521310000000 1.0
C      1  0.5480280000000  0.5479700000000  0.5477530000000 1.0
C      1  0.4524070000000  0.4523480000000  0.4521310000000 1.0
END
