TITL C-1887017-2780-82 -4.65488245600475e-08 1000000 -2342.29290327387 0 0 340 (D2d) n - 1
REM
REM in /nfs/bkarasulu/CARBON/AIRSS/Generating-Clusters/GAP-ML-2020/Higher-Symm/Selected-Sizes/TryA-Only_Ih-Symm/Larger-Clusters
REM
REM
REM
REM
REM
REM ./C.cell (2cf5181f0f1d4d5b12b972d32ad12063)
REM
REM compiler GCC version 9.2.1 20190827 (Red Hat 9.2.1-1)
REM options -cpp -mtune=generic -march=x86-64 -g -O0 -fpre-include=/usr/include/finclude/math-vector-fortran.h
REM seed 957625587 495448942 -660512349 -1234115536 1948216794 1407018263 -1569795550 205149497 1753240085 1450322697 -1496773338 1327248062 -1802167312 284440925 1767816601 436884301 -478075488 -462952371 -378392425 -810323881 519134611 -526980153 -1938009758 -4660127 -802437599 400551607 -267059317 1420409703 -538879696 875463508 2039434160 -775718588 1921935436
REM
CELL 1.54180  100.00000  100.00000  100.00000   90.00000   90.00000   90.00000
LATT -1
SFAC C  
C      1  0.5129760000000  0.4325000000000  0.5566390000000 1.0
C      1  0.5560250000000  0.5135180000000  0.4323470000000 1.0
C      1  0.4330960000000  0.5567470000000  0.5137740000000 1.0
C      1  0.5129760000000  0.5673450000000  0.4434170000000 1.0
C      1  0.4869250000000  0.5673450000000  0.5566390000000 1.0
C      1  0.4869250000000  0.4325000000000  0.4434170000000 1.0
C      1  0.5560250000000  0.4863270000000  0.5677090000000 1.0
C      1  0.4438760000000  0.4863270000000  0.4323470000000 1.0
C      1  0.4438760000000  0.5135180000000  0.5677090000000 1.0
C      1  0.4330960000000  0.4430980000000  0.4862810000000 1.0
C      1  0.5668050000000  0.4430980000000  0.5137740000000 1.0
C      1  0.5668050000000  0.5567470000000  0.4862820000000 1.0
C      1  0.5129760000000  0.5565330000000  0.4326050000000 1.0
C      1  0.5560260000000  0.4322420000000  0.5136240000000 1.0
C      1  0.4330960000000  0.5136680000000  0.5568530000000 1.0
C      1  0.5129760000000  0.4433120000000  0.5674510000000 1.0
C      1  0.4869250000000  0.5565330000000  0.5674510000000 1.0
C      1  0.4869250000000  0.4433120000000  0.4326050000000 1.0
C      1  0.5560260000000  0.5676040000000  0.4864320000000 1.0
C      1  0.4438750000000  0.4322410000000  0.4864320000000 1.0
C      1  0.4438750000000  0.5676040000000  0.5136240000000 1.0
C      1  0.4330960000000  0.4861770000000  0.4432030000000 1.0
C      1  0.5668050000000  0.5136680000000  0.4432030000000 1.0
C      1  0.5668050000000  0.4861770000000  0.5568530000000 1.0
C      1  0.4380850000000  0.4938060000000  0.5400600000000 1.0
C      1  0.5394080000000  0.4378820000000  0.4937270000000 1.0
C      1  0.4932880000000  0.5397540000000  0.4380610000000 1.0
C      1  0.4380850000000  0.5060390000000  0.4599960000000 1.0
C      1  0.5618160000000  0.5060390000000  0.5400600000000 1.0
C      1  0.5618160000000  0.4938060000000  0.4599960000000 1.0
C      1  0.5394080000000  0.5619640000000  0.5063290000000 1.0
C      1  0.4604930000000  0.5619640000000  0.4937270000000 1.0
C      1  0.4604930000000  0.4378820000000  0.5063290000000 1.0
C      1  0.4932880000000  0.4600910000000  0.5619950000000 1.0
C      1  0.5066130000000  0.4600910000000  0.4380610000000 1.0
C      1  0.5066130000000  0.5397540000000  0.5619950000000 1.0
C      1  0.4380850000000  0.5399540000000  0.4939120000000 1.0
C      1  0.5394080000000  0.4936210000000  0.4379870000000 1.0
C      1  0.4932880000000  0.4379560000000  0.5398600000000 1.0
C      1  0.4380850000000  0.4598910000000  0.5061440000000 1.0
C      1  0.5618160000000  0.5399540000000  0.5061440000000 1.0
C      1  0.5618160000000  0.4598910000000  0.4939120000000 1.0
C      1  0.5394080000000  0.5062240000000  0.5620690000000 1.0
C      1  0.4604930000000  0.4936210000000  0.5620690000000 1.0
C      1  0.4604930000000  0.5062240000000  0.4379870000000 1.0
C      1  0.4932880000000  0.5618900000000  0.4601960000000 1.0
C      1  0.5066130000000  0.4379560000000  0.4601960000000 1.0
C      1  0.5066130000000  0.5618900000000  0.5398600000000 1.0
C      1  0.5372450000000  0.5181910000000  0.5549240000000 1.0
C      1  0.5550280000000  0.5373270000000  0.5182860000000 1.0
C      1  0.5185960000000  0.5548400000000  0.5373410000000 1.0
C      1  0.5372450000000  0.4816540000000  0.4451320000000 1.0
C      1  0.4626560000000  0.4816540000000  0.5549240000000 1.0
C      1  0.4626560000000  0.5181910000000  0.4451320000000 1.0
C      1  0.5550280000000  0.4625180000000  0.4817700000000 1.0
C      1  0.4448740000000  0.4625180000000  0.5182860000000 1.0
C      1  0.4448740000000  0.5373270000000  0.4817700000000 1.0
C      1  0.5185960000000  0.4450050000000  0.4627150000000 1.0
C      1  0.4813050000000  0.4450050000000  0.5373410000000 1.0
C      1  0.4813050000000  0.5548400000000  0.4627150000000 1.0
C      1  0.5372450000000  0.5548190000000  0.5182960000000 1.0
C      1  0.5550270000000  0.5181810000000  0.5374320000000 1.0
C      1  0.5185960000000  0.5372360000000  0.5549450000000 1.0
C      1  0.5372450000000  0.4450260000000  0.4817600000000 1.0
C      1  0.4626560000000  0.5548190000000  0.4817600000000 1.0
C      1  0.4626560000000  0.4450260000000  0.5182960000000 1.0
C      1  0.5550270000000  0.4816650000000  0.4626240000000 1.0
C      1  0.4448740000000  0.5181810000000  0.4626240000000 1.0
C      1  0.4448740000000  0.4816650000000  0.5374320000000 1.0
C      1  0.5185960000000  0.4626090000000  0.4451110000000 1.0
C      1  0.4813050000000  0.5372360000000  0.4451110000000 1.0
C      1  0.4813050000000  0.4626090000000  0.5549450000000 1.0
C      1  0.4265940000000  0.4629050000000  0.4737220000000 1.0
C      1  0.4743560000000  0.4258980000000  0.4631500000000 1.0
C      1  0.4636540000000  0.4737530000000  0.4258280000000 1.0
C      1  0.4265940000000  0.5369400000000  0.5263340000000 1.0
C      1  0.5733070000000  0.5369400000000  0.4737220000000 1.0
C      1  0.5733070000000  0.4629060000000  0.5263340000000 1.0
C      1  0.4743560000000  0.5739470000000  0.5369050000000 1.0
C      1  0.5255450000000  0.5739470000000  0.4631500000000 1.0
C      1  0.5255450000000  0.4258980000000  0.5369050000000 1.0
C      1  0.4636540000000  0.5260920000000  0.5742280000000 1.0
C      1  0.5362470000000  0.5260920000000  0.4258280000000 1.0
C      1  0.5362470000000  0.4737530000000  0.5742280000000 1.0
C      1  0.4265940000000  0.4736170000000  0.4630100000000 1.0
C      1  0.4743570000000  0.4630460000000  0.4260030000000 1.0
C      1  0.4636530000000  0.4257220000000  0.4738580000000 1.0
C      1  0.4265940000000  0.5262280000000  0.5370460000000 1.0
C      1  0.5733070000000  0.4736170000000  0.5370450000000 1.0
C      1  0.5733070000000  0.5262280000000  0.4630100000000 1.0
C      1  0.4743570000000  0.5368000000000  0.5740530000000 1.0
C      1  0.5255450000000  0.4630460000000  0.5740530000000 1.0
C      1  0.5255450000000  0.5368000000000  0.4260030000000 1.0
C      1  0.4636530000000  0.5741230000000  0.5261980000000 1.0
C      1  0.5362480000000  0.4257220000000  0.5261980000000 1.0
C      1  0.5362480000000  0.5741230000000  0.4738580000000 1.0
C      1  0.5229710000000  0.5740400000000  0.4497410000000 1.0
C      1  0.4502530000000  0.5234390000000  0.5745110000000 1.0
C      1  0.5733910000000  0.4494830000000  0.5238060000000 1.0
C      1  0.5229710000000  0.4258060000000  0.5503150000000 1.0
C      1  0.4769300000000  0.4258060000000  0.4497410000000 1.0
C      1  0.4769300000000  0.5740400000000  0.5503150000000 1.0
C      1  0.4502530000000  0.4764060000000  0.4255450000000 1.0
C      1  0.5496480000000  0.4764060000000  0.5745100000000 1.0
C      1  0.5496480000000  0.5234390000000  0.4255450000000 1.0
C      1  0.5733910000000  0.5503620000000  0.4762500000000 1.0
C      1  0.4265100000000  0.5503620000000  0.5238060000000 1.0
C      1  0.4265100000000  0.4494830000000  0.4762490000000 1.0
C      1  0.5229710000000  0.4496360000000  0.5741450000000 1.0
C      1  0.4502520000000  0.5744050000000  0.5235450000000 1.0
C      1  0.5733910000000  0.5237000000000  0.4495880000000 1.0
C      1  0.5229710000000  0.5502090000000  0.4259110000000 1.0
C      1  0.4769300000000  0.4496360000000  0.4259110000000 1.0
C      1  0.4769300000000  0.5502090000000  0.5741450000000 1.0
C      1  0.4502520000000  0.4254400000000  0.4765110000000 1.0
C      1  0.5496490000000  0.5744050000000  0.4765110000000 1.0
C      1  0.5496490000000  0.4254400000000  0.5235450000000 1.0
C      1  0.5733910000000  0.4761450000000  0.5504680000000 1.0
C      1  0.4265110000000  0.5237000000000  0.5504680000000 1.0
C      1  0.4265110000000  0.4761450000000  0.4495880000000 1.0
C      1  0.4317750000000  0.4832210000000  0.4728460000000 1.0
C      1  0.4733680000000  0.4312870000000  0.4833980000000 1.0
C      1  0.4838630000000  0.4727890000000  0.4315130000000 1.0
C      1  0.4317750000000  0.5166240000000  0.5272100000000 1.0
C      1  0.5681260000000  0.5166240000000  0.4728460000000 1.0
C      1  0.5681260000000  0.4832210000000  0.5272100000000 1.0
C      1  0.4733680000000  0.5685590000000  0.5166580000000 1.0
C      1  0.5265330000000  0.5685590000000  0.4833980000000 1.0
C      1  0.5265330000000  0.4312870000000  0.5166580000000 1.0
C      1  0.4838630000000  0.5270560000000  0.5685430000000 1.0
C      1  0.5160380000000  0.5270560000000  0.4315130000000 1.0
C      1  0.5160380000000  0.4727890000000  0.5685430000000 1.0
C      1  0.4317750000000  0.4727410000000  0.4833260000000 1.0
C      1  0.4733690000000  0.4832930000000  0.4313920000000 1.0
C      1  0.4838630000000  0.4314080000000  0.4728940000000 1.0
C      1  0.4317750000000  0.5271040000000  0.5167300000000 1.0
C      1  0.5681260000000  0.4727410000000  0.5167300000000 1.0
C      1  0.5681260000000  0.5271040000000  0.4833260000000 1.0
C      1  0.4733690000000  0.5165520000000  0.5686640000000 1.0
C      1  0.5265320000000  0.4832930000000  0.5686640000000 1.0
C      1  0.5265320000000  0.5165520000000  0.4313920000000 1.0
C      1  0.4838630000000  0.5684380000000  0.5271620000000 1.0
C      1  0.5160380000000  0.4314080000000  0.5271620000000 1.0
C      1  0.5160380000000  0.5684380000000  0.4728940000000 1.0
C      1  0.5394700000000  0.5043910000000  0.4849440000000 1.0
C      1  0.4840910000000  0.5393410000000  0.5048300000000 1.0
C      1  0.5043580000000  0.4852780000000  0.5394930000000 1.0
C      1  0.5394700000000  0.4954540000000  0.5151110000000 1.0
C      1  0.4604310000000  0.4954540000000  0.4849440000000 1.0
C      1  0.4604310000000  0.5043910000000  0.5151110000000 1.0
C      1  0.4840910000000  0.4605040000000  0.4952260000000 1.0
C      1  0.5158100000000  0.4605040000000  0.5048300000000 1.0
C      1  0.5158100000000  0.5393410000000  0.4952260000000 1.0
C      1  0.5043580000000  0.5145670000000  0.4605630000000 1.0
C      1  0.4955430000000  0.5145670000000  0.5394930000000 1.0
C      1  0.4955430000000  0.4852780000000  0.4605630000000 1.0
C      1  0.5394700000000  0.4848390000000  0.5044960000000 1.0
C      1  0.4840910000000  0.5047250000000  0.5394460000000 1.0
C      1  0.5043590000000  0.5393880000000  0.4853830000000 1.0
C      1  0.5394700000000  0.5150060000000  0.4955600000000 1.0
C      1  0.4604310000000  0.4848390000000  0.4955600000000 1.0
C      1  0.4604310000000  0.5150060000000  0.5044960000000 1.0
C      1  0.4840910000000  0.4951200000000  0.4606100000000 1.0
C      1  0.5158100000000  0.5047250000000  0.4606100000000 1.0
C      1  0.5158100000000  0.4951200000000  0.5394460000000 1.0
C      1  0.5043590000000  0.4604570000000  0.5146730000000 1.0
C      1  0.4955420000000  0.5393880000000  0.5146730000000 1.0
C      1  0.4955420000000  0.4604570000000  0.4853830000000 1.0
C      1  0.5263560000000  0.4525210000000  0.5087540000000 1.0
C      1  0.5070260000000  0.5254630000000  0.4526230000000 1.0
C      1  0.4528860000000  0.5072660000000  0.5262100000000 1.0
C      1  0.5263560000000  0.5473240000000  0.4913020000000 1.0
C      1  0.4735450000000  0.5473240000000  0.5087540000000 1.0
C      1  0.4735450000000  0.4525210000000  0.4913020000000 1.0
C      1  0.5070260000000  0.4743820000000  0.5474330000000 1.0
C      1  0.4928750000000  0.4743820000000  0.4526230000000 1.0
C      1  0.4928750000000  0.5254630000000  0.5474330000000 1.0
C      1  0.4528860000000  0.4925790000000  0.4738460000000 1.0
C      1  0.5470150000000  0.4925790000000  0.5262090000000 1.0
C      1  0.5470150000000  0.5072660000000  0.4738460000000 1.0
C      1  0.5263560000000  0.5086480000000  0.4526270000000 1.0
C      1  0.5070270000000  0.4525170000000  0.5255680000000 1.0
C      1  0.4528860000000  0.5261040000000  0.5073710000000 1.0
C      1  0.5263560000000  0.4911970000000  0.5474290000000 1.0
C      1  0.4735450000000  0.5086480000000  0.5474290000000 1.0
C      1  0.4735450000000  0.4911970000000  0.4526270000000 1.0
C      1  0.5070270000000  0.5473280000000  0.4744880000000 1.0
C      1  0.4928750000000  0.4525170000000  0.4744880000000 1.0
C      1  0.4928750000000  0.5473280000000  0.5255680000000 1.0
C      1  0.4528860000000  0.4737410000000  0.4926850000000 1.0
C      1  0.5470160000000  0.5261040000000  0.4926850000000 1.0
C      1  0.5470160000000  0.4737410000000  0.5073710000000 1.0
C      1  0.4841410000000  0.4749100000000  0.4947810000000 1.0
C      1  0.4951640000000  0.4847800000000  0.4752940000000 1.0
C      1  0.4750150000000  0.4951990000000  0.4848110000000 1.0
C      1  0.4841410000000  0.5249360000000  0.5052750000000 1.0
C      1  0.5157600000000  0.5249360000000  0.4947810000000 1.0
C      1  0.5157600000000  0.4749100000000  0.5052750000000 1.0
C      1  0.4951640000000  0.5150660000000  0.5247620000000 1.0
C      1  0.5047370000000  0.5150660000000  0.4752940000000 1.0
C      1  0.5047370000000  0.4847800000000  0.5247620000000 1.0
C      1  0.4750150000000  0.5046470000000  0.5152440000000 1.0
C      1  0.5248860000000  0.5046470000000  0.4848110000000 1.0
C      1  0.5248860000000  0.4951990000000  0.5152440000000 1.0
C      1  0.4841410000000  0.4946750000000  0.4750150000000 1.0
C      1  0.4951640000000  0.4751880000000  0.4848850000000 1.0
C      1  0.4750150000000  0.4847060000000  0.4953040000000 1.0
C      1  0.4841410000000  0.5051700000000  0.5250410000000 1.0
C      1  0.5157600000000  0.4946750000000  0.5250410000000 1.0
C      1  0.5157600000000  0.5051700000000  0.4750150000000 1.0
C      1  0.4951640000000  0.5246570000000  0.5151710000000 1.0
C      1  0.5047370000000  0.4751880000000  0.5151710000000 1.0
C      1  0.5047370000000  0.5246570000000  0.4848850000000 1.0
C      1  0.4750150000000  0.5151390000000  0.5047520000000 1.0
C      1  0.5248860000000  0.4847060000000  0.5047520000000 1.0
C      1  0.5248860000000  0.5151390000000  0.4953040000000 1.0
C      1  0.4583860000000  0.4692500000000  0.5202430000000 1.0
C      1  0.5203180000000  0.4586350000000  0.4694000000000 1.0
C      1  0.4691470000000  0.5200110000000  0.4588060000000 1.0
C      1  0.4583860000000  0.5305950000000  0.4798130000000 1.0
C      1  0.5415150000000  0.5305950000000  0.5202430000000 1.0
C      1  0.5415150000000  0.4692500000000  0.4798130000000 1.0
C      1  0.5203180000000  0.5412100000000  0.5306560000000 1.0
C      1  0.4795830000000  0.5412100000000  0.4694000000000 1.0
C      1  0.4795830000000  0.4586350000000  0.5306560000000 1.0
C      1  0.4691470000000  0.4798340000000  0.5412500000000 1.0
C      1  0.5307540000000  0.4798340000000  0.4588060000000 1.0
C      1  0.5307540000000  0.5200110000000  0.5412500000000 1.0
C      1  0.4583860000000  0.5201380000000  0.4693560000000 1.0
C      1  0.5203180000000  0.4692940000000  0.4587410000000 1.0
C      1  0.4691470000000  0.4587000000000  0.5201160000000 1.0
C      1  0.4583860000000  0.4797070000000  0.5307000000000 1.0
C      1  0.5415150000000  0.5201380000000  0.5307000000000 1.0
C      1  0.5415150000000  0.4797070000000  0.4693560000000 1.0
C      1  0.5203180000000  0.5305510000000  0.5413150000000 1.0
C      1  0.4795830000000  0.4692940000000  0.5413150000000 1.0
C      1  0.4795830000000  0.5305510000000  0.4587410000000 1.0
C      1  0.4691470000000  0.5411450000000  0.4799390000000 1.0
C      1  0.5307540000000  0.4587000000000  0.4799390000000 1.0
C      1  0.5307540000000  0.5411450000000  0.5201160000000 1.0
C      1  0.4371240000000  0.4467350000000  0.4999110000000 1.0
C      1  0.5005270000000  0.4366220000000  0.4469840000000 1.0
C      1  0.4473910000000  0.4999020000000  0.4366370000000 1.0
C      1  0.4371240000000  0.5531100000000  0.5001450000000 1.0
C      1  0.5627770000000  0.5531100000000  0.4999110000000 1.0
C      1  0.5627770000000  0.4467350000000  0.5001450000000 1.0
C      1  0.5005270000000  0.5632230000000  0.5530720000000 1.0
C      1  0.4993740000000  0.5632230000000  0.4469840000000 1.0
C      1  0.4993740000000  0.4366220000000  0.5530720000000 1.0
C      1  0.4473910000000  0.4999430000000  0.5634190000000 1.0
C      1  0.5525100000000  0.4999430000000  0.4366370000000 1.0
C      1  0.5525100000000  0.4999020000000  0.5634190000000 1.0
C      1  0.4371240000000  0.4998060000000  0.4468400000000 1.0
C      1  0.5005270000000  0.4468790000000  0.4367270000000 1.0
C      1  0.4473900000000  0.4365310000000  0.5000070000000 1.0
C      1  0.4371240000000  0.5000390000000  0.5532160000000 1.0
C      1  0.5627770000000  0.4998060000000  0.5532160000000 1.0
C      1  0.5627770000000  0.5000390000000  0.4468400000000 1.0
C      1  0.5005270000000  0.5529670000000  0.5633290000000 1.0
C      1  0.4993740000000  0.4468790000000  0.5633290000000 1.0
C      1  0.4993740000000  0.5529660000000  0.4367270000000 1.0
C      1  0.4473900000000  0.5633140000000  0.5000490000000 1.0
C      1  0.5525110000000  0.4365310000000  0.5000490000000 1.0
C      1  0.5525110000000  0.5633140000000  0.5000070000000 1.0
C      1  0.4600320000000  0.5292570000000  0.5196730000000 1.0
C      1  0.5187380000000  0.4603000000000  0.5297220000000 1.0
C      1  0.5314670000000  0.5229580000000  0.4594310000000 1.0
C      1  0.4600320000000  0.4705880000000  0.4803830000000 1.0
C      1  0.5398690000000  0.4705880000000  0.5196730000000 1.0
C      1  0.5398690000000  0.5292570000000  0.4803830000000 1.0
C      1  0.5187380000000  0.5395450000000  0.4703340000000 1.0
C      1  0.4811630000000  0.5395450000000  0.5297220000000 1.0
C      1  0.4811630000000  0.4603000000000  0.4703340000000 1.0
C      1  0.5314670000000  0.4768870000000  0.5406250000000 1.0
C      1  0.4684340000000  0.4768870000000  0.4594300000000 1.0
C      1  0.4684340000000  0.5229580000000  0.5406250000000 1.0
C      1  0.4600320000000  0.5195680000000  0.5293630000000 1.0
C      1  0.5187380000000  0.5296170000000  0.4604060000000 1.0
C      1  0.5314670000000  0.4593250000000  0.5230630000000 1.0
C      1  0.4600320000000  0.4802780000000  0.4706930000000 1.0
C      1  0.5398690000000  0.5195680000000  0.4706930000000 1.0
C      1  0.5398690000000  0.4802780000000  0.5293620000000 1.0
C      1  0.5187380000000  0.4702280000000  0.5396500000000 1.0
C      1  0.4811630000000  0.5296170000000  0.5396500000000 1.0
C      1  0.4811630000000  0.4702280000000  0.4604060000000 1.0
C      1  0.5314670000000  0.5405200000000  0.4769930000000 1.0
C      1  0.4684340000000  0.4593250000000  0.4769930000000 1.0
C      1  0.4684340000000  0.5405200000000  0.5230630000000 1.0
C      1  0.4466480000000  0.4675940000000  0.5426850000000 1.0
C      1  0.5428150000000  0.4467940000000  0.4676880000000 1.0
C      1  0.4673000000000  0.5425450000000  0.4469180000000 1.0
C      1  0.4466480000000  0.5322520000000  0.4573710000000 1.0
C      1  0.5532530000000  0.5322520000000  0.5426850000000 1.0
C      1  0.5532530000000  0.4675940000000  0.4573710000000 1.0
C      1  0.5428150000000  0.5530510000000  0.5323680000000 1.0
C      1  0.4570860000000  0.5530510000000  0.4676880000000 1.0
C      1  0.4570860000000  0.4467940000000  0.5323680000000 1.0
C      1  0.4673000000000  0.4573000000000  0.5531380000000 1.0
C      1  0.5326010000000  0.4573000000000  0.4469180000000 1.0
C      1  0.5326010000000  0.5425450000000  0.5531380000000 1.0
C      1  0.4466480000000  0.5425800000000  0.4676990000000 1.0
C      1  0.5428150000000  0.4675820000000  0.4469000000000 1.0
C      1  0.4673000000000  0.4468120000000  0.5426500000000 1.0
C      1  0.4466480000000  0.4572650000000  0.5323570000000 1.0
C      1  0.5532530000000  0.5425800000000  0.5323570000000 1.0
C      1  0.5532530000000  0.4572650000000  0.4676990000000 1.0
C      1  0.5428150000000  0.5322630000000  0.5531560000000 1.0
C      1  0.4570860000000  0.4675820000000  0.5531560000000 1.0
C      1  0.4570860000000  0.5322630000000  0.4469000000000 1.0
C      1  0.4673000000000  0.5530330000000  0.4574060000000 1.0
C      1  0.5326010000000  0.4468120000000  0.4574060000000 1.0
C      1  0.5326010000000  0.5530330000000  0.5426500000000 1.0
C      1  0.4703530000000  0.5603600000000  0.5049410000000 1.0
C      1  0.5041760000000  0.4701550000000  0.5604990000000 1.0
C      1  0.5602320000000  0.5046350000000  0.4700560000000 1.0
C      1  0.4703530000000  0.4394850000000  0.4951150000000 1.0
C      1  0.5295480000000  0.4394850000000  0.5049410000000 1.0
C      1  0.5295480000000  0.5603600000000  0.4951150000000 1.0
C      1  0.5041760000000  0.5296900000000  0.4395570000000 1.0
C      1  0.4957250000000  0.5296900000000  0.5604990000000 1.0
C      1  0.4957250000000  0.4701550000000  0.4395570000000 1.0
C      1  0.5602320000000  0.4952100000000  0.5300000000000 1.0
C      1  0.4396690000000  0.4952100000000  0.4700560000000 1.0
C      1  0.4396690000000  0.5046350000000  0.5300000000000 1.0
C      1  0.4703540000000  0.5048350000000  0.5604650000000 1.0
C      1  0.5041770000000  0.5603940000000  0.4702600000000 1.0
C      1  0.5602330000000  0.4699510000000  0.5047410000000 1.0
C      1  0.4703540000000  0.4950100000000  0.4395910000000 1.0
C      1  0.5295480000000  0.5048350000000  0.4395910000000 1.0
C      1  0.5295480000000  0.4950100000000  0.5604650000000 1.0
C      1  0.5041770000000  0.4394510000000  0.5297960000000 1.0
C      1  0.4957250000000  0.5603940000000  0.5297960000000 1.0
C      1  0.4957250000000  0.4394510000000  0.4702600000000 1.0
C      1  0.5602330000000  0.5298950000000  0.4953150000000 1.0
C      1  0.4396680000000  0.4699510000000  0.4953150000000 1.0
C      1  0.4396680000000  0.5298950000000  0.5047410000000 1.0
C      1  0.4629760000000  0.5374000000000  0.5375050000000 1.0
C      1  0.5369250000000  0.4624460000000  0.5375050000000 1.0
C      1  0.5369250000000  0.5374000000000  0.4625510000000 1.0
C      1  0.4629760000000  0.4624450000000  0.4625510000000 1.0
END
