TITL C-1887015-2101-3 -1.2258462962154e-06 1000000 -2560.76440013452 0 0 360 (Td) n - 1
REM
REM in /nfs/bkarasulu/CARBON/AIRSS/Generating-Clusters/GAP-ML-2020/Higher-Symm/Selected-Sizes/TryA-Only_Ih-Symm/Larger-Clusters
REM
REM
REM
REM
REM
REM ./C.cell (2cf5181f0f1d4d5b12b972d32ad12063)
REM
REM compiler GCC version 9.2.1 20190827 (Red Hat 9.2.1-1)
REM options -cpp -mtune=generic -march=x86-64 -g -O0 -fpre-include=/usr/include/finclude/math-vector-fortran.h
REM seed 739279544 -1543011174 -1675653143 1956116015 -578300038 -1911348075 490857938 -535802278 -1945307028 528036808 166675781 1998409520 1412390831 -955446478 1815675766 -1898147467 -1416025297 -1888769075 -401310000 -158579349 -1140514325 822606028 -1336957502 1760235476 1843500064 -1898549420 -2059610956 1615161613 1076574252 829623051 -2035248756 -143683560 -989599328
REM
CELL 1.54180  100.00000  100.00000  100.00000   90.00000   90.00000   90.00000
LATT -1
SFAC C  
C      1  0.4553020000000  0.4726920000000  0.5631100000000 1.0
C      1  0.5631100000000  0.4553020000000  0.4726920000000 1.0
C      1  0.4726920000000  0.5631100000000  0.4553020000000 1.0
C      1  0.5446980000000  0.4726920000000  0.4368900000000 1.0
C      1  0.4553020000000  0.5273080000000  0.4368900000000 1.0
C      1  0.5446980000000  0.5273080000000  0.5631100000000 1.0
C      1  0.4368900000000  0.4553020000000  0.5273080000000 1.0
C      1  0.5631100000000  0.5446980000000  0.5273080000000 1.0
C      1  0.4368900000000  0.5446980000000  0.4726920000000 1.0
C      1  0.5273080000000  0.5631100000000  0.5446980000000 1.0
C      1  0.4726920000000  0.4368900000000  0.5446980000000 1.0
C      1  0.5273080000000  0.4368900000000  0.4553020000000 1.0
C      1  0.5631100000000  0.4726920000000  0.4553020000000 1.0
C      1  0.4726920000000  0.4553020000000  0.5631100000000 1.0
C      1  0.4553020000000  0.5631100000000  0.4726920000000 1.0
C      1  0.4368900000000  0.4726920000000  0.5446980000000 1.0
C      1  0.4368900000000  0.5273080000000  0.4553020000000 1.0
C      1  0.5631100000000  0.5273080000000  0.5446980000000 1.0
C      1  0.5273080000000  0.4553020000000  0.4368900000000 1.0
C      1  0.5273080000000  0.5446980000000  0.5631100000000 1.0
C      1  0.4726920000000  0.5446980000000  0.4368900000000 1.0
C      1  0.5446980000000  0.5631100000000  0.5273080000000 1.0
C      1  0.5446980000000  0.4368900000000  0.4726920000000 1.0
C      1  0.4553020000000  0.4368900000000  0.5273080000000 1.0
C      1  0.4525660000000  0.4744370000000  0.5364150000000 1.0
C      1  0.5364150000000  0.4525660000000  0.4744370000000 1.0
C      1  0.4744370000000  0.5364150000000  0.4525660000000 1.0
C      1  0.5474340000000  0.4744370000000  0.4635850000000 1.0
C      1  0.4525660000000  0.5255630000000  0.4635850000000 1.0
C      1  0.5474340000000  0.5255630000000  0.5364150000000 1.0
C      1  0.4635850000000  0.4525660000000  0.5255630000000 1.0
C      1  0.5364150000000  0.5474340000000  0.5255630000000 1.0
C      1  0.4635850000000  0.5474340000000  0.4744370000000 1.0
C      1  0.5255630000000  0.5364150000000  0.5474340000000 1.0
C      1  0.4744370000000  0.4635850000000  0.5474340000000 1.0
C      1  0.5255630000000  0.4635850000000  0.4525660000000 1.0
C      1  0.5364150000000  0.4744370000000  0.4525660000000 1.0
C      1  0.4744370000000  0.4525660000000  0.5364150000000 1.0
C      1  0.4525660000000  0.5364150000000  0.4744370000000 1.0
C      1  0.4635850000000  0.4744370000000  0.5474340000000 1.0
C      1  0.4635850000000  0.5255630000000  0.4525660000000 1.0
C      1  0.5364150000000  0.5255630000000  0.5474340000000 1.0
C      1  0.5255630000000  0.4525660000000  0.4635850000000 1.0
C      1  0.5255630000000  0.5474340000000  0.5364150000000 1.0
C      1  0.4744370000000  0.5474340000000  0.4635850000000 1.0
C      1  0.5474340000000  0.5364150000000  0.5255630000000 1.0
C      1  0.5474340000000  0.4635850000000  0.4744370000000 1.0
C      1  0.4525660000000  0.4635850000000  0.5255630000000 1.0
C      1  0.5561830000000  0.5660620000000  0.5196520000000 1.0
C      1  0.5196520000000  0.5561830000000  0.5660620000000 1.0
C      1  0.5660620000000  0.5196520000000  0.5561830000000 1.0
C      1  0.4438170000000  0.5660620000000  0.4803480000000 1.0
C      1  0.5561830000000  0.4339380000000  0.4803480000000 1.0
C      1  0.4438170000000  0.4339380000000  0.5196520000000 1.0
C      1  0.4803480000000  0.5561830000000  0.4339380000000 1.0
C      1  0.5196520000000  0.4438170000000  0.4339380000000 1.0
C      1  0.4803480000000  0.4438170000000  0.5660620000000 1.0
C      1  0.4339380000000  0.5196520000000  0.4438170000000 1.0
C      1  0.5660620000000  0.4803480000000  0.4438170000000 1.0
C      1  0.4339380000000  0.4803480000000  0.5561830000000 1.0
C      1  0.5196520000000  0.5660620000000  0.5561830000000 1.0
C      1  0.5660620000000  0.5561830000000  0.5196520000000 1.0
C      1  0.5561830000000  0.5196520000000  0.5660620000000 1.0
C      1  0.4803480000000  0.5660620000000  0.4438170000000 1.0
C      1  0.4803480000000  0.4339380000000  0.5561830000000 1.0
C      1  0.5196520000000  0.4339380000000  0.4438170000000 1.0
C      1  0.4339380000000  0.5561830000000  0.4803480000000 1.0
C      1  0.4339380000000  0.4438170000000  0.5196520000000 1.0
C      1  0.5660620000000  0.4438170000000  0.4803480000000 1.0
C      1  0.4438170000000  0.5196520000000  0.4339380000000 1.0
C      1  0.4438170000000  0.4803480000000  0.5660620000000 1.0
C      1  0.5561830000000  0.4803480000000  0.4339380000000 1.0
C      1  0.5122380000000  0.5315470000000  0.5416320000000 1.0
C      1  0.5416320000000  0.5122380000000  0.5315470000000 1.0
C      1  0.5315470000000  0.5416320000000  0.5122380000000 1.0
C      1  0.4877620000000  0.5315470000000  0.4583680000000 1.0
C      1  0.5122380000000  0.4684530000000  0.4583680000000 1.0
C      1  0.4877620000000  0.4684530000000  0.5416320000000 1.0
C      1  0.4583680000000  0.5122380000000  0.4684530000000 1.0
C      1  0.5416320000000  0.4877620000000  0.4684530000000 1.0
C      1  0.4583680000000  0.4877620000000  0.5315470000000 1.0
C      1  0.4684530000000  0.5416320000000  0.4877620000000 1.0
C      1  0.5315470000000  0.4583680000000  0.4877620000000 1.0
C      1  0.4684530000000  0.4583680000000  0.5122380000000 1.0
C      1  0.5416320000000  0.5315470000000  0.5122380000000 1.0
C      1  0.5315470000000  0.5122380000000  0.5416320000000 1.0
C      1  0.5122380000000  0.5416320000000  0.5315470000000 1.0
C      1  0.4583680000000  0.5315470000000  0.4877620000000 1.0
C      1  0.4583680000000  0.4684530000000  0.5122380000000 1.0
C      1  0.5416320000000  0.4684530000000  0.4877620000000 1.0
C      1  0.4684530000000  0.5122380000000  0.4583680000000 1.0
C      1  0.4684530000000  0.4877620000000  0.5416320000000 1.0
C      1  0.5315470000000  0.4877620000000  0.4583680000000 1.0
C      1  0.4877620000000  0.5416320000000  0.4684530000000 1.0
C      1  0.4877620000000  0.4583680000000  0.5315470000000 1.0
C      1  0.5122380000000  0.4583680000000  0.4684530000000 1.0
C      1  0.4665400000000  0.5094830000000  0.4263110000000 1.0
C      1  0.4263110000000  0.4665400000000  0.5094830000000 1.0
C      1  0.5094830000000  0.4263110000000  0.4665400000000 1.0
C      1  0.5334600000000  0.5094830000000  0.5736890000000 1.0
C      1  0.4665400000000  0.4905170000000  0.5736890000000 1.0
C      1  0.5334600000000  0.4905170000000  0.4263110000000 1.0
C      1  0.5736890000000  0.4665400000000  0.4905170000000 1.0
C      1  0.4263110000000  0.5334600000000  0.4905170000000 1.0
C      1  0.5736890000000  0.5334600000000  0.5094830000000 1.0
C      1  0.4905170000000  0.4263110000000  0.5334600000000 1.0
C      1  0.5094830000000  0.5736890000000  0.5334600000000 1.0
C      1  0.4905170000000  0.5736890000000  0.4665400000000 1.0
C      1  0.4263110000000  0.5094830000000  0.4665400000000 1.0
C      1  0.5094830000000  0.4665400000000  0.4263110000000 1.0
C      1  0.4665400000000  0.4263110000000  0.5094830000000 1.0
C      1  0.5736890000000  0.5094830000000  0.5334600000000 1.0
C      1  0.5736890000000  0.4905170000000  0.4665400000000 1.0
C      1  0.4263110000000  0.4905170000000  0.5334600000000 1.0
C      1  0.4905170000000  0.4665400000000  0.5736890000000 1.0
C      1  0.4905170000000  0.5334600000000  0.4263110000000 1.0
C      1  0.5094830000000  0.5334600000000  0.5736890000000 1.0
C      1  0.5334600000000  0.4263110000000  0.4905170000000 1.0
C      1  0.5334600000000  0.5736890000000  0.5094830000000 1.0
C      1  0.4665400000000  0.5736890000000  0.4905170000000 1.0
C      1  0.5004500000000  0.5423460000000  0.5680760000000 1.0
C      1  0.5680760000000  0.5004500000000  0.5423460000000 1.0
C      1  0.5423460000000  0.5680760000000  0.5004500000000 1.0
C      1  0.4995500000000  0.5423460000000  0.4319240000000 1.0
C      1  0.5004500000000  0.4576540000000  0.4319240000000 1.0
C      1  0.4995500000000  0.4576540000000  0.5680760000000 1.0
C      1  0.4319240000000  0.5004500000000  0.4576540000000 1.0
C      1  0.5680760000000  0.4995500000000  0.4576540000000 1.0
C      1  0.4319240000000  0.4995500000000  0.5423460000000 1.0
C      1  0.4576540000000  0.5680760000000  0.4995500000000 1.0
C      1  0.5423460000000  0.4319240000000  0.4995500000000 1.0
C      1  0.4576540000000  0.4319240000000  0.5004500000000 1.0
C      1  0.5680760000000  0.5423460000000  0.5004500000000 1.0
C      1  0.5423460000000  0.5004500000000  0.5680760000000 1.0
C      1  0.5004500000000  0.5680760000000  0.5423460000000 1.0
C      1  0.4319240000000  0.5423460000000  0.4995500000000 1.0
C      1  0.4319240000000  0.4576540000000  0.5004500000000 1.0
C      1  0.5680760000000  0.4576540000000  0.4995500000000 1.0
C      1  0.4576540000000  0.5004500000000  0.4319240000000 1.0
C      1  0.4576540000000  0.4995500000000  0.5680760000000 1.0
C      1  0.5423460000000  0.4995500000000  0.4319240000000 1.0
C      1  0.4995500000000  0.5680760000000  0.4576540000000 1.0
C      1  0.4995500000000  0.4319240000000  0.5423460000000 1.0
C      1  0.5004500000000  0.4319240000000  0.4576540000000 1.0
C      1  0.4344890000000  0.4447200000000  0.5054120000000 1.0
C      1  0.5054120000000  0.4344890000000  0.4447200000000 1.0
C      1  0.4447200000000  0.5054120000000  0.4344890000000 1.0
C      1  0.5655110000000  0.4447200000000  0.4945880000000 1.0
C      1  0.4344890000000  0.5552800000000  0.4945880000000 1.0
C      1  0.5655110000000  0.5552800000000  0.5054120000000 1.0
C      1  0.4945880000000  0.4344890000000  0.5552800000000 1.0
C      1  0.5054120000000  0.5655110000000  0.5552800000000 1.0
C      1  0.4945880000000  0.5655110000000  0.4447200000000 1.0
C      1  0.5552800000000  0.5054120000000  0.5655110000000 1.0
C      1  0.4447200000000  0.4945880000000  0.5655110000000 1.0
C      1  0.5552800000000  0.4945880000000  0.4344890000000 1.0
C      1  0.5054120000000  0.4447200000000  0.4344890000000 1.0
C      1  0.4447200000000  0.4344890000000  0.5054120000000 1.0
C      1  0.4344890000000  0.5054120000000  0.4447200000000 1.0
C      1  0.4945880000000  0.4447200000000  0.5655110000000 1.0
C      1  0.4945880000000  0.5552800000000  0.4344890000000 1.0
C      1  0.5054120000000  0.5552800000000  0.5655110000000 1.0
C      1  0.5552800000000  0.4344890000000  0.4945880000000 1.0
C      1  0.5552800000000  0.5655110000000  0.5054120000000 1.0
C      1  0.4447200000000  0.5655110000000  0.4945880000000 1.0
C      1  0.5655110000000  0.5054120000000  0.5552800000000 1.0
C      1  0.5655110000000  0.4945880000000  0.4447200000000 1.0
C      1  0.4344890000000  0.4945880000000  0.5552800000000 1.0
C      1  0.5076310000000  0.4582770000000  0.4821690000000 1.0
C      1  0.4821690000000  0.5076310000000  0.4582770000000 1.0
C      1  0.4582770000000  0.4821690000000  0.5076310000000 1.0
C      1  0.4923690000000  0.4582770000000  0.5178310000000 1.0
C      1  0.5076310000000  0.5417230000000  0.5178310000000 1.0
C      1  0.4923690000000  0.5417230000000  0.4821690000000 1.0
C      1  0.5178310000000  0.5076310000000  0.5417230000000 1.0
C      1  0.4821690000000  0.4923690000000  0.5417230000000 1.0
C      1  0.5178310000000  0.4923690000000  0.4582770000000 1.0
C      1  0.5417230000000  0.4821690000000  0.4923690000000 1.0
C      1  0.4582770000000  0.5178310000000  0.4923690000000 1.0
C      1  0.5417230000000  0.5178310000000  0.5076310000000 1.0
C      1  0.4821690000000  0.4582770000000  0.5076310000000 1.0
C      1  0.4582770000000  0.5076310000000  0.4821690000000 1.0
C      1  0.5076310000000  0.4821690000000  0.4582770000000 1.0
C      1  0.5178310000000  0.4582770000000  0.4923690000000 1.0
C      1  0.5178310000000  0.5417230000000  0.5076310000000 1.0
C      1  0.4821690000000  0.5417230000000  0.4923690000000 1.0
C      1  0.5417230000000  0.5076310000000  0.5178310000000 1.0
C      1  0.5417230000000  0.4923690000000  0.4821690000000 1.0
C      1  0.4582770000000  0.4923690000000  0.5178310000000 1.0
C      1  0.4923690000000  0.4821690000000  0.5417230000000 1.0
C      1  0.4923690000000  0.5178310000000  0.4582770000000 1.0
C      1  0.5076310000000  0.5178310000000  0.5417230000000 1.0
C      1  0.4669850000000  0.5230030000000  0.4280530000000 1.0
C      1  0.4280530000000  0.4669850000000  0.5230030000000 1.0
C      1  0.5230030000000  0.4280530000000  0.4669850000000 1.0
C      1  0.5330150000000  0.5230030000000  0.5719470000000 1.0
C      1  0.4669850000000  0.4769970000000  0.5719470000000 1.0
C      1  0.5330150000000  0.4769970000000  0.4280530000000 1.0
C      1  0.5719470000000  0.4669850000000  0.4769970000000 1.0
C      1  0.4280530000000  0.5330150000000  0.4769970000000 1.0
C      1  0.5719470000000  0.5330150000000  0.5230030000000 1.0
C      1  0.4769970000000  0.4280530000000  0.5330150000000 1.0
C      1  0.5230030000000  0.5719470000000  0.5330150000000 1.0
C      1  0.4769970000000  0.5719470000000  0.4669850000000 1.0
C      1  0.4280530000000  0.5230030000000  0.4669850000000 1.0
C      1  0.5230030000000  0.4669850000000  0.4280530000000 1.0
C      1  0.4669850000000  0.4280530000000  0.5230030000000 1.0
C      1  0.5719470000000  0.5230030000000  0.5330150000000 1.0
C      1  0.5719470000000  0.4769970000000  0.4669850000000 1.0
C      1  0.4280530000000  0.4769970000000  0.5330150000000 1.0
C      1  0.4769970000000  0.4669850000000  0.5719470000000 1.0
C      1  0.4769970000000  0.5330150000000  0.4280530000000 1.0
C      1  0.5230030000000  0.5330150000000  0.5719470000000 1.0
C      1  0.5330150000000  0.4280530000000  0.4769970000000 1.0
C      1  0.5330150000000  0.5719470000000  0.5230030000000 1.0
C      1  0.4669850000000  0.5719470000000  0.4769970000000 1.0
C      1  0.4514350000000  0.4849490000000  0.4612700000000 1.0
C      1  0.4612700000000  0.4514350000000  0.4849490000000 1.0
C      1  0.4849490000000  0.4612700000000  0.4514350000000 1.0
C      1  0.5485650000000  0.4849490000000  0.5387300000000 1.0
C      1  0.4514350000000  0.5150510000000  0.5387300000000 1.0
C      1  0.5485650000000  0.5150510000000  0.4612700000000 1.0
C      1  0.5387300000000  0.4514350000000  0.5150510000000 1.0
C      1  0.4612700000000  0.5485650000000  0.5150510000000 1.0
C      1  0.5387300000000  0.5485650000000  0.4849490000000 1.0
C      1  0.5150510000000  0.4612700000000  0.5485650000000 1.0
C      1  0.4849490000000  0.5387300000000  0.5485650000000 1.0
C      1  0.5150510000000  0.5387300000000  0.4514350000000 1.0
C      1  0.4612700000000  0.4849490000000  0.4514350000000 1.0
C      1  0.4849490000000  0.4514350000000  0.4612700000000 1.0
C      1  0.4514350000000  0.4612700000000  0.4849490000000 1.0
C      1  0.5387300000000  0.4849490000000  0.5485650000000 1.0
C      1  0.5387300000000  0.5150510000000  0.4514350000000 1.0
C      1  0.4612700000000  0.5150510000000  0.5485650000000 1.0
C      1  0.5150510000000  0.4514350000000  0.5387300000000 1.0
C      1  0.5150510000000  0.5485650000000  0.4612700000000 1.0
C      1  0.4849490000000  0.5485650000000  0.5387300000000 1.0
C      1  0.5485650000000  0.4612700000000  0.5150510000000 1.0
C      1  0.5485650000000  0.5387300000000  0.4849490000000 1.0
C      1  0.4514350000000  0.5387300000000  0.5150510000000 1.0
C      1  0.4612690000000  0.4725000000000  0.4835050000000 1.0
C      1  0.4835050000000  0.4612690000000  0.4725000000000 1.0
C      1  0.4725000000000  0.4835050000000  0.4612690000000 1.0
C      1  0.5387310000000  0.4725000000000  0.5164950000000 1.0
C      1  0.4612690000000  0.5275000000000  0.5164950000000 1.0
C      1  0.5387310000000  0.5275000000000  0.4835050000000 1.0
C      1  0.5164950000000  0.4612690000000  0.5275000000000 1.0
C      1  0.4835050000000  0.5387310000000  0.5275000000000 1.0
C      1  0.5164950000000  0.5387310000000  0.4725000000000 1.0
C      1  0.5275000000000  0.4835050000000  0.5387310000000 1.0
C      1  0.4725000000000  0.5164950000000  0.5387310000000 1.0
C      1  0.5275000000000  0.5164950000000  0.4612690000000 1.0
C      1  0.4835050000000  0.4725000000000  0.4612690000000 1.0
C      1  0.4725000000000  0.4612690000000  0.4835050000000 1.0
C      1  0.4612690000000  0.4835050000000  0.4725000000000 1.0
C      1  0.5164950000000  0.4725000000000  0.5387310000000 1.0
C      1  0.5164950000000  0.5275000000000  0.4612690000000 1.0
C      1  0.4835050000000  0.5275000000000  0.5387310000000 1.0
C      1  0.5275000000000  0.4612690000000  0.5164950000000 1.0
C      1  0.5275000000000  0.5387310000000  0.4835050000000 1.0
C      1  0.4725000000000  0.5387310000000  0.5164950000000 1.0
C      1  0.5387310000000  0.4835050000000  0.5275000000000 1.0
C      1  0.5387310000000  0.5164950000000  0.4725000000000 1.0
C      1  0.4612690000000  0.5164950000000  0.5275000000000 1.0
C      1  0.4592570000000  0.5504700000000  0.4394860000000 1.0
C      1  0.4394860000000  0.4592570000000  0.5504700000000 1.0
C      1  0.5504700000000  0.4394860000000  0.4592570000000 1.0
C      1  0.5407430000000  0.5504700000000  0.5605140000000 1.0
C      1  0.4592570000000  0.4495300000000  0.5605140000000 1.0
C      1  0.5407430000000  0.4495300000000  0.4394860000000 1.0
C      1  0.5605140000000  0.4592570000000  0.4495300000000 1.0
C      1  0.4394860000000  0.5407430000000  0.4495300000000 1.0
C      1  0.5605140000000  0.5407430000000  0.5504700000000 1.0
C      1  0.4495300000000  0.4394860000000  0.5407430000000 1.0
C      1  0.5504700000000  0.5605140000000  0.5407430000000 1.0
C      1  0.4495300000000  0.5605140000000  0.4592570000000 1.0
C      1  0.4394860000000  0.5504700000000  0.4592570000000 1.0
C      1  0.5504700000000  0.4592570000000  0.4394860000000 1.0
C      1  0.4592570000000  0.4394860000000  0.5504700000000 1.0
C      1  0.5605140000000  0.5504700000000  0.5407430000000 1.0
C      1  0.5605140000000  0.4495300000000  0.4592570000000 1.0
C      1  0.4394860000000  0.4495300000000  0.5407430000000 1.0
C      1  0.4495300000000  0.4592570000000  0.5605140000000 1.0
C      1  0.4495300000000  0.5407430000000  0.4394860000000 1.0
C      1  0.5504700000000  0.5407430000000  0.5605140000000 1.0
C      1  0.5407430000000  0.4394860000000  0.4495300000000 1.0
C      1  0.5407430000000  0.5605140000000  0.5504700000000 1.0
C      1  0.4592570000000  0.5605140000000  0.4495300000000 1.0
C      1  0.5622810000000  0.4626720000000  0.5116080000000 1.0
C      1  0.5116080000000  0.5622810000000  0.4626720000000 1.0
C      1  0.4626720000000  0.5116080000000  0.5622810000000 1.0
C      1  0.4377190000000  0.4626720000000  0.4883920000000 1.0
C      1  0.5622810000000  0.5373280000000  0.4883920000000 1.0
C      1  0.4377190000000  0.5373280000000  0.5116080000000 1.0
C      1  0.4883920000000  0.5622810000000  0.5373280000000 1.0
C      1  0.5116080000000  0.4377190000000  0.5373280000000 1.0
C      1  0.4883920000000  0.4377190000000  0.4626720000000 1.0
C      1  0.5373280000000  0.5116080000000  0.4377190000000 1.0
C      1  0.4626720000000  0.4883920000000  0.4377190000000 1.0
C      1  0.5373280000000  0.4883920000000  0.5622810000000 1.0
C      1  0.5116080000000  0.4626720000000  0.5622810000000 1.0
C      1  0.4626720000000  0.5622810000000  0.5116080000000 1.0
C      1  0.5622810000000  0.5116080000000  0.4626720000000 1.0
C      1  0.4883920000000  0.4626720000000  0.4377190000000 1.0
C      1  0.4883920000000  0.5373280000000  0.5622810000000 1.0
C      1  0.5116080000000  0.5373280000000  0.4377190000000 1.0
C      1  0.5373280000000  0.5622810000000  0.4883920000000 1.0
C      1  0.5373280000000  0.4377190000000  0.5116080000000 1.0
C      1  0.4626720000000  0.4377190000000  0.4883920000000 1.0
C      1  0.4377190000000  0.5116080000000  0.5373280000000 1.0
C      1  0.4377190000000  0.4883920000000  0.4626720000000 1.0
C      1  0.5622810000000  0.4883920000000  0.5373280000000 1.0
C      1  0.4836900000000  0.5063700000000  0.5405040000000 1.0
C      1  0.5405040000000  0.4836900000000  0.5063700000000 1.0
C      1  0.5063700000000  0.5405040000000  0.4836900000000 1.0
C      1  0.5163100000000  0.5063700000000  0.4594960000000 1.0
C      1  0.4836900000000  0.4936300000000  0.4594960000000 1.0
C      1  0.5163100000000  0.4936300000000  0.5405040000000 1.0
C      1  0.4594960000000  0.4836900000000  0.4936300000000 1.0
C      1  0.5405040000000  0.5163100000000  0.4936300000000 1.0
C      1  0.4594960000000  0.5163100000000  0.5063700000000 1.0
C      1  0.4936300000000  0.5405040000000  0.5163100000000 1.0
C      1  0.5063700000000  0.4594960000000  0.5163100000000 1.0
C      1  0.4936300000000  0.4594960000000  0.4836900000000 1.0
C      1  0.5405040000000  0.5063700000000  0.4836900000000 1.0
C      1  0.5063700000000  0.4836900000000  0.5405040000000 1.0
C      1  0.4836900000000  0.5405040000000  0.5063700000000 1.0
C      1  0.4594960000000  0.5063700000000  0.5163100000000 1.0
C      1  0.4594960000000  0.4936300000000  0.4836900000000 1.0
C      1  0.5405040000000  0.4936300000000  0.5163100000000 1.0
C      1  0.4936300000000  0.4836900000000  0.4594960000000 1.0
C      1  0.4936300000000  0.5163100000000  0.5405040000000 1.0
C      1  0.5063700000000  0.5163100000000  0.4594960000000 1.0
C      1  0.5163100000000  0.5405040000000  0.4936300000000 1.0
C      1  0.5163100000000  0.4594960000000  0.5063700000000 1.0
C      1  0.4836900000000  0.4594960000000  0.4936300000000 1.0
C      1  0.4829430000000  0.4743720000000  0.4325720000000 1.0
C      1  0.4325720000000  0.4829430000000  0.4743720000000 1.0
C      1  0.4743720000000  0.4325720000000  0.4829430000000 1.0
C      1  0.5170570000000  0.4743720000000  0.5674280000000 1.0
C      1  0.4829430000000  0.5256280000000  0.5674280000000 1.0
C      1  0.5170570000000  0.5256280000000  0.4325720000000 1.0
C      1  0.5674280000000  0.4829430000000  0.5256280000000 1.0
C      1  0.4325720000000  0.5170570000000  0.5256280000000 1.0
C      1  0.5674280000000  0.5170570000000  0.4743720000000 1.0
C      1  0.5256280000000  0.4325720000000  0.5170570000000 1.0
C      1  0.4743720000000  0.5674280000000  0.5170570000000 1.0
C      1  0.5256280000000  0.5674280000000  0.4829430000000 1.0
C      1  0.4325720000000  0.4743720000000  0.4829430000000 1.0
C      1  0.4743720000000  0.4829430000000  0.4325720000000 1.0
C      1  0.4829430000000  0.4325720000000  0.4743720000000 1.0
C      1  0.5674280000000  0.4743720000000  0.5170570000000 1.0
C      1  0.5674280000000  0.5256280000000  0.4829430000000 1.0
C      1  0.4325720000000  0.5256280000000  0.5170570000000 1.0
C      1  0.5256280000000  0.4829430000000  0.5674280000000 1.0
C      1  0.5256280000000  0.5170570000000  0.4325720000000 1.0
C      1  0.4743720000000  0.5170570000000  0.5674280000000 1.0
C      1  0.5170570000000  0.4325720000000  0.5256280000000 1.0
C      1  0.5170570000000  0.5674280000000  0.4743720000000 1.0
C      1  0.4829430000000  0.5674280000000  0.5256280000000 1.0
END
