TITL C-1892073-1155-6 -5.64251674806955e-09 1000000 -2647.38640593497 0 0 380 (C1) n - 1
REM
REM in /nfs/bkarasulu/CARBON/AIRSS/Generating-Clusters/GAP-ML-2020/Higher-Symm/Selected-Sizes/TryA-Only_Ih-Symm/Larger-Clusters
REM
REM
REM
REM
REM
REM ./C.cell (2cf5181f0f1d4d5b12b972d32ad12063)
REM
REM compiler GCC version 9.2.1 20190827 (Red Hat 9.2.1-1)
REM options -cpp -mtune=generic -march=x86-64 -g -O0 -fpre-include=/usr/include/finclude/math-vector-fortran.h
REM seed 1426545898 2047605554 -898168354 407873139 1922480678 -1279363302 -2125995997 -919329240 -1825634920 -1530161385 677559507 -710712895 1073782258 1572903546 -1941083482 -574901308 1919527146 -395398151 -405007797 495201639 755192983 945993240 -1759175430 4927898 -476639114 2029159987 -502330633 -867362005 1603833667 230109533 2006295359 -856393062 -708305068
REM
CELL 1.54180  100.00000  100.00000  100.00000   90.00000   90.00000   90.00000
LATT -1
SFAC C  
C      1  0.4247570000000  0.5071300000000  0.4460630000000 1.0
C      1  0.4433450000000  0.4282170000000  0.5063910000000 1.0
C      1  0.5062470000000  0.4455540000000  0.4264750000000 1.0
C      1  0.5700260000000  0.5071520000000  0.5514000000000 1.0
C      1  0.4264990000000  0.4949100000000  0.5543090000000 1.0
C      1  0.5709060000000  0.4952520000000  0.4482510000000 1.0
C      1  0.5596430000000  0.4262750000000  0.4933440000000 1.0
C      1  0.4492600000000  0.5696190000000  0.4931100000000 1.0
C      1  0.5569070000000  0.5773890000000  0.5066720000000 1.0
C      1  0.4933110000000  0.4449430000000  0.5723330000000 1.0
C      1  0.5073610000000  0.5578260000000  0.5727070000000 1.0
C      1  0.4944100000000  0.5537650000000  0.4254310000000 1.0
C      1  0.4251900000000  0.4943780000000  0.4471630000000 1.0
C      1  0.4486600000000  0.5699990000000  0.5058450000000 1.0
C      1  0.5072200000000  0.5542800000000  0.4254910000000 1.0
C      1  0.5696620000000  0.4944700000000  0.5531500000000 1.0
C      1  0.4260400000000  0.5077070000000  0.5552290000000 1.0
C      1  0.5711640000000  0.5079270000000  0.4498410000000 1.0
C      1  0.5568370000000  0.5766430000000  0.4938260000000 1.0
C      1  0.4432060000000  0.4285520000000  0.4935210000000 1.0
C      1  0.5597490000000  0.4253250000000  0.5061870000000 1.0
C      1  0.4945810000000  0.5570260000000  0.5725070000000 1.0
C      1  0.5061520000000  0.4441710000000  0.5727530000000 1.0
C      1  0.4935760000000  0.4472970000000  0.4278500000000 1.0
C      1  0.4712150000000  0.4395990000000  0.5335060000000 1.0
C      1  0.5346990000000  0.4707320000000  0.4376700000000 1.0
C      1  0.4367300000000  0.5347810000000  0.4694460000000 1.0
C      1  0.5308310000000  0.4347560000000  0.4644510000000 1.0
C      1  0.4706650000000  0.5609850000000  0.4635740000000 1.0
C      1  0.5298000000000  0.5653600000000  0.5343310000000 1.0
C      1  0.4660600000000  0.4728750000000  0.5602870000000 1.0
C      1  0.5345130000000  0.5308920000000  0.5615960000000 1.0
C      1  0.4654250000000  0.5290540000000  0.4362080000000 1.0
C      1  0.5620100000000  0.5374060000000  0.5282850000000 1.0
C      1  0.4379800000000  0.4674580000000  0.5281500000000 1.0
C      1  0.5611180000000  0.4658420000000  0.4718070000000 1.0
C      1  0.4732170000000  0.5590070000000  0.5332740000000 1.0
C      1  0.5341650000000  0.5305580000000  0.4388000000000 1.0
C      1  0.4379990000000  0.4678420000000  0.4725690000000 1.0
C      1  0.5295920000000  0.5655340000000  0.4651990000000 1.0
C      1  0.4721720000000  0.4413080000000  0.4666840000000 1.0
C      1  0.5302550000000  0.4342150000000  0.5342470000000 1.0
C      1  0.4659560000000  0.5303440000000  0.5643630000000 1.0
C      1  0.5338360000000  0.4693970000000  0.5611790000000 1.0
C      1  0.4658740000000  0.4739360000000  0.4395660000000 1.0
C      1  0.5616540000000  0.4650920000000  0.5281380000000 1.0
C      1  0.4373350000000  0.5350000000000  0.5302770000000 1.0
C      1  0.5614320000000  0.5372610000000  0.4718100000000 1.0
C      1  0.4749560000000  0.4886630000000  0.4937400000000 1.0
C      1  0.4979010000000  0.4633360000000  0.4925210000000 1.0
C      1  0.4858150000000  0.4936740000000  0.4653710000000 1.0
C      1  0.5337610000000  0.4815480000000  0.5077120000000 1.0
C      1  0.4658250000000  0.5015930000000  0.5085000000000 1.0
C      1  0.5366050000000  0.5183850000000  0.4934140000000 1.0
C      1  0.5100820000000  0.4669700000000  0.5098530000000 1.0
C      1  0.4955820000000  0.5302540000000  0.5133110000000 1.0
C      1  0.5076580000000  0.5283400000000  0.4916700000000 1.0
C      1  0.5048860000000  0.4918680000000  0.5315360000000 1.0
C      1  0.4899000000000  0.5065220000000  0.5285930000000 1.0
C      1  0.5047540000000  0.5058180000000  0.4697470000000 1.0
C      1  0.4659830000000  0.5013950000000  0.4921320000000 1.0
C      1  0.4953700000000  0.5348940000000  0.4873810000000 1.0
C      1  0.4890210000000  0.5081880000000  0.4668310000000 1.0
C      1  0.5372630000000  0.5184360000000  0.5061040000000 1.0
C      1  0.4745530000000  0.4887890000000  0.5076620000000 1.0
C      1  0.5324970000000  0.4819760000000  0.4939860000000 1.0
C      1  0.5078420000000  0.5287590000000  0.5077060000000 1.0
C      1  0.4959900000000  0.4649550000000  0.5085220000000 1.0
C      1  0.5123760000000  0.4684720000000  0.4960140000000 1.0
C      1  0.5048110000000  0.5061920000000  0.5291490000000 1.0
C      1  0.4891060000000  0.4928510000000  0.5354570000000 1.0
C      1  0.5072220000000  0.4924490000000  0.4658890000000 1.0
C      1  0.4682360000000  0.5523290000000  0.5054870000000 1.0
C      1  0.5086080000000  0.4636250000000  0.5588460000000 1.0
C      1  0.5542570000000  0.5102390000000  0.4683880000000 1.0
C      1  0.5365100000000  0.5639750000000  0.4927170000000 1.0
C      1  0.4636760000000  0.4404300000000  0.4926890000000 1.0
C      1  0.5376700000000  0.4337620000000  0.5079020000000 1.0
C      1  0.4947140000000  0.4665490000000  0.4422500000000 1.0
C      1  0.5085310000000  0.5360080000000  0.4408500000000 1.0
C      1  0.4936350000000  0.5357900000000  0.5613080000000 1.0
C      1  0.4402480000000  0.5098010000000  0.5358010000000 1.0
C      1  0.5540690000000  0.4947260000000  0.5337800000000 1.0
C      1  0.4392200000000  0.4944730000000  0.4662260000000 1.0
C      1  0.4639200000000  0.4400450000000  0.5079280000000 1.0
C      1  0.5086700000000  0.5367210000000  0.5603650000000 1.0
C      1  0.5549100000000  0.4946830000000  0.4671000000000 1.0
C      1  0.5375240000000  0.4343860000000  0.4923570000000 1.0
C      1  0.4685200000000  0.5521260000000  0.4902560000000 1.0
C      1  0.5366350000000  0.5642010000000  0.5080950000000 1.0
C      1  0.4935320000000  0.5353390000000  0.4404300000000 1.0
C      1  0.5095540000000  0.4651560000000  0.4400860000000 1.0
C      1  0.4936500000000  0.4643080000000  0.5577580000000 1.0
C      1  0.4402000000000  0.4947650000000  0.5348350000000 1.0
C      1  0.5541510000000  0.5101100000000  0.5321270000000 1.0
C      1  0.4394930000000  0.5094000000000  0.4649010000000 1.0
C      1  0.5250750000000  0.4476280000000  0.4438570000000 1.0
C      1  0.4438350000000  0.5243530000000  0.4473260000000 1.0
C      1  0.4487290000000  0.4462370000000  0.5237000000000 1.0
C      1  0.4763430000000  0.4507020000000  0.5538130000000 1.0
C      1  0.5246400000000  0.5530480000000  0.5548460000000 1.0
C      1  0.4761570000000  0.5504980000000  0.4433770000000 1.0
C      1  0.5533260000000  0.5255740000000  0.5487660000000 1.0
C      1  0.4449200000000  0.4776090000000  0.5499580000000 1.0
C      1  0.5534540000000  0.4770330000000  0.4509920000000 1.0
C      1  0.5521660000000  0.4430220000000  0.4753120000000 1.0
C      1  0.4506790000000  0.5523980000000  0.4752550000000 1.0
C      1  0.5527010000000  0.5599300000000  0.5249110000000 1.0
C      1  0.5241190000000  0.5529510000000  0.4448990000000 1.0
C      1  0.4443060000000  0.4776830000000  0.4503440000000 1.0
C      1  0.4519200000000  0.5521000000000  0.5228630000000 1.0
C      1  0.4769440000000  0.5508150000000  0.5552500000000 1.0
C      1  0.5245730000000  0.4465470000000  0.5549010000000 1.0
C      1  0.4771270000000  0.4528930000000  0.4468070000000 1.0
C      1  0.5522330000000  0.4763730000000  0.5483500000000 1.0
C      1  0.4446490000000  0.5253120000000  0.5528570000000 1.0
C      1  0.5533790000000  0.5255900000000  0.4513820000000 1.0
C      1  0.5520580000000  0.5596240000000  0.4752010000000 1.0
C      1  0.4493140000000  0.4469800000000  0.4766530000000 1.0
C      1  0.5530040000000  0.4417790000000  0.5245140000000 1.0
C      1  0.4439240000000  0.5409310000000  0.5190810000000 1.0
C      1  0.5198640000000  0.4400850000000  0.5425750000000 1.0
C      1  0.5416720000000  0.5201810000000  0.4448860000000 1.0
C      1  0.5582040000000  0.5478860000000  0.4806350000000 1.0
C      1  0.4441200000000  0.4594800000000  0.4825010000000 1.0
C      1  0.5584210000000  0.4544610000000  0.5186900000000 1.0
C      1  0.4825190000000  0.4463690000000  0.4582610000000 1.0
C      1  0.5192380000000  0.5591280000000  0.4571090000000 1.0
C      1  0.4829400000000  0.5549350000000  0.5428240000000 1.0
C      1  0.4571050000000  0.5203650000000  0.5586500000000 1.0
C      1  0.5403170000000  0.4804100000000  0.5547720000000 1.0
C      1  0.4561850000000  0.4835780000000  0.4442190000000 1.0
C      1  0.4436850000000  0.4589230000000  0.5180320000000 1.0
C      1  0.5197870000000  0.5587770000000  0.5423450000000 1.0
C      1  0.5417390000000  0.4813130000000  0.4442550000000 1.0
C      1  0.5568130000000  0.4555430000000  0.4808720000000 1.0
C      1  0.4436450000000  0.5410370000000  0.4802540000000 1.0
C      1  0.5590970000000  0.5481760000000  0.5192630000000 1.0
C      1  0.4814300000000  0.5564650000000  0.4554150000000 1.0
C      1  0.5204290000000  0.4410900000000  0.4562390000000 1.0
C      1  0.4816310000000  0.4441280000000  0.5420740000000 1.0
C      1  0.4569340000000  0.4831410000000  0.5558160000000 1.0
C      1  0.5414340000000  0.5200680000000  0.5552570000000 1.0
C      1  0.4564150000000  0.5193370000000  0.4419240000000 1.0
C      1  0.4756640000000  0.4317720000000  0.5112060000000 1.0
C      1  0.5124410000000  0.4764600000000  0.4302670000000 1.0
C      1  0.4289730000000  0.5130770000000  0.4753710000000 1.0
C      1  0.5296540000000  0.4225910000000  0.4871490000000 1.0
C      1  0.4765970000000  0.5640770000000  0.4862250000000 1.0
C      1  0.5264630000000  0.5748680000000  0.5116900000000 1.0
C      1  0.4891160000000  0.4739930000000  0.5683540000000 1.0
C      1  0.5125580000000  0.5275100000000  0.5718100000000 1.0
C      1  0.4892740000000  0.5255590000000  0.4294010000000 1.0
C      1  0.5643610000000  0.5131900000000  0.5214420000000 1.0
C      1  0.4290750000000  0.4905370000000  0.5253890000000 1.0
C      1  0.5664890000000  0.4902360000000  0.4761510000000 1.0
C      1  0.4781270000000  0.5633960000000  0.5092830000000 1.0
C      1  0.5118720000000  0.5249500000000  0.4308790000000 1.0
C      1  0.4283710000000  0.4905850000000  0.4759550000000 1.0
C      1  0.5277650000000  0.5755570000000  0.4881070000000 1.0
C      1  0.4746510000000  0.4320210000000  0.4884510000000 1.0
C      1  0.5282360000000  0.4224560000000  0.5115000000000 1.0
C      1  0.4893020000000  0.5283530000000  0.5737650000000 1.0
C      1  0.5119430000000  0.4746630000000  0.5687610000000 1.0
C      1  0.4894630000000  0.4764510000000  0.4318740000000 1.0
C      1  0.5659030000000  0.4899810000000  0.5249470000000 1.0
C      1  0.4294250000000  0.5132010000000  0.5255890000000 1.0
C      1  0.5638550000000  0.5132830000000  0.4795870000000 1.0
C      1  0.5289300000000  0.5127760000000  0.4637830000000 1.0
C      1  0.4633290000000  0.5279510000000  0.5119200000000 1.0
C      1  0.5144920000000  0.4612560000000  0.5343790000000 1.0
C      1  0.4658390000000  0.5158540000000  0.5368290000000 1.0
C      1  0.5296830000000  0.4881850000000  0.5353530000000 1.0
C      1  0.4630530000000  0.4905470000000  0.4656760000000 1.0
C      1  0.5376750000000  0.5400800000000  0.4875210000000 1.0
C      1  0.4661490000000  0.4669140000000  0.4871980000000 1.0
C      1  0.5364140000000  0.4582080000000  0.5124340000000 1.0
C      1  0.4926110000000  0.4650110000000  0.4678080000000 1.0
C      1  0.5138860000000  0.5375220000000  0.4663680000000 1.0
C      1  0.4915670000000  0.5337160000000  0.5374290000000 1.0
C      1  0.5317630000000  0.4883690000000  0.4645560000000 1.0
C      1  0.4656160000000  0.4667080000000  0.5142580000000 1.0
C      1  0.5153500000000  0.5369120000000  0.5340660000000 1.0
C      1  0.4643850000000  0.4912100000000  0.5356160000000 1.0
C      1  0.5290810000000  0.5126250000000  0.5362250000000 1.0
C      1  0.4651500000000  0.5154230000000  0.4641250000000 1.0
C      1  0.5345770000000  0.4584540000000  0.4891200000000 1.0
C      1  0.4628100000000  0.5278430000000  0.4876960000000 1.0
C      1  0.5386880000000  0.5396360000000  0.5128520000000 1.0
C      1  0.4892090000000  0.5369910000000  0.4643620000000 1.0
C      1  0.5167210000000  0.4624320000000  0.4644460000000 1.0
C      1  0.4908590000000  0.4634770000000  0.5323090000000 1.0
C      1  0.5172830000000  0.5274690000000  0.4787270000000 1.0
C      1  0.4783400000000  0.5158390000000  0.5265960000000 1.0
C      1  0.5301130000000  0.4701770000000  0.5160150000000 1.0
C      1  0.4885070000000  0.5277640000000  0.5249920000000 1.0
C      1  0.5172260000000  0.4702630000000  0.5227270000000 1.0
C      1  0.4896440000000  0.4691100000000  0.4813950000000 1.0
C      1  0.5160360000000  0.5141710000000  0.4710120000000 1.0
C      1  0.4751960000000  0.4854970000000  0.4702170000000 1.0
C      1  0.5164590000000  0.4843990000000  0.5300320000000 1.0
C      1  0.4763210000000  0.4773020000000  0.4833440000000 1.0
C      1  0.5335250000000  0.5267990000000  0.4818860000000 1.0
C      1  0.4701010000000  0.5150460000000  0.5137020000000 1.0
C      1  0.5200290000000  0.4719400000000  0.4742850000000 1.0
C      1  0.4763040000000  0.4850810000000  0.5316850000000 1.0
C      1  0.5342420000000  0.5262100000000  0.5180000000000 1.0
C      1  0.4883320000000  0.4691260000000  0.5191270000000 1.0
C      1  0.5179310000000  0.5273330000000  0.5212700000000 1.0
C      1  0.4837310000000  0.5323840000000  0.4772940000000 1.0
C      1  0.5188390000000  0.4855390000000  0.4694010000000 1.0
C      1  0.4780330000000  0.5170400000000  0.4738410000000 1.0
C      1  0.5164280000000  0.5140110000000  0.5284330000000 1.0
C      1  0.4702420000000  0.5148520000000  0.4866630000000 1.0
C      1  0.5249130000000  0.4701990000000  0.4881110000000 1.0
C      1  0.4754080000000  0.4774850000000  0.5183220000000 1.0
C      1  0.5602950000000  0.4886570000000  0.4543220000000 1.0
C      1  0.4553320000000  0.5595230000000  0.4859200000000 1.0
C      1  0.4864070000000  0.4523440000000  0.5631220000000 1.0
C      1  0.4358940000000  0.4878080000000  0.5473610000000 1.0
C      1  0.5613540000000  0.5152440000000  0.5445290000000 1.0
C      1  0.4347090000000  0.5147490000000  0.4516130000000 1.0
C      1  0.5495040000000  0.5690320000000  0.5146930000000 1.0
C      1  0.4509520000000  0.4361130000000  0.5144440000000 1.0
C      1  0.5508350000000  0.4335220000000  0.4856650000000 1.0
C      1  0.5149200000000  0.4517850000000  0.4351620000000 1.0
C      1  0.4870130000000  0.5476310000000  0.4352280000000 1.0
C      1  0.5146270000000  0.5501500000000  0.5639620000000 1.0
C      1  0.5615720000000  0.5155420000000  0.4560770000000 1.0
C      1  0.4508540000000  0.4369050000000  0.4859690000000 1.0
C      1  0.4872180000000  0.5489130000000  0.5643140000000 1.0
C      1  0.4355880000000  0.5154300000000  0.5491000000000 1.0
C      1  0.5592050000000  0.4882550000000  0.5463490000000 1.0
C      1  0.4350270000000  0.4874270000000  0.4536380000000 1.0
C      1  0.5511140000000  0.4319040000000  0.5145600000000 1.0
C      1  0.4555280000000  0.5594490000000  0.5117990000000 1.0
C      1  0.5494000000000  0.5679370000000  0.4861840000000 1.0
C      1  0.5144390000000  0.5488690000000  0.4357810000000 1.0
C      1  0.4873070000000  0.4546670000000  0.4375860000000 1.0
C      1  0.5144060000000  0.4503840000000  0.5637480000000 1.0
C      1  0.4759320000000  0.5275830000000  0.5735380000000 1.0
C      1  0.5681710000000  0.4768880000000  0.5249930000000 1.0
C      1  0.5267290000000  0.5750250000000  0.4747910000000 1.0
C      1  0.5250020000000  0.5264570000000  0.4293230000000 1.0
C      1  0.4762830000000  0.4773450000000  0.4312690000000 1.0
C      1  0.5250540000000  0.4735840000000  0.5709380000000 1.0
C      1  0.4287560000000  0.4772720000000  0.4763200000000 1.0
C      1  0.5666140000000  0.5261460000000  0.4780660000000 1.0
C      1  0.4272220000000  0.5262430000000  0.5269640000000 1.0
C      1  0.4773160000000  0.5659790000000  0.5222910000000 1.0
C      1  0.5275500000000  0.4241800000000  0.5249650000000 1.0
C      1  0.4759280000000  0.4315080000000  0.4752760000000 1.0
C      1  0.4759840000000  0.4755220000000  0.5691560000000 1.0
C      1  0.5671360000000  0.5261200000000  0.5223050000000 1.0
C      1  0.5287590000000  0.4246830000000  0.4738450000000 1.0
C      1  0.5255520000000  0.4752610000000  0.4283070000000 1.0
C      1  0.4761050000000  0.5251330000000  0.4284710000000 1.0
C      1  0.5258980000000  0.5278920000000  0.5719500000000 1.0
C      1  0.4267910000000  0.5260640000000  0.4732800000000 1.0
C      1  0.5680750000000  0.4770290000000  0.4758720000000 1.0
C      1  0.4290730000000  0.4772750000000  0.5246400000000 1.0
C      1  0.4757270000000  0.4304150000000  0.5243720000000 1.0
C      1  0.5259060000000  0.5749220000000  0.5251140000000 1.0
C      1  0.4735370000000  0.5688060000000  0.4742360000000 1.0
C      1  0.5353310000000  0.5439800000000  0.5541430000000 1.0
C      1  0.5545250000000  0.5374900000000  0.5410870000000 1.0
C      1  0.5430860000000  0.5585360000000  0.5352660000000 1.0
C      1  0.4646620000000  0.5420350000000  0.4431730000000 1.0
C      1  0.5358030000000  0.4569850000000  0.4445590000000 1.0
C      1  0.4660780000000  0.4604690000000  0.5527370000000 1.0
C      1  0.4441460000000  0.5354440000000  0.4560340000000 1.0
C      1  0.5539480000000  0.4651760000000  0.4589280000000 1.0
C      1  0.4456920000000  0.4669790000000  0.5406910000000 1.0
C      1  0.4581060000000  0.5536120000000  0.4632770000000 1.0
C      1  0.5432920000000  0.4433110000000  0.4641810000000 1.0
C      1  0.4584180000000  0.4471230000000  0.5338750000000 1.0
C      1  0.5351460000000  0.4560220000000  0.5542180000000 1.0
C      1  0.5534700000000  0.4644760000000  0.5404550000000 1.0
C      1  0.5432820000000  0.4424030000000  0.5348860000000 1.0
C      1  0.4660240000000  0.4616110000000  0.4474260000000 1.0
C      1  0.5349200000000  0.5438780000000  0.4458790000000 1.0
C      1  0.4655130000000  0.5426120000000  0.5558560000000 1.0
C      1  0.4455610000000  0.4673340000000  0.4597990000000 1.0
C      1  0.5542810000000  0.5375140000000  0.4589130000000 1.0
C      1  0.4450490000000  0.5359310000000  0.5433950000000 1.0
C      1  0.4592070000000  0.4482560000000  0.4666100000000 1.0
C      1  0.5427200000000  0.5585760000000  0.4644580000000 1.0
C      1  0.4601080000000  0.5526580000000  0.5343720000000 1.0
C      1  0.5085740000000  0.4476570000000  0.5362700000000 1.0
C      1  0.5340410000000  0.5076310000000  0.4506460000000 1.0
C      1  0.4490550000000  0.5326400000000  0.5070000000000 1.0
C      1  0.4957180000000  0.4509060000000  0.4635770000000 1.0
C      1  0.5081040000000  0.5515160000000  0.4638160000000 1.0
C      1  0.4953100000000  0.5481600000000  0.5385340000000 1.0
C      1  0.4636420000000  0.5095920000000  0.5506330000000 1.0
C      1  0.5329850000000  0.4928680000000  0.5493940000000 1.0
C      1  0.4606210000000  0.4952620000000  0.4516130000000 1.0
C      1  0.5517910000000  0.5432850000000  0.4930460000000 1.0
C      1  0.4524990000000  0.4660690000000  0.4928910000000 1.0
C      1  0.5505820000000  0.4578160000000  0.5068160000000 1.0
C      1  0.5090710000000  0.5505150000000  0.5360050000000 1.0
C      1  0.5347620000000  0.4933280000000  0.4505160000000 1.0
C      1  0.4522890000000  0.4657710000000  0.5079930000000 1.0
C      1  0.4938460000000  0.5505800000000  0.4618400000000 1.0
C      1  0.5097920000000  0.4489710000000  0.4629160000000 1.0
C      1  0.4945750000000  0.4489870000000  0.5358880000000 1.0
C      1  0.4618620000000  0.4955790000000  0.5495860000000 1.0
C      1  0.5337460000000  0.5074370000000  0.5494380000000 1.0
C      1  0.4630200000000  0.5090610000000  0.4505060000000 1.0
C      1  0.5492420000000  0.4587090000000  0.4929050000000 1.0
C      1  0.4494790000000  0.5331730000000  0.4925730000000 1.0
C      1  0.5525960000000  0.5430960000000  0.5068060000000 1.0
C      1  0.5311150000000  0.4460620000000  0.5134940000000 1.0
C      1  0.5145620000000  0.5319130000000  0.4539430000000 1.0
C      1  0.4530470000000  0.5162310000000  0.5311140000000 1.0
C      1  0.4699980000000  0.4548580000000  0.4935890000000 1.0
C      1  0.5290670000000  0.5508830000000  0.4891270000000 1.0
C      1  0.4700740000000  0.5397140000000  0.5131480000000 1.0
C      1  0.4900750000000  0.5266840000000  0.5495000000000 1.0
C      1  0.5147750000000  0.4675780000000  0.5462670000000 1.0
C      1  0.4928770000000  0.4727850000000  0.4559340000000 1.0
C      1  0.5396040000000  0.5175220000000  0.4711990000000 1.0
C      1  0.4519680000000  0.4915870000000  0.4737340000000 1.0
C      1  0.5418490000000  0.4892310000000  0.5280610000000 1.0
C      1  0.5321420000000  0.5512180000000  0.5141250000000 1.0
C      1  0.5161010000000  0.4687990000000  0.4522580000000 1.0
C      1  0.4529190000000  0.4917470000000  0.5275600000000 1.0
C      1  0.4710970000000  0.5384150000000  0.4835170000000 1.0
C      1  0.5288200000000  0.4461700000000  0.4888210000000 1.0
C      1  0.4696330000000  0.4547150000000  0.5077980000000 1.0
C      1  0.4894070000000  0.4697670000000  0.5443550000000 1.0
C      1  0.5147730000000  0.5316340000000  0.5469240000000 1.0
C      1  0.4898150000000  0.5287630000000  0.4530790000000 1.0
C      1  0.5427740000000  0.4889070000000  0.4727880000000 1.0
C      1  0.4523500000000  0.5159820000000  0.4692450000000 1.0
C      1  0.5398850000000  0.5173770000000  0.5290370000000 1.0
C      1  0.5112120000000  0.4311390000000  0.4970720000000 1.0
C      1  0.4973650000000  0.5079530000000  0.4423540000000 1.0
C      1  0.4406640000000  0.5005480000000  0.5077440000000 1.0
C      1  0.5018780000000  0.4488610000000  0.4911180000000 1.0
C      1  0.5154370000000  0.5522390000000  0.4923920000000 1.0
C      1  0.4972100000000  0.5613360000000  0.4940700000000 1.0
C      1  0.4925170000000  0.5130310000000  0.5527660000000 1.0
C      1  0.4971320000000  0.4951760000000  0.5627160000000 1.0
C      1  0.4961140000000  0.4874750000000  0.4567340000000 1.0
C      1  0.5532730000000  0.4956400000000  0.4936630000000 1.0
C      1  0.4524510000000  0.4966190000000  0.4868610000000 1.0
C      1  0.5427780000000  0.4897680000000  0.5141280000000 1.0
C      1  0.5108230000000  0.5650770000000  0.4969130000000 1.0
C      1  0.4990190000000  0.4940810000000  0.4428930000000 1.0
C      1  0.4527650000000  0.4966070000000  0.5142370000000 1.0
C      1  0.5011720000000  0.5477720000000  0.4901020000000 1.0
C      1  0.5154340000000  0.4438170000000  0.4917250000000 1.0
C      1  0.4971230000000  0.4354930000000  0.4967080000000 1.0
C      1  0.4905710000000  0.4984140000000  0.5497940000000 1.0
C      1  0.4984780000000  0.5096680000000  0.5653740000000 1.0
C      1  0.4917280000000  0.5148280000000  0.4534460000000 1.0
C      1  0.5424220000000  0.4889570000000  0.4868680000000 1.0
C      1  0.4405380000000  0.5007450000000  0.4935740000000 1.0
C      1  0.5535600000000  0.4959650000000  0.5072540000000 1.0
C      1  0.4850940000000  0.5673790000000  0.4971780000000 1.0
C      1  0.5002180000000  0.4831120000000  0.5697340000000 1.0
C      1  0.5649320000000  0.5005310000000  0.4862620000000 1.0
C      1  0.5203750000000  0.4208590000000  0.4990560000000 1.0
C      1  0.5003470000000  0.5163060000000  0.4305760000000 1.0
C      1  0.4290040000000  0.5019890000000  0.5165290000000 1.0
C      1  0.5652780000000  0.5004220000000  0.5148040000000 1.0
C      1  0.4287030000000  0.5021460000000  0.4847840000000 1.0
C      1  0.5185630000000  0.5764960000000  0.4995830000000 1.0
C      1  0.4839910000000  0.4312040000000  0.4993420000000 1.0
C      1  0.5010130000000  0.4852600000000  0.4315170000000 1.0
C      1  0.5009850000000  0.5193110000000  0.5751220000000 1.0
C      1  0.4551100000000  0.5441670000000  0.4535470000000 1.0
C      1  0.5447500000000  0.4548650000000  0.4555660000000 1.0
C      1  0.5443100000000  0.4539800000000  0.5434820000000 1.0
C      1  0.4564580000000  0.5442750000000  0.5449110000000 1.0
C      1  0.5448020000000  0.5472560000000  0.5440110000000 1.0
C      1  0.4565550000000  0.4580280000000  0.5426510000000 1.0
C      1  0.4567540000000  0.4588710000000  0.4577370000000 1.0
C      1  0.5444160000000  0.5471410000000  0.4559530000000 1.0
END
