TITL C-1892085-2338-87 -6.69878779833674e-07 1000000 -3376.06278006632 0 0 480 (Td) n - 1
REM
REM in /nfs/bkarasulu/CARBON/AIRSS/Generating-Clusters/GAP-ML-2020/Higher-Symm/Selected-Sizes/TryA-Only_Ih-Symm/Larger-Clusters
REM
REM
REM
REM
REM
REM ./C.cell (2cf5181f0f1d4d5b12b972d32ad12063)
REM
REM compiler GCC version 9.2.1 20190827 (Red Hat 9.2.1-1)
REM options -cpp -mtune=generic -march=x86-64 -g -O0 -fpre-include=/usr/include/finclude/math-vector-fortran.h
REM seed -1352414268 756743552 71012812 874585136 23779964 1029279025 -63448871 -1675059798 -1654656011 -1502261046 -2065953856 -238376813 -1674776104 -234176358 384411300 -1482656536 930861930 130376409 -631080134 -2080970249 689068872 -851022812 -261839870 -1753141314 1968281390 2035733035 -1720547189 -50239640 957112491 2002748531 1145036203 875465193 1472452982
REM
CELL 1.54180  100.00000  100.00000  100.00000   90.00000   90.00000   90.00000
LATT -1
SFAC C  
C      1  0.5664190000000  0.5274670000000  0.5476090000000 1.0
C      1  0.5274670000000  0.5476090000000  0.5664190000000 1.0
C      1  0.5476090000000  0.5664190000000  0.5274670000000 1.0
C      1  0.4335810000000  0.4725330000000  0.5476090000000 1.0
C      1  0.5664190000000  0.4725330000000  0.4523910000000 1.0
C      1  0.4335810000000  0.5274670000000  0.4523910000000 1.0
C      1  0.4725330000000  0.4523910000000  0.5664190000000 1.0
C      1  0.5274670000000  0.4523910000000  0.4335810000000 1.0
C      1  0.4725330000000  0.5476090000000  0.4335810000000 1.0
C      1  0.4523910000000  0.4335810000000  0.5274670000000 1.0
C      1  0.5476090000000  0.4335810000000  0.4725330000000 1.0
C      1  0.4523910000000  0.5664190000000  0.4725330000000 1.0
C      1  0.5274670000000  0.5664190000000  0.5476090000000 1.0
C      1  0.5476090000000  0.5274670000000  0.5664190000000 1.0
C      1  0.5664190000000  0.5476090000000  0.5274670000000 1.0
C      1  0.4725330000000  0.4335810000000  0.5476090000000 1.0
C      1  0.4725330000000  0.5664190000000  0.4523910000000 1.0
C      1  0.5274670000000  0.4335810000000  0.4523910000000 1.0
C      1  0.4523910000000  0.4725330000000  0.5664190000000 1.0
C      1  0.4523910000000  0.5274670000000  0.4335810000000 1.0
C      1  0.5476090000000  0.4725330000000  0.4335810000000 1.0
C      1  0.4335810000000  0.4523910000000  0.5274670000000 1.0
C      1  0.4335810000000  0.5476090000000  0.4725330000000 1.0
C      1  0.5664190000000  0.4523910000000  0.4725330000000 1.0
C      1  0.5001080000000  0.5111790000000  0.5222310000000 1.0
C      1  0.5111790000000  0.5222310000000  0.5001080000000 1.0
C      1  0.5222310000000  0.5001080000000  0.5111790000000 1.0
C      1  0.4998920000000  0.4888210000000  0.5222310000000 1.0
C      1  0.5001080000000  0.4888210000000  0.4777690000000 1.0
C      1  0.4998920000000  0.5111790000000  0.4777690000000 1.0
C      1  0.4888210000000  0.4777690000000  0.5001080000000 1.0
C      1  0.5111790000000  0.4777690000000  0.4998920000000 1.0
C      1  0.4888210000000  0.5222310000000  0.4998920000000 1.0
C      1  0.4777690000000  0.4998920000000  0.5111790000000 1.0
C      1  0.5222310000000  0.4998920000000  0.4888210000000 1.0
C      1  0.4777690000000  0.5001080000000  0.4888210000000 1.0
C      1  0.5111790000000  0.5001080000000  0.5222310000000 1.0
C      1  0.5222310000000  0.5111790000000  0.5001080000000 1.0
C      1  0.5001080000000  0.5222310000000  0.5111790000000 1.0
C      1  0.4888210000000  0.4998920000000  0.5222310000000 1.0
C      1  0.4888210000000  0.5001080000000  0.4777690000000 1.0
C      1  0.5111790000000  0.4998920000000  0.4777690000000 1.0
C      1  0.4777690000000  0.4888210000000  0.5001080000000 1.0
C      1  0.4777690000000  0.5111790000000  0.4998920000000 1.0
C      1  0.5222310000000  0.4888210000000  0.4998920000000 1.0
C      1  0.4998920000000  0.4777690000000  0.5111790000000 1.0
C      1  0.4998920000000  0.5222310000000  0.4888210000000 1.0
C      1  0.5001080000000  0.4777690000000  0.4888210000000 1.0
C      1  0.4664580000000  0.4847620000000  0.5539210000000 1.0
C      1  0.4847620000000  0.5539210000000  0.4664580000000 1.0
C      1  0.5539210000000  0.4664580000000  0.4847620000000 1.0
C      1  0.5335420000000  0.5152380000000  0.5539210000000 1.0
C      1  0.4664580000000  0.5152380000000  0.4460790000000 1.0
C      1  0.5335420000000  0.4847620000000  0.4460790000000 1.0
C      1  0.5152380000000  0.4460790000000  0.4664580000000 1.0
C      1  0.4847620000000  0.4460790000000  0.5335420000000 1.0
C      1  0.5152380000000  0.5539210000000  0.5335420000000 1.0
C      1  0.4460790000000  0.5335420000000  0.4847620000000 1.0
C      1  0.5539210000000  0.5335420000000  0.5152380000000 1.0
C      1  0.4460790000000  0.4664580000000  0.5152380000000 1.0
C      1  0.4847620000000  0.4664580000000  0.5539210000000 1.0
C      1  0.5539210000000  0.4847620000000  0.4664580000000 1.0
C      1  0.4664580000000  0.5539210000000  0.4847620000000 1.0
C      1  0.5152380000000  0.5335420000000  0.5539210000000 1.0
C      1  0.5152380000000  0.4664580000000  0.4460790000000 1.0
C      1  0.4847620000000  0.5335420000000  0.4460790000000 1.0
C      1  0.4460790000000  0.5152380000000  0.4664580000000 1.0
C      1  0.4460790000000  0.4847620000000  0.5335420000000 1.0
C      1  0.5539210000000  0.5152380000000  0.5335420000000 1.0
C      1  0.5335420000000  0.4460790000000  0.4847620000000 1.0
C      1  0.5335420000000  0.5539210000000  0.5152380000000 1.0
C      1  0.4664580000000  0.4460790000000  0.5152380000000 1.0
C      1  0.4563910000000  0.5231220000000  0.4879090000000 1.0
C      1  0.5231220000000  0.4879090000000  0.4563910000000 1.0
C      1  0.4879090000000  0.4563910000000  0.5231220000000 1.0
C      1  0.5436090000000  0.4768780000000  0.4879090000000 1.0
C      1  0.4563910000000  0.4768780000000  0.5120910000000 1.0
C      1  0.5436090000000  0.5231220000000  0.5120910000000 1.0
C      1  0.4768780000000  0.5120910000000  0.4563910000000 1.0
C      1  0.5231220000000  0.5120910000000  0.5436090000000 1.0
C      1  0.4768780000000  0.4879090000000  0.5436090000000 1.0
C      1  0.5120910000000  0.5436090000000  0.5231220000000 1.0
C      1  0.4879090000000  0.5436090000000  0.4768780000000 1.0
C      1  0.5120910000000  0.4563910000000  0.4768780000000 1.0
C      1  0.5231220000000  0.4563910000000  0.4879090000000 1.0
C      1  0.4879090000000  0.5231220000000  0.4563910000000 1.0
C      1  0.4563910000000  0.4879090000000  0.5231220000000 1.0
C      1  0.4768780000000  0.5436090000000  0.4879090000000 1.0
C      1  0.4768780000000  0.4563910000000  0.5120910000000 1.0
C      1  0.5231220000000  0.5436090000000  0.5120910000000 1.0
C      1  0.5120910000000  0.4768780000000  0.4563910000000 1.0
C      1  0.5120910000000  0.5231220000000  0.5436090000000 1.0
C      1  0.4879090000000  0.4768780000000  0.5436090000000 1.0
C      1  0.5436090000000  0.5120910000000  0.5231220000000 1.0
C      1  0.5436090000000  0.4879090000000  0.4768780000000 1.0
C      1  0.4563910000000  0.5120910000000  0.4768780000000 1.0
C      1  0.4667010000000  0.4994300000000  0.5226580000000 1.0
C      1  0.4994300000000  0.5226580000000  0.4667010000000 1.0
C      1  0.5226580000000  0.4667010000000  0.4994300000000 1.0
C      1  0.5332990000000  0.5005700000000  0.5226580000000 1.0
C      1  0.4667010000000  0.5005700000000  0.4773420000000 1.0
C      1  0.5332990000000  0.4994300000000  0.4773420000000 1.0
C      1  0.5005700000000  0.4773420000000  0.4667010000000 1.0
C      1  0.4994300000000  0.4773420000000  0.5332990000000 1.0
C      1  0.5005700000000  0.5226580000000  0.5332990000000 1.0
C      1  0.4773420000000  0.5332990000000  0.4994300000000 1.0
C      1  0.5226580000000  0.5332990000000  0.5005700000000 1.0
C      1  0.4773420000000  0.4667010000000  0.5005700000000 1.0
C      1  0.4994300000000  0.4667010000000  0.5226580000000 1.0
C      1  0.5226580000000  0.4994300000000  0.4667010000000 1.0
C      1  0.4667010000000  0.5226580000000  0.4994300000000 1.0
C      1  0.5005700000000  0.5332990000000  0.5226580000000 1.0
C      1  0.5005700000000  0.4667010000000  0.4773420000000 1.0
C      1  0.4994300000000  0.5332990000000  0.4773420000000 1.0
C      1  0.4773420000000  0.5005700000000  0.4667010000000 1.0
C      1  0.4773420000000  0.4994300000000  0.5332990000000 1.0
C      1  0.5226580000000  0.5005700000000  0.5332990000000 1.0
C      1  0.5332990000000  0.4773420000000  0.4994300000000 1.0
C      1  0.5332990000000  0.5226580000000  0.5005700000000 1.0
C      1  0.4667010000000  0.4773420000000  0.5005700000000 1.0
C      1  0.4563830000000  0.4454540000000  0.4792260000000 1.0
C      1  0.4454540000000  0.4792260000000  0.4563830000000 1.0
C      1  0.4792260000000  0.4563830000000  0.4454540000000 1.0
C      1  0.5436170000000  0.5545460000000  0.4792260000000 1.0
C      1  0.4563830000000  0.5545460000000  0.5207740000000 1.0
C      1  0.5436170000000  0.4454540000000  0.5207740000000 1.0
C      1  0.5545460000000  0.5207740000000  0.4563830000000 1.0
C      1  0.4454540000000  0.5207740000000  0.5436170000000 1.0
C      1  0.5545460000000  0.4792260000000  0.5436170000000 1.0
C      1  0.5207740000000  0.5436170000000  0.4454540000000 1.0
C      1  0.4792260000000  0.5436170000000  0.5545460000000 1.0
C      1  0.5207740000000  0.4563830000000  0.5545460000000 1.0
C      1  0.4454540000000  0.4563830000000  0.4792260000000 1.0
C      1  0.4792260000000  0.4454540000000  0.4563830000000 1.0
C      1  0.4563830000000  0.4792260000000  0.4454540000000 1.0
C      1  0.5545460000000  0.5436170000000  0.4792260000000 1.0
C      1  0.5545460000000  0.4563830000000  0.5207740000000 1.0
C      1  0.4454540000000  0.5436170000000  0.5207740000000 1.0
C      1  0.5207740000000  0.5545460000000  0.4563830000000 1.0
C      1  0.5207740000000  0.4454540000000  0.5436170000000 1.0
C      1  0.4792260000000  0.5545460000000  0.5436170000000 1.0
C      1  0.5436170000000  0.5207740000000  0.4454540000000 1.0
C      1  0.5436170000000  0.4792260000000  0.5545460000000 1.0
C      1  0.4563830000000  0.5207740000000  0.5545460000000 1.0
C      1  0.5222910000000  0.4566650000000  0.5330690000000 1.0
C      1  0.4566650000000  0.5330690000000  0.5222910000000 1.0
C      1  0.5330690000000  0.5222910000000  0.4566650000000 1.0
C      1  0.4777090000000  0.5433350000000  0.5330690000000 1.0
C      1  0.5222910000000  0.5433350000000  0.4669310000000 1.0
C      1  0.4777090000000  0.4566650000000  0.4669310000000 1.0
C      1  0.5433350000000  0.4669310000000  0.5222910000000 1.0
C      1  0.4566650000000  0.4669310000000  0.4777090000000 1.0
C      1  0.5433350000000  0.5330690000000  0.4777090000000 1.0
C      1  0.4669310000000  0.4777090000000  0.4566650000000 1.0
C      1  0.5330690000000  0.4777090000000  0.5433350000000 1.0
C      1  0.4669310000000  0.5222910000000  0.5433350000000 1.0
C      1  0.4566650000000  0.5222910000000  0.5330690000000 1.0
C      1  0.5330690000000  0.4566650000000  0.5222910000000 1.0
C      1  0.5222910000000  0.5330690000000  0.4566650000000 1.0
C      1  0.5433350000000  0.4777090000000  0.5330690000000 1.0
C      1  0.5433350000000  0.5222910000000  0.4669310000000 1.0
C      1  0.4566650000000  0.4777090000000  0.4669310000000 1.0
C      1  0.4669310000000  0.5433350000000  0.5222910000000 1.0
C      1  0.4669310000000  0.4566650000000  0.4777090000000 1.0
C      1  0.5330690000000  0.5433350000000  0.4777090000000 1.0
C      1  0.4777090000000  0.4669310000000  0.4566650000000 1.0
C      1  0.4777090000000  0.5330690000000  0.5433350000000 1.0
C      1  0.5222910000000  0.4669310000000  0.5433350000000 1.0
C      1  0.4542200000000  0.4432300000000  0.5053520000000 1.0
C      1  0.4432300000000  0.5053520000000  0.4542200000000 1.0
C      1  0.5053520000000  0.4542200000000  0.4432300000000 1.0
C      1  0.5457800000000  0.5567700000000  0.5053520000000 1.0
C      1  0.4542200000000  0.5567700000000  0.4946480000000 1.0
C      1  0.5457800000000  0.4432300000000  0.4946480000000 1.0
C      1  0.5567700000000  0.4946480000000  0.4542200000000 1.0
C      1  0.4432300000000  0.4946480000000  0.5457800000000 1.0
C      1  0.5567700000000  0.5053520000000  0.5457800000000 1.0
C      1  0.4946480000000  0.5457800000000  0.4432300000000 1.0
C      1  0.5053520000000  0.5457800000000  0.5567700000000 1.0
C      1  0.4946480000000  0.4542200000000  0.5567700000000 1.0
C      1  0.4432300000000  0.4542200000000  0.5053520000000 1.0
C      1  0.5053520000000  0.4432300000000  0.4542200000000 1.0
C      1  0.4542200000000  0.5053520000000  0.4432300000000 1.0
C      1  0.5567700000000  0.5457800000000  0.5053520000000 1.0
C      1  0.5567700000000  0.4542200000000  0.4946480000000 1.0
C      1  0.4432300000000  0.5457800000000  0.4946480000000 1.0
C      1  0.4946480000000  0.5567700000000  0.4542200000000 1.0
C      1  0.4946480000000  0.4432300000000  0.5457800000000 1.0
C      1  0.5053520000000  0.5567700000000  0.5457800000000 1.0
C      1  0.5457800000000  0.4946480000000  0.4432300000000 1.0
C      1  0.5457800000000  0.5053520000000  0.5567700000000 1.0
C      1  0.4542200000000  0.4946480000000  0.5567700000000 1.0
C      1  0.4474140000000  0.4956020000000  0.5139580000000 1.0
C      1  0.4956020000000  0.5139580000000  0.4474140000000 1.0
C      1  0.5139580000000  0.4474140000000  0.4956020000000 1.0
C      1  0.5525860000000  0.5043980000000  0.5139580000000 1.0
C      1  0.4474140000000  0.5043980000000  0.4860420000000 1.0
C      1  0.5525860000000  0.4956020000000  0.4860420000000 1.0
C      1  0.5043980000000  0.4860420000000  0.4474140000000 1.0
C      1  0.4956020000000  0.4860420000000  0.5525860000000 1.0
C      1  0.5043980000000  0.5139580000000  0.5525860000000 1.0
C      1  0.4860420000000  0.5525860000000  0.4956020000000 1.0
C      1  0.5139580000000  0.5525860000000  0.5043980000000 1.0
C      1  0.4860420000000  0.4474140000000  0.5043980000000 1.0
C      1  0.4956020000000  0.4474140000000  0.5139580000000 1.0
C      1  0.5139580000000  0.4956020000000  0.4474140000000 1.0
C      1  0.4474140000000  0.5139580000000  0.4956020000000 1.0
C      1  0.5043980000000  0.5525860000000  0.5139580000000 1.0
C      1  0.5043980000000  0.4474140000000  0.4860420000000 1.0
C      1  0.4956020000000  0.5525860000000  0.4860420000000 1.0
C      1  0.4860420000000  0.5043980000000  0.4474140000000 1.0
C      1  0.4860420000000  0.4956020000000  0.5525860000000 1.0
C      1  0.5139580000000  0.5043980000000  0.5525860000000 1.0
C      1  0.5525860000000  0.4860420000000  0.4956020000000 1.0
C      1  0.5525860000000  0.5139580000000  0.5043980000000 1.0
C      1  0.4474140000000  0.4860420000000  0.5043980000000 1.0
C      1  0.4969810000000  0.5237720000000  0.4242980000000 1.0
C      1  0.5237720000000  0.4242980000000  0.4969810000000 1.0
C      1  0.4242980000000  0.4969810000000  0.5237720000000 1.0
C      1  0.5030190000000  0.4762280000000  0.4242980000000 1.0
C      1  0.4969810000000  0.4762280000000  0.5757020000000 1.0
C      1  0.5030190000000  0.5237720000000  0.5757020000000 1.0
C      1  0.4762280000000  0.5757020000000  0.4969810000000 1.0
C      1  0.5237720000000  0.5757020000000  0.5030190000000 1.0
C      1  0.4762280000000  0.4242980000000  0.5030190000000 1.0
C      1  0.5757020000000  0.5030190000000  0.5237720000000 1.0
C      1  0.4242980000000  0.5030190000000  0.4762280000000 1.0
C      1  0.5757020000000  0.4969810000000  0.4762280000000 1.0
C      1  0.5237720000000  0.4969810000000  0.4242980000000 1.0
C      1  0.4242980000000  0.5237720000000  0.4969810000000 1.0
C      1  0.4969810000000  0.4242980000000  0.5237720000000 1.0
C      1  0.4762280000000  0.5030190000000  0.4242980000000 1.0
C      1  0.4762280000000  0.4969810000000  0.5757020000000 1.0
C      1  0.5237720000000  0.5030190000000  0.5757020000000 1.0
C      1  0.5757020000000  0.4762280000000  0.4969810000000 1.0
C      1  0.5757020000000  0.5237720000000  0.5030190000000 1.0
C      1  0.4242980000000  0.4762280000000  0.5030190000000 1.0
C      1  0.5030190000000  0.5757020000000  0.5237720000000 1.0
C      1  0.5030190000000  0.4242980000000  0.4762280000000 1.0
C      1  0.4969810000000  0.5757020000000  0.4762280000000 1.0
C      1  0.4881500000000  0.4579490000000  0.4773920000000 1.0
C      1  0.4579490000000  0.4773920000000  0.4881500000000 1.0
C      1  0.4773920000000  0.4881500000000  0.4579490000000 1.0
C      1  0.5118500000000  0.5420510000000  0.4773920000000 1.0
C      1  0.4881500000000  0.5420510000000  0.5226080000000 1.0
C      1  0.5118500000000  0.4579490000000  0.5226080000000 1.0
C      1  0.5420510000000  0.5226080000000  0.4881500000000 1.0
C      1  0.4579490000000  0.5226080000000  0.5118500000000 1.0
C      1  0.5420510000000  0.4773920000000  0.5118500000000 1.0
C      1  0.5226080000000  0.5118500000000  0.4579490000000 1.0
C      1  0.4773920000000  0.5118500000000  0.5420510000000 1.0
C      1  0.5226080000000  0.4881500000000  0.5420510000000 1.0
C      1  0.4579490000000  0.4881500000000  0.4773920000000 1.0
C      1  0.4773920000000  0.4579490000000  0.4881500000000 1.0
C      1  0.4881500000000  0.4773920000000  0.4579490000000 1.0
C      1  0.5420510000000  0.5118500000000  0.4773920000000 1.0
C      1  0.5420510000000  0.4881500000000  0.5226080000000 1.0
C      1  0.4579490000000  0.5118500000000  0.5226080000000 1.0
C      1  0.5226080000000  0.5420510000000  0.4881500000000 1.0
C      1  0.5226080000000  0.4579490000000  0.5118500000000 1.0
C      1  0.4773920000000  0.5420510000000  0.5118500000000 1.0
C      1  0.5118500000000  0.5226080000000  0.4579490000000 1.0
C      1  0.5118500000000  0.4773920000000  0.5420510000000 1.0
C      1  0.4881500000000  0.5226080000000  0.5420510000000 1.0
C      1  0.5644330000000  0.4453570000000  0.4846210000000 1.0
C      1  0.4453570000000  0.4846210000000  0.5644330000000 1.0
C      1  0.4846210000000  0.5644330000000  0.4453570000000 1.0
C      1  0.4355670000000  0.5546430000000  0.4846210000000 1.0
C      1  0.5644330000000  0.5546430000000  0.5153790000000 1.0
C      1  0.4355670000000  0.4453570000000  0.5153790000000 1.0
C      1  0.5546430000000  0.5153790000000  0.5644330000000 1.0
C      1  0.4453570000000  0.5153790000000  0.4355670000000 1.0
C      1  0.5546430000000  0.4846210000000  0.4355670000000 1.0
C      1  0.5153790000000  0.4355670000000  0.4453570000000 1.0
C      1  0.4846210000000  0.4355670000000  0.5546430000000 1.0
C      1  0.5153790000000  0.5644330000000  0.5546430000000 1.0
C      1  0.4453570000000  0.5644330000000  0.4846210000000 1.0
C      1  0.4846210000000  0.4453570000000  0.5644330000000 1.0
C      1  0.5644330000000  0.4846210000000  0.4453570000000 1.0
C      1  0.5546430000000  0.4355670000000  0.4846210000000 1.0
C      1  0.5546430000000  0.5644330000000  0.5153790000000 1.0
C      1  0.4453570000000  0.4355670000000  0.5153790000000 1.0
C      1  0.5153790000000  0.5546430000000  0.5644330000000 1.0
C      1  0.5153790000000  0.4453570000000  0.4355670000000 1.0
C      1  0.4846210000000  0.5546430000000  0.4355670000000 1.0
C      1  0.4355670000000  0.5153790000000  0.4453570000000 1.0
C      1  0.4355670000000  0.4846210000000  0.5546430000000 1.0
C      1  0.5644330000000  0.5153790000000  0.5546430000000 1.0
C      1  0.5693720000000  0.5163690000000  0.5273090000000 1.0
C      1  0.5163690000000  0.5273090000000  0.5693720000000 1.0
C      1  0.5273090000000  0.5693720000000  0.5163690000000 1.0
C      1  0.4306280000000  0.4836310000000  0.5273090000000 1.0
C      1  0.5693720000000  0.4836310000000  0.4726910000000 1.0
C      1  0.4306280000000  0.5163690000000  0.4726910000000 1.0
C      1  0.4836310000000  0.4726910000000  0.5693720000000 1.0
C      1  0.5163690000000  0.4726910000000  0.4306280000000 1.0
C      1  0.4836310000000  0.5273090000000  0.4306280000000 1.0
C      1  0.4726910000000  0.4306280000000  0.5163690000000 1.0
C      1  0.5273090000000  0.4306280000000  0.4836310000000 1.0
C      1  0.4726910000000  0.5693720000000  0.4836310000000 1.0
C      1  0.5163690000000  0.5693720000000  0.5273090000000 1.0
C      1  0.5273090000000  0.5163690000000  0.5693720000000 1.0
C      1  0.5693720000000  0.5273090000000  0.5163690000000 1.0
C      1  0.4836310000000  0.4306280000000  0.5273090000000 1.0
C      1  0.4836310000000  0.5693720000000  0.4726910000000 1.0
C      1  0.5163690000000  0.4306280000000  0.4726910000000 1.0
C      1  0.4726910000000  0.4836310000000  0.5693720000000 1.0
C      1  0.4726910000000  0.5163690000000  0.4306280000000 1.0
C      1  0.5273090000000  0.4836310000000  0.4306280000000 1.0
C      1  0.4306280000000  0.4726910000000  0.5163690000000 1.0
C      1  0.4306280000000  0.5273090000000  0.4836310000000 1.0
C      1  0.5693720000000  0.4726910000000  0.4836310000000 1.0
C      1  0.5072730000000  0.4326050000000  0.5289050000000 1.0
C      1  0.4326050000000  0.5289050000000  0.5072730000000 1.0
C      1  0.5289050000000  0.5072730000000  0.4326050000000 1.0
C      1  0.4927270000000  0.5673950000000  0.5289050000000 1.0
C      1  0.5072730000000  0.5673950000000  0.4710950000000 1.0
C      1  0.4927270000000  0.4326050000000  0.4710950000000 1.0
C      1  0.5673950000000  0.4710950000000  0.5072730000000 1.0
C      1  0.4326050000000  0.4710950000000  0.4927270000000 1.0
C      1  0.5673950000000  0.5289050000000  0.4927270000000 1.0
C      1  0.4710950000000  0.4927270000000  0.4326050000000 1.0
C      1  0.5289050000000  0.4927270000000  0.5673950000000 1.0
C      1  0.4710950000000  0.5072730000000  0.5673950000000 1.0
C      1  0.4326050000000  0.5072730000000  0.5289050000000 1.0
C      1  0.5289050000000  0.4326050000000  0.5072730000000 1.0
C      1  0.5072730000000  0.5289050000000  0.4326050000000 1.0
C      1  0.5673950000000  0.4927270000000  0.5289050000000 1.0
C      1  0.5673950000000  0.5072730000000  0.4710950000000 1.0
C      1  0.4326050000000  0.4927270000000  0.4710950000000 1.0
C      1  0.4710950000000  0.5673950000000  0.5072730000000 1.0
C      1  0.4710950000000  0.4326050000000  0.4927270000000 1.0
C      1  0.5289050000000  0.5673950000000  0.4927270000000 1.0
C      1  0.4927270000000  0.4710950000000  0.4326050000000 1.0
C      1  0.4927270000000  0.5289050000000  0.5673950000000 1.0
C      1  0.5072730000000  0.4710950000000  0.5673950000000 1.0
C      1  0.4484300000000  0.5405430000000  0.4705130000000 1.0
C      1  0.5405430000000  0.4705130000000  0.4484300000000 1.0
C      1  0.4705130000000  0.4484300000000  0.5405430000000 1.0
C      1  0.5515700000000  0.4594570000000  0.4705130000000 1.0
C      1  0.4484300000000  0.4594570000000  0.5294870000000 1.0
C      1  0.5515700000000  0.5405430000000  0.5294870000000 1.0
C      1  0.4594570000000  0.5294870000000  0.4484300000000 1.0
C      1  0.5405430000000  0.5294870000000  0.5515700000000 1.0
C      1  0.4594570000000  0.4705130000000  0.5515700000000 1.0
C      1  0.5294870000000  0.5515700000000  0.5405430000000 1.0
C      1  0.4705130000000  0.5515700000000  0.4594570000000 1.0
C      1  0.5294870000000  0.4484300000000  0.4594570000000 1.0
C      1  0.5405430000000  0.4484300000000  0.4705130000000 1.0
C      1  0.4705130000000  0.5405430000000  0.4484300000000 1.0
C      1  0.4484300000000  0.4705130000000  0.5405430000000 1.0
C      1  0.4594570000000  0.5515700000000  0.4705130000000 1.0
C      1  0.4594570000000  0.4484300000000  0.5294870000000 1.0
C      1  0.5405430000000  0.5515700000000  0.5294870000000 1.0
C      1  0.5294870000000  0.4594570000000  0.4484300000000 1.0
C      1  0.5294870000000  0.5405430000000  0.5515700000000 1.0
C      1  0.4705130000000  0.4594570000000  0.5515700000000 1.0
C      1  0.5515700000000  0.5294870000000  0.5405430000000 1.0
C      1  0.5515700000000  0.4705130000000  0.4594570000000 1.0
C      1  0.4484300000000  0.5294870000000  0.4594570000000 1.0
C      1  0.4640730000000  0.4539320000000  0.4437830000000 1.0
C      1  0.4539320000000  0.4437830000000  0.4640730000000 1.0
C      1  0.4437830000000  0.4640730000000  0.4539320000000 1.0
C      1  0.5359270000000  0.5460680000000  0.4437830000000 1.0
C      1  0.4640730000000  0.5460680000000  0.5562170000000 1.0
C      1  0.5359270000000  0.4539320000000  0.5562170000000 1.0
C      1  0.5460680000000  0.5562170000000  0.4640730000000 1.0
C      1  0.4539320000000  0.5562170000000  0.5359270000000 1.0
C      1  0.5460680000000  0.4437830000000  0.5359270000000 1.0
C      1  0.5562170000000  0.5359270000000  0.4539320000000 1.0
C      1  0.4437830000000  0.5359270000000  0.5460680000000 1.0
C      1  0.5562170000000  0.4640730000000  0.5460680000000 1.0
C      1  0.4539320000000  0.4640730000000  0.4437830000000 1.0
C      1  0.4437830000000  0.4539320000000  0.4640730000000 1.0
C      1  0.4640730000000  0.4437830000000  0.4539320000000 1.0
C      1  0.5460680000000  0.5359270000000  0.4437830000000 1.0
C      1  0.5460680000000  0.4640730000000  0.5562170000000 1.0
C      1  0.4539320000000  0.5359270000000  0.5562170000000 1.0
C      1  0.5562170000000  0.5460680000000  0.4640730000000 1.0
C      1  0.5562170000000  0.4539320000000  0.5359270000000 1.0
C      1  0.4437830000000  0.5460680000000  0.5359270000000 1.0
C      1  0.5359270000000  0.5562170000000  0.4539320000000 1.0
C      1  0.5359270000000  0.4437830000000  0.5460680000000 1.0
C      1  0.4640730000000  0.5562170000000  0.5460680000000 1.0
C      1  0.5418230000000  0.4916010000000  0.5623040000000 1.0
C      1  0.4916010000000  0.5623040000000  0.5418230000000 1.0
C      1  0.5623040000000  0.5418230000000  0.4916010000000 1.0
C      1  0.4581770000000  0.5083990000000  0.5623040000000 1.0
C      1  0.5418230000000  0.5083990000000  0.4376960000000 1.0
C      1  0.4581770000000  0.4916010000000  0.4376960000000 1.0
C      1  0.5083990000000  0.4376960000000  0.5418230000000 1.0
C      1  0.4916010000000  0.4376960000000  0.4581770000000 1.0
C      1  0.5083990000000  0.5623040000000  0.4581770000000 1.0
C      1  0.4376960000000  0.4581770000000  0.4916010000000 1.0
C      1  0.5623040000000  0.4581770000000  0.5083990000000 1.0
C      1  0.4376960000000  0.5418230000000  0.5083990000000 1.0
C      1  0.4916010000000  0.5418230000000  0.5623040000000 1.0
C      1  0.5623040000000  0.4916010000000  0.5418230000000 1.0
C      1  0.5418230000000  0.5623040000000  0.4916010000000 1.0
C      1  0.5083990000000  0.4581770000000  0.5623040000000 1.0
C      1  0.5083990000000  0.5418230000000  0.4376960000000 1.0
C      1  0.4916010000000  0.4581770000000  0.4376960000000 1.0
C      1  0.4376960000000  0.5083990000000  0.5418230000000 1.0
C      1  0.4376960000000  0.4916010000000  0.4581770000000 1.0
C      1  0.5623040000000  0.5083990000000  0.4581770000000 1.0
C      1  0.4581770000000  0.4376960000000  0.4916010000000 1.0
C      1  0.4581770000000  0.5623040000000  0.5083990000000 1.0
C      1  0.5418230000000  0.4376960000000  0.5083990000000 1.0
C      1  0.4434340000000  0.4916640000000  0.4813490000000 1.0
C      1  0.4916640000000  0.4813490000000  0.4434340000000 1.0
C      1  0.4813490000000  0.4434340000000  0.4916640000000 1.0
C      1  0.5565660000000  0.5083360000000  0.4813490000000 1.0
C      1  0.4434340000000  0.5083360000000  0.5186510000000 1.0
C      1  0.5565660000000  0.4916640000000  0.5186510000000 1.0
C      1  0.5083360000000  0.5186510000000  0.4434340000000 1.0
C      1  0.4916640000000  0.5186510000000  0.5565660000000 1.0
C      1  0.5083360000000  0.4813490000000  0.5565660000000 1.0
C      1  0.5186510000000  0.5565660000000  0.4916640000000 1.0
C      1  0.4813490000000  0.5565660000000  0.5083360000000 1.0
C      1  0.5186510000000  0.4434340000000  0.5083360000000 1.0
C      1  0.4916640000000  0.4434340000000  0.4813490000000 1.0
C      1  0.4813490000000  0.4916640000000  0.4434340000000 1.0
C      1  0.4434340000000  0.4813490000000  0.4916640000000 1.0
C      1  0.5083360000000  0.5565660000000  0.4813490000000 1.0
C      1  0.5083360000000  0.4434340000000  0.5186510000000 1.0
C      1  0.4916640000000  0.5565660000000  0.5186510000000 1.0
C      1  0.5186510000000  0.5083360000000  0.4434340000000 1.0
C      1  0.5186510000000  0.4916640000000  0.5565660000000 1.0
C      1  0.4813490000000  0.5083360000000  0.5565660000000 1.0
C      1  0.5565660000000  0.5186510000000  0.4916640000000 1.0
C      1  0.5565660000000  0.4813490000000  0.5083360000000 1.0
C      1  0.4434340000000  0.5186510000000  0.5083360000000 1.0
C      1  0.4248350000000  0.5269270000000  0.4632390000000 1.0
C      1  0.5269270000000  0.4632390000000  0.4248350000000 1.0
C      1  0.4632390000000  0.4248350000000  0.5269270000000 1.0
C      1  0.5751650000000  0.4730730000000  0.4632390000000 1.0
C      1  0.4248350000000  0.4730730000000  0.5367610000000 1.0
C      1  0.5751650000000  0.5269270000000  0.5367610000000 1.0
C      1  0.4730730000000  0.5367610000000  0.4248350000000 1.0
C      1  0.5269270000000  0.5367610000000  0.5751650000000 1.0
C      1  0.4730730000000  0.4632390000000  0.5751650000000 1.0
C      1  0.5367610000000  0.5751650000000  0.5269270000000 1.0
C      1  0.4632390000000  0.5751650000000  0.4730730000000 1.0
C      1  0.5367610000000  0.4248350000000  0.4730730000000 1.0
C      1  0.5269270000000  0.4248350000000  0.4632390000000 1.0
C      1  0.4632390000000  0.5269270000000  0.4248350000000 1.0
C      1  0.4248350000000  0.4632390000000  0.5269270000000 1.0
C      1  0.4730730000000  0.5751650000000  0.4632390000000 1.0
C      1  0.4730730000000  0.4248350000000  0.5367610000000 1.0
C      1  0.5269270000000  0.5751650000000  0.5367610000000 1.0
C      1  0.5367610000000  0.4730730000000  0.4248350000000 1.0
C      1  0.5367610000000  0.5269270000000  0.5751650000000 1.0
C      1  0.4632390000000  0.4730730000000  0.5751650000000 1.0
C      1  0.5751650000000  0.5367610000000  0.5269270000000 1.0
C      1  0.5751650000000  0.4632390000000  0.4730730000000 1.0
C      1  0.4248350000000  0.5367610000000  0.4730730000000 1.0
C      1  0.5798550000000  0.5002010000000  0.5103150000000 1.0
C      1  0.5002010000000  0.5103150000000  0.5798550000000 1.0
C      1  0.5103150000000  0.5798550000000  0.5002010000000 1.0
C      1  0.4201450000000  0.4997990000000  0.5103150000000 1.0
C      1  0.5798550000000  0.4997990000000  0.4896850000000 1.0
C      1  0.4201450000000  0.5002010000000  0.4896850000000 1.0
C      1  0.4997990000000  0.4896850000000  0.5798550000000 1.0
C      1  0.5002010000000  0.4896850000000  0.4201450000000 1.0
C      1  0.4997990000000  0.5103150000000  0.4201450000000 1.0
C      1  0.4896850000000  0.4201450000000  0.5002010000000 1.0
C      1  0.5103150000000  0.4201450000000  0.4997990000000 1.0
C      1  0.4896850000000  0.5798550000000  0.4997990000000 1.0
C      1  0.5002010000000  0.5798550000000  0.5103150000000 1.0
C      1  0.5103150000000  0.5002010000000  0.5798550000000 1.0
C      1  0.5798550000000  0.5103150000000  0.5002010000000 1.0
C      1  0.4997990000000  0.4201450000000  0.5103150000000 1.0
C      1  0.4997990000000  0.5798550000000  0.4896850000000 1.0
C      1  0.5002010000000  0.4201450000000  0.4896850000000 1.0
C      1  0.4896850000000  0.4997990000000  0.5798550000000 1.0
C      1  0.4896850000000  0.5002010000000  0.4201450000000 1.0
C      1  0.5103150000000  0.4997990000000  0.4201450000000 1.0
C      1  0.4201450000000  0.4896850000000  0.5002010000000 1.0
C      1  0.4201450000000  0.5103150000000  0.4997990000000 1.0
C      1  0.5798550000000  0.4896850000000  0.4997990000000 1.0
END
