TITL C-1887020-2221-4 -8.11692262748113e-07 1000000 -4249.59059419738 0 0 600 (Td) n - 1
REM
REM in /nfs/bkarasulu/CARBON/AIRSS/Generating-Clusters/GAP-ML-2020/Higher-Symm/Selected-Sizes/TryA-Only_Ih-Symm/Larger-Clusters
REM
REM
REM
REM
REM
REM ./C.cell (2cf5181f0f1d4d5b12b972d32ad12063)
REM
REM compiler GCC version 9.2.1 20190827 (Red Hat 9.2.1-1)
REM options -cpp -mtune=generic -march=x86-64 -g -O0 -fpre-include=/usr/include/finclude/math-vector-fortran.h
REM seed -699598670 -219562334 -1370362746 1561903862 1152479638 1779009925 -1781626396 -755067356 886633730 533335375 1112196281 -363229814 -1998863983 1188090524 493091289 -1512604777 -1700385673 924344014 -1841211120 -452176245 -290183101 -439843256 145645545 -1948152059 610111593 1680104083 149764673 -472610887 657099056 -1858663348 -847954231 801788042 -555437708
REM
CELL 1.54180  100.00000  100.00000  100.00000   90.00000   90.00000   90.00000
LATT -1
SFAC C  
C      1  0.5722940000000  0.5363330000000  0.4814120000000 1.0
C      1  0.5363330000000  0.4814120000000  0.5722940000000 1.0
C      1  0.4814120000000  0.5722940000000  0.5363330000000 1.0
C      1  0.4277060000000  0.4636670000000  0.4814120000000 1.0
C      1  0.5722940000000  0.4636670000000  0.5185880000000 1.0
C      1  0.4277060000000  0.5363330000000  0.5185880000000 1.0
C      1  0.4636670000000  0.5185880000000  0.5722940000000 1.0
C      1  0.5363330000000  0.5185880000000  0.4277060000000 1.0
C      1  0.4636670000000  0.4814120000000  0.4277060000000 1.0
C      1  0.5185880000000  0.4277060000000  0.5363330000000 1.0
C      1  0.4814120000000  0.4277060000000  0.4636670000000 1.0
C      1  0.5185880000000  0.5722940000000  0.4636670000000 1.0
C      1  0.5363330000000  0.5722940000000  0.4814120000000 1.0
C      1  0.4814120000000  0.5363330000000  0.5722940000000 1.0
C      1  0.5722940000000  0.4814120000000  0.5363330000000 1.0
C      1  0.4636670000000  0.4277060000000  0.4814120000000 1.0
C      1  0.4636670000000  0.5722940000000  0.5185880000000 1.0
C      1  0.5363330000000  0.4277060000000  0.5185880000000 1.0
C      1  0.5185880000000  0.4636670000000  0.5722940000000 1.0
C      1  0.5185880000000  0.5363330000000  0.4277060000000 1.0
C      1  0.4814120000000  0.4636670000000  0.4277060000000 1.0
C      1  0.4277060000000  0.5185880000000  0.5363330000000 1.0
C      1  0.4277060000000  0.4814120000000  0.4636670000000 1.0
C      1  0.5722940000000  0.5185880000000  0.4636670000000 1.0
C      1  0.5112520000000  0.5000700000000  0.5227040000000 1.0
C      1  0.5000700000000  0.5227040000000  0.5112520000000 1.0
C      1  0.5227040000000  0.5112520000000  0.5000700000000 1.0
C      1  0.4887480000000  0.4999300000000  0.5227040000000 1.0
C      1  0.5112520000000  0.4999300000000  0.4772960000000 1.0
C      1  0.4887480000000  0.5000700000000  0.4772960000000 1.0
C      1  0.4999300000000  0.4772960000000  0.5112520000000 1.0
C      1  0.5000700000000  0.4772960000000  0.4887480000000 1.0
C      1  0.4999300000000  0.5227040000000  0.4887480000000 1.0
C      1  0.4772960000000  0.4887480000000  0.5000700000000 1.0
C      1  0.5227040000000  0.4887480000000  0.4999300000000 1.0
C      1  0.4772960000000  0.5112520000000  0.4999300000000 1.0
C      1  0.5000700000000  0.5112520000000  0.5227040000000 1.0
C      1  0.5227040000000  0.5000700000000  0.5112520000000 1.0
C      1  0.5112520000000  0.5227040000000  0.5000700000000 1.0
C      1  0.4999300000000  0.4887480000000  0.5227040000000 1.0
C      1  0.4999300000000  0.5112520000000  0.4772960000000 1.0
C      1  0.5000700000000  0.4887480000000  0.4772960000000 1.0
C      1  0.4772960000000  0.4999300000000  0.5112520000000 1.0
C      1  0.4772960000000  0.5000700000000  0.4887480000000 1.0
C      1  0.5227040000000  0.4999300000000  0.4887480000000 1.0
C      1  0.4887480000000  0.4772960000000  0.5000700000000 1.0
C      1  0.4887480000000  0.5227040000000  0.4999300000000 1.0
C      1  0.5112520000000  0.4772960000000  0.4999300000000 1.0
C      1  0.4513180000000  0.5205080000000  0.5300690000000 1.0
C      1  0.5205080000000  0.5300690000000  0.4513180000000 1.0
C      1  0.5300690000000  0.4513180000000  0.5205080000000 1.0
C      1  0.5486820000000  0.4794920000000  0.5300690000000 1.0
C      1  0.4513180000000  0.4794920000000  0.4699310000000 1.0
C      1  0.5486820000000  0.5205080000000  0.4699310000000 1.0
C      1  0.4794920000000  0.4699310000000  0.4513180000000 1.0
C      1  0.5205080000000  0.4699310000000  0.5486820000000 1.0
C      1  0.4794920000000  0.5300690000000  0.5486820000000 1.0
C      1  0.4699310000000  0.5486820000000  0.5205080000000 1.0
C      1  0.5300690000000  0.5486820000000  0.4794920000000 1.0
C      1  0.4699310000000  0.4513180000000  0.4794920000000 1.0
C      1  0.5205080000000  0.4513180000000  0.5300690000000 1.0
C      1  0.5300690000000  0.5205080000000  0.4513180000000 1.0
C      1  0.4513180000000  0.5300690000000  0.5205080000000 1.0
C      1  0.4794920000000  0.5486820000000  0.5300690000000 1.0
C      1  0.4794920000000  0.4513180000000  0.4699310000000 1.0
C      1  0.5205080000000  0.5486820000000  0.4699310000000 1.0
C      1  0.4699310000000  0.4794920000000  0.4513180000000 1.0
C      1  0.4699310000000  0.5205080000000  0.5486820000000 1.0
C      1  0.5300690000000  0.4794920000000  0.5486820000000 1.0
C      1  0.5486820000000  0.4699310000000  0.5205080000000 1.0
C      1  0.5486820000000  0.5300690000000  0.4794920000000 1.0
C      1  0.4513180000000  0.4699310000000  0.4794920000000 1.0
C      1  0.4641450000000  0.4193370000000  0.5077390000000 1.0
C      1  0.4193370000000  0.5077390000000  0.4641450000000 1.0
C      1  0.5077390000000  0.4641450000000  0.4193370000000 1.0
C      1  0.5358550000000  0.5806630000000  0.5077390000000 1.0
C      1  0.4641450000000  0.5806630000000  0.4922610000000 1.0
C      1  0.5358550000000  0.4193370000000  0.4922610000000 1.0
C      1  0.5806630000000  0.4922610000000  0.4641450000000 1.0
C      1  0.4193370000000  0.4922610000000  0.5358550000000 1.0
C      1  0.5806630000000  0.5077390000000  0.5358550000000 1.0
C      1  0.4922610000000  0.5358550000000  0.4193370000000 1.0
C      1  0.5077390000000  0.5358550000000  0.5806630000000 1.0
C      1  0.4922610000000  0.4641450000000  0.5806630000000 1.0
C      1  0.4193370000000  0.4641450000000  0.5077390000000 1.0
C      1  0.5077390000000  0.4193370000000  0.4641450000000 1.0
C      1  0.4641450000000  0.5077390000000  0.4193370000000 1.0
C      1  0.5806630000000  0.5358550000000  0.5077390000000 1.0
C      1  0.5806630000000  0.4641450000000  0.4922610000000 1.0
C      1  0.4193370000000  0.5358550000000  0.4922610000000 1.0
C      1  0.4922610000000  0.5806630000000  0.4641450000000 1.0
C      1  0.4922610000000  0.4193370000000  0.5358550000000 1.0
C      1  0.5077390000000  0.5806630000000  0.5358550000000 1.0
C      1  0.5358550000000  0.4922610000000  0.4193370000000 1.0
C      1  0.5358550000000  0.5077390000000  0.5806630000000 1.0
C      1  0.4641450000000  0.4922610000000  0.5806630000000 1.0
C      1  0.4886350000000  0.5502200000000  0.5007510000000 1.0
C      1  0.5502200000000  0.5007510000000  0.4886350000000 1.0
C      1  0.5007510000000  0.4886350000000  0.5502200000000 1.0
C      1  0.5113650000000  0.4497800000000  0.5007510000000 1.0
C      1  0.4886350000000  0.4497800000000  0.4992490000000 1.0
C      1  0.5113650000000  0.5502200000000  0.4992490000000 1.0
C      1  0.4497800000000  0.4992490000000  0.4886350000000 1.0
C      1  0.5502200000000  0.4992490000000  0.5113650000000 1.0
C      1  0.4497800000000  0.5007510000000  0.5113650000000 1.0
C      1  0.4992490000000  0.5113650000000  0.5502200000000 1.0
C      1  0.5007510000000  0.5113650000000  0.4497800000000 1.0
C      1  0.4992490000000  0.4886350000000  0.4497800000000 1.0
C      1  0.5502200000000  0.4886350000000  0.5007510000000 1.0
C      1  0.5007510000000  0.5502200000000  0.4886350000000 1.0
C      1  0.4886350000000  0.5007510000000  0.5502200000000 1.0
C      1  0.4497800000000  0.5113650000000  0.5007510000000 1.0
C      1  0.4497800000000  0.4886350000000  0.4992490000000 1.0
C      1  0.5502200000000  0.5113650000000  0.4992490000000 1.0
C      1  0.4992490000000  0.4497800000000  0.4886350000000 1.0
C      1  0.4992490000000  0.5502200000000  0.5113650000000 1.0
C      1  0.5007510000000  0.4497800000000  0.5113650000000 1.0
C      1  0.5113650000000  0.4992490000000  0.5502200000000 1.0
C      1  0.5113650000000  0.5007510000000  0.4497800000000 1.0
C      1  0.4886350000000  0.4992490000000  0.4497800000000 1.0
C      1  0.4764890000000  0.4656800000000  0.5451620000000 1.0
C      1  0.4656800000000  0.5451620000000  0.4764890000000 1.0
C      1  0.5451620000000  0.4764890000000  0.4656800000000 1.0
C      1  0.5235110000000  0.5343200000000  0.5451620000000 1.0
C      1  0.4764890000000  0.5343200000000  0.4548380000000 1.0
C      1  0.5235110000000  0.4656800000000  0.4548380000000 1.0
C      1  0.5343200000000  0.4548380000000  0.4764890000000 1.0
C      1  0.4656800000000  0.4548380000000  0.5235110000000 1.0
C      1  0.5343200000000  0.5451620000000  0.5235110000000 1.0
C      1  0.4548380000000  0.5235110000000  0.4656800000000 1.0
C      1  0.5451620000000  0.5235110000000  0.5343200000000 1.0
C      1  0.4548380000000  0.4764890000000  0.5343200000000 1.0
C      1  0.4656800000000  0.4764890000000  0.5451620000000 1.0
C      1  0.5451620000000  0.4656800000000  0.4764890000000 1.0
C      1  0.4764890000000  0.5451620000000  0.4656800000000 1.0
C      1  0.5343200000000  0.5235110000000  0.5451620000000 1.0
C      1  0.5343200000000  0.4764890000000  0.4548380000000 1.0
C      1  0.4656800000000  0.5235110000000  0.4548380000000 1.0
C      1  0.4548380000000  0.5343200000000  0.4764890000000 1.0
C      1  0.4548380000000  0.4656800000000  0.5235110000000 1.0
C      1  0.5451620000000  0.5343200000000  0.5235110000000 1.0
C      1  0.5235110000000  0.4548380000000  0.4656800000000 1.0
C      1  0.5235110000000  0.5451620000000  0.5343200000000 1.0
C      1  0.4764890000000  0.4548380000000  0.5343200000000 1.0
C      1  0.5310820000000  0.5409380000000  0.4231750000000 1.0
C      1  0.5409380000000  0.4231750000000  0.5310820000000 1.0
C      1  0.4231750000000  0.5310820000000  0.5409380000000 1.0
C      1  0.4689180000000  0.4590620000000  0.4231750000000 1.0
C      1  0.5310820000000  0.4590620000000  0.5768250000000 1.0
C      1  0.4689180000000  0.5409380000000  0.5768250000000 1.0
C      1  0.4590620000000  0.5768250000000  0.5310820000000 1.0
C      1  0.5409380000000  0.5768250000000  0.4689180000000 1.0
C      1  0.4590620000000  0.4231750000000  0.4689180000000 1.0
C      1  0.5768250000000  0.4689180000000  0.5409380000000 1.0
C      1  0.4231750000000  0.4689180000000  0.4590620000000 1.0
C      1  0.5768250000000  0.5310820000000  0.4590620000000 1.0
C      1  0.5409380000000  0.5310820000000  0.4231750000000 1.0
C      1  0.4231750000000  0.5409380000000  0.5310820000000 1.0
C      1  0.5310820000000  0.4231750000000  0.5409380000000 1.0
C      1  0.4590620000000  0.4689180000000  0.4231750000000 1.0
C      1  0.4590620000000  0.5310820000000  0.5768250000000 1.0
C      1  0.5409380000000  0.4689180000000  0.5768250000000 1.0
C      1  0.5768250000000  0.4590620000000  0.5310820000000 1.0
C      1  0.5768250000000  0.5409380000000  0.4689180000000 1.0
C      1  0.4231750000000  0.4590620000000  0.4689180000000 1.0
C      1  0.4689180000000  0.5768250000000  0.5409380000000 1.0
C      1  0.4689180000000  0.4231750000000  0.4590620000000 1.0
C      1  0.5310820000000  0.5768250000000  0.4590620000000 1.0
C      1  0.4518560000000  0.4912560000000  0.5598050000000 1.0
C      1  0.4912560000000  0.5598050000000  0.4518560000000 1.0
C      1  0.5598050000000  0.4518560000000  0.4912560000000 1.0
C      1  0.5481440000000  0.5087440000000  0.5598050000000 1.0
C      1  0.4518560000000  0.5087440000000  0.4401950000000 1.0
C      1  0.5481440000000  0.4912560000000  0.4401950000000 1.0
C      1  0.5087440000000  0.4401950000000  0.4518560000000 1.0
C      1  0.4912560000000  0.4401950000000  0.5481440000000 1.0
C      1  0.5087440000000  0.5598050000000  0.5481440000000 1.0
C      1  0.4401950000000  0.5481440000000  0.4912560000000 1.0
C      1  0.5598050000000  0.5481440000000  0.5087440000000 1.0
C      1  0.4401950000000  0.4518560000000  0.5087440000000 1.0
C      1  0.4912560000000  0.4518560000000  0.5598050000000 1.0
C      1  0.5598050000000  0.4912560000000  0.4518560000000 1.0
C      1  0.4518560000000  0.5598050000000  0.4912560000000 1.0
C      1  0.5087440000000  0.5481440000000  0.5598050000000 1.0
C      1  0.5087440000000  0.4518560000000  0.4401950000000 1.0
C      1  0.4912560000000  0.5481440000000  0.4401950000000 1.0
C      1  0.4401950000000  0.5087440000000  0.4518560000000 1.0
C      1  0.4401950000000  0.4912560000000  0.5481440000000 1.0
C      1  0.5598050000000  0.5087440000000  0.5481440000000 1.0
C      1  0.5481440000000  0.4401950000000  0.4912560000000 1.0
C      1  0.5481440000000  0.5598050000000  0.5087440000000 1.0
C      1  0.4518560000000  0.4401950000000  0.5087440000000 1.0
C      1  0.5370140000000  0.5187520000000  0.5000530000000 1.0
C      1  0.5187520000000  0.5000530000000  0.5370140000000 1.0
C      1  0.5000530000000  0.5370140000000  0.5187520000000 1.0
C      1  0.4629860000000  0.4812480000000  0.5000530000000 1.0
C      1  0.5370140000000  0.4812480000000  0.4999470000000 1.0
C      1  0.4629860000000  0.5187520000000  0.4999470000000 1.0
C      1  0.4812480000000  0.4999470000000  0.5370140000000 1.0
C      1  0.5187520000000  0.4999470000000  0.4629860000000 1.0
C      1  0.4812480000000  0.5000530000000  0.4629860000000 1.0
C      1  0.4999470000000  0.4629860000000  0.5187520000000 1.0
C      1  0.5000530000000  0.4629860000000  0.4812480000000 1.0
C      1  0.4999470000000  0.5370140000000  0.4812480000000 1.0
C      1  0.5187520000000  0.5370140000000  0.5000530000000 1.0
C      1  0.5000530000000  0.5187520000000  0.5370140000000 1.0
C      1  0.5370140000000  0.5000530000000  0.5187520000000 1.0
C      1  0.4812480000000  0.4629860000000  0.5000530000000 1.0
C      1  0.4812480000000  0.5370140000000  0.4999470000000 1.0
C      1  0.5187520000000  0.4629860000000  0.4999470000000 1.0
C      1  0.4999470000000  0.4812480000000  0.5370140000000 1.0
C      1  0.4999470000000  0.5187520000000  0.4629860000000 1.0
C      1  0.5000530000000  0.4812480000000  0.4629860000000 1.0
C      1  0.4629860000000  0.4999470000000  0.5187520000000 1.0
C      1  0.4629860000000  0.5000530000000  0.4812480000000 1.0
C      1  0.5370140000000  0.4999470000000  0.4812480000000 1.0
C      1  0.4594280000000  0.4419050000000  0.5207910000000 1.0
C      1  0.4419050000000  0.5207910000000  0.4594280000000 1.0
C      1  0.5207910000000  0.4594280000000  0.4419050000000 1.0
C      1  0.5405720000000  0.5580950000000  0.5207910000000 1.0
C      1  0.4594280000000  0.5580950000000  0.4792090000000 1.0
C      1  0.5405720000000  0.4419050000000  0.4792090000000 1.0
C      1  0.5580950000000  0.4792090000000  0.4594280000000 1.0
C      1  0.4419050000000  0.4792090000000  0.5405720000000 1.0
C      1  0.5580950000000  0.5207910000000  0.5405720000000 1.0
C      1  0.4792090000000  0.5405720000000  0.4419050000000 1.0
C      1  0.5207910000000  0.5405720000000  0.5580950000000 1.0
C      1  0.4792090000000  0.4594280000000  0.5580950000000 1.0
C      1  0.4419050000000  0.4594280000000  0.5207910000000 1.0
C      1  0.5207910000000  0.4419050000000  0.4594280000000 1.0
C      1  0.4594280000000  0.5207910000000  0.4419050000000 1.0
C      1  0.5580950000000  0.5405720000000  0.5207910000000 1.0
C      1  0.5580950000000  0.4594280000000  0.4792090000000 1.0
C      1  0.4419050000000  0.5405720000000  0.4792090000000 1.0
C      1  0.4792090000000  0.5580950000000  0.4594280000000 1.0
C      1  0.4792090000000  0.4419050000000  0.5405720000000 1.0
C      1  0.5207910000000  0.5580950000000  0.5405720000000 1.0
C      1  0.5405720000000  0.4792090000000  0.4419050000000 1.0
C      1  0.5405720000000  0.5207910000000  0.5580950000000 1.0
C      1  0.4594280000000  0.4792090000000  0.5580950000000 1.0
C      1  0.4718050000000  0.5381400000000  0.4304750000000 1.0
C      1  0.5381400000000  0.4304750000000  0.4718050000000 1.0
C      1  0.4304750000000  0.4718050000000  0.5381400000000 1.0
C      1  0.5281950000000  0.4618600000000  0.4304750000000 1.0
C      1  0.4718050000000  0.4618600000000  0.5695250000000 1.0
C      1  0.5281950000000  0.5381400000000  0.5695250000000 1.0
C      1  0.4618600000000  0.5695250000000  0.4718050000000 1.0
C      1  0.5381400000000  0.5695250000000  0.5281950000000 1.0
C      1  0.4618600000000  0.4304750000000  0.5281950000000 1.0
C      1  0.5695250000000  0.5281950000000  0.5381400000000 1.0
C      1  0.4304750000000  0.5281950000000  0.4618600000000 1.0
C      1  0.5695250000000  0.4718050000000  0.4618600000000 1.0
C      1  0.5381400000000  0.4718050000000  0.4304750000000 1.0
C      1  0.4304750000000  0.5381400000000  0.4718050000000 1.0
C      1  0.4718050000000  0.4304750000000  0.5381400000000 1.0
C      1  0.4618600000000  0.5281950000000  0.4304750000000 1.0
C      1  0.4618600000000  0.4718050000000  0.5695250000000 1.0
C      1  0.5381400000000  0.5281950000000  0.5695250000000 1.0
C      1  0.5695250000000  0.4618600000000  0.4718050000000 1.0
C      1  0.5695250000000  0.5381400000000  0.5281950000000 1.0
C      1  0.4304750000000  0.4618600000000  0.5281950000000 1.0
C      1  0.5281950000000  0.5695250000000  0.5381400000000 1.0
C      1  0.5281950000000  0.4304750000000  0.4618600000000 1.0
C      1  0.4718050000000  0.5695250000000  0.4618600000000 1.0
C      1  0.5159790000000  0.5628010000000  0.5058650000000 1.0
C      1  0.5628010000000  0.5058650000000  0.5159790000000 1.0
C      1  0.5058650000000  0.5159790000000  0.5628010000000 1.0
C      1  0.4840210000000  0.4371990000000  0.5058650000000 1.0
C      1  0.5159790000000  0.4371990000000  0.4941350000000 1.0
C      1  0.4840210000000  0.5628010000000  0.4941350000000 1.0
C      1  0.4371990000000  0.4941350000000  0.5159790000000 1.0
C      1  0.5628010000000  0.4941350000000  0.4840210000000 1.0
C      1  0.4371990000000  0.5058650000000  0.4840210000000 1.0
C      1  0.4941350000000  0.4840210000000  0.5628010000000 1.0
C      1  0.5058650000000  0.4840210000000  0.4371990000000 1.0
C      1  0.4941350000000  0.5159790000000  0.4371990000000 1.0
C      1  0.5628010000000  0.5159790000000  0.5058650000000 1.0
C      1  0.5058650000000  0.5628010000000  0.5159790000000 1.0
C      1  0.5159790000000  0.5058650000000  0.5628010000000 1.0
C      1  0.4371990000000  0.4840210000000  0.5058650000000 1.0
C      1  0.4371990000000  0.5159790000000  0.4941350000000 1.0
C      1  0.5628010000000  0.4840210000000  0.4941350000000 1.0
C      1  0.4941350000000  0.4371990000000  0.5159790000000 1.0
C      1  0.4941350000000  0.5628010000000  0.4840210000000 1.0
C      1  0.5058650000000  0.4371990000000  0.4840210000000 1.0
C      1  0.4840210000000  0.4941350000000  0.5628010000000 1.0
C      1  0.4840210000000  0.5058650000000  0.4371990000000 1.0
C      1  0.5159790000000  0.4941350000000  0.4371990000000 1.0
C      1  0.5564870000000  0.5461010000000  0.4333930000000 1.0
C      1  0.5461010000000  0.4333930000000  0.5564870000000 1.0
C      1  0.4333930000000  0.5564870000000  0.5461010000000 1.0
C      1  0.4435130000000  0.4538990000000  0.4333930000000 1.0
C      1  0.5564870000000  0.4538990000000  0.5666070000000 1.0
C      1  0.4435130000000  0.5461010000000  0.5666070000000 1.0
C      1  0.4538990000000  0.5666070000000  0.5564870000000 1.0
C      1  0.5461010000000  0.5666070000000  0.4435130000000 1.0
C      1  0.4538990000000  0.4333930000000  0.4435130000000 1.0
C      1  0.5666070000000  0.4435130000000  0.5461010000000 1.0
C      1  0.4333930000000  0.4435130000000  0.4538990000000 1.0
C      1  0.5666070000000  0.5564870000000  0.4538990000000 1.0
C      1  0.5461010000000  0.5564870000000  0.4333930000000 1.0
C      1  0.4333930000000  0.5461010000000  0.5564870000000 1.0
C      1  0.5564870000000  0.4333930000000  0.5461010000000 1.0
C      1  0.4538990000000  0.4435130000000  0.4333930000000 1.0
C      1  0.4538990000000  0.5564870000000  0.5666070000000 1.0
C      1  0.5461010000000  0.4435130000000  0.5666070000000 1.0
C      1  0.5666070000000  0.4538990000000  0.5564870000000 1.0
C      1  0.5666070000000  0.5461010000000  0.4435130000000 1.0
C      1  0.4333930000000  0.4538990000000  0.4435130000000 1.0
C      1  0.4435130000000  0.5666070000000  0.5461010000000 1.0
C      1  0.4435130000000  0.4333930000000  0.4538990000000 1.0
C      1  0.5564870000000  0.5666070000000  0.4538990000000 1.0
C      1  0.4665330000000  0.5739090000000  0.5545150000000 1.0
C      1  0.5739090000000  0.5545150000000  0.4665330000000 1.0
C      1  0.5545150000000  0.4665330000000  0.5739090000000 1.0
C      1  0.5334670000000  0.4260910000000  0.5545150000000 1.0
C      1  0.4665330000000  0.4260910000000  0.4454850000000 1.0
C      1  0.5334670000000  0.5739090000000  0.4454850000000 1.0
C      1  0.4260910000000  0.4454850000000  0.4665330000000 1.0
C      1  0.5739090000000  0.4454850000000  0.5334670000000 1.0
C      1  0.4260910000000  0.5545150000000  0.5334670000000 1.0
C      1  0.4454850000000  0.5334670000000  0.5739090000000 1.0
C      1  0.5545150000000  0.5334670000000  0.4260910000000 1.0
C      1  0.4454850000000  0.4665330000000  0.4260910000000 1.0
C      1  0.5739090000000  0.4665330000000  0.5545150000000 1.0
C      1  0.5545150000000  0.5739090000000  0.4665330000000 1.0
C      1  0.4665330000000  0.5545150000000  0.5739090000000 1.0
C      1  0.4260910000000  0.5334670000000  0.5545150000000 1.0
C      1  0.4260910000000  0.4665330000000  0.4454850000000 1.0
C      1  0.5739090000000  0.5334670000000  0.4454850000000 1.0
C      1  0.4454850000000  0.4260910000000  0.4665330000000 1.0
C      1  0.4454850000000  0.5739090000000  0.5334670000000 1.0
C      1  0.5545150000000  0.4260910000000  0.5334670000000 1.0
C      1  0.5334670000000  0.4454850000000  0.5739090000000 1.0
C      1  0.5334670000000  0.5545150000000  0.4260910000000 1.0
C      1  0.4665330000000  0.4454850000000  0.4260910000000 1.0
C      1  0.5253960000000  0.4642000000000  0.5136610000000 1.0
C      1  0.4642000000000  0.5136610000000  0.5253960000000 1.0
C      1  0.5136610000000  0.5253960000000  0.4642000000000 1.0
C      1  0.4746040000000  0.5358000000000  0.5136610000000 1.0
C      1  0.5253960000000  0.5358000000000  0.4863390000000 1.0
C      1  0.4746040000000  0.4642000000000  0.4863390000000 1.0
C      1  0.5358000000000  0.4863390000000  0.5253960000000 1.0
C      1  0.4642000000000  0.4863390000000  0.4746040000000 1.0
C      1  0.5358000000000  0.5136610000000  0.4746040000000 1.0
C      1  0.4863390000000  0.4746040000000  0.4642000000000 1.0
C      1  0.5136610000000  0.4746040000000  0.5358000000000 1.0
C      1  0.4863390000000  0.5253960000000  0.5358000000000 1.0
C      1  0.4642000000000  0.5253960000000  0.5136610000000 1.0
C      1  0.5136610000000  0.4642000000000  0.5253960000000 1.0
C      1  0.5253960000000  0.5136610000000  0.4642000000000 1.0
C      1  0.5358000000000  0.4746040000000  0.5136610000000 1.0
C      1  0.5358000000000  0.5253960000000  0.4863390000000 1.0
C      1  0.4642000000000  0.4746040000000  0.4863390000000 1.0
C      1  0.4863390000000  0.5358000000000  0.5253960000000 1.0
C      1  0.4863390000000  0.4642000000000  0.4746040000000 1.0
C      1  0.5136610000000  0.5358000000000  0.4746040000000 1.0
C      1  0.4746040000000  0.4863390000000  0.4642000000000 1.0
C      1  0.4746040000000  0.5136610000000  0.5358000000000 1.0
C      1  0.5253960000000  0.4863390000000  0.5358000000000 1.0
C      1  0.5493720000000  0.5037430000000  0.5735140000000 1.0
C      1  0.5037430000000  0.5735140000000  0.5493720000000 1.0
C      1  0.5735140000000  0.5493720000000  0.5037430000000 1.0
C      1  0.4506280000000  0.4962570000000  0.5735140000000 1.0
C      1  0.5493720000000  0.4962570000000  0.4264860000000 1.0
C      1  0.4506280000000  0.5037430000000  0.4264860000000 1.0
C      1  0.4962570000000  0.4264860000000  0.5493720000000 1.0
C      1  0.5037430000000  0.4264860000000  0.4506280000000 1.0
C      1  0.4962570000000  0.5735140000000  0.4506280000000 1.0
C      1  0.4264860000000  0.4506280000000  0.5037430000000 1.0
C      1  0.5735140000000  0.4506280000000  0.4962570000000 1.0
C      1  0.4264860000000  0.5493720000000  0.4962570000000 1.0
C      1  0.5037430000000  0.5493720000000  0.5735140000000 1.0
C      1  0.5735140000000  0.5037430000000  0.5493720000000 1.0
C      1  0.5493720000000  0.5735140000000  0.5037430000000 1.0
C      1  0.4962570000000  0.4506280000000  0.5735140000000 1.0
C      1  0.4962570000000  0.5493720000000  0.4264860000000 1.0
C      1  0.5037430000000  0.4506280000000  0.4264860000000 1.0
C      1  0.4264860000000  0.4962570000000  0.5493720000000 1.0
C      1  0.4264860000000  0.5037430000000  0.4506280000000 1.0
C      1  0.5735140000000  0.4962570000000  0.4506280000000 1.0
C      1  0.4506280000000  0.4264860000000  0.5037430000000 1.0
C      1  0.4506280000000  0.5735140000000  0.4962570000000 1.0
C      1  0.5493720000000  0.4264860000000  0.4962570000000 1.0
C      1  0.5220570000000  0.4997670000000  0.4234130000000 1.0
C      1  0.4997670000000  0.4234130000000  0.5220570000000 1.0
C      1  0.4234130000000  0.5220570000000  0.4997670000000 1.0
C      1  0.4779430000000  0.5002330000000  0.4234130000000 1.0
C      1  0.5220570000000  0.5002330000000  0.5765870000000 1.0
C      1  0.4779430000000  0.4997670000000  0.5765870000000 1.0
C      1  0.5002330000000  0.5765870000000  0.5220570000000 1.0
C      1  0.4997670000000  0.5765870000000  0.4779430000000 1.0
C      1  0.5002330000000  0.4234130000000  0.4779430000000 1.0
C      1  0.5765870000000  0.4779430000000  0.4997670000000 1.0
C      1  0.4234130000000  0.4779430000000  0.5002330000000 1.0
C      1  0.5765870000000  0.5220570000000  0.5002330000000 1.0
C      1  0.4997670000000  0.5220570000000  0.4234130000000 1.0
C      1  0.4234130000000  0.4997670000000  0.5220570000000 1.0
C      1  0.5220570000000  0.4234130000000  0.4997670000000 1.0
C      1  0.5002330000000  0.4779430000000  0.4234130000000 1.0
C      1  0.5002330000000  0.5220570000000  0.5765870000000 1.0
C      1  0.4997670000000  0.4779430000000  0.5765870000000 1.0
C      1  0.5765870000000  0.5002330000000  0.5220570000000 1.0
C      1  0.5765870000000  0.4997670000000  0.4779430000000 1.0
C      1  0.4234130000000  0.5002330000000  0.4779430000000 1.0
C      1  0.4779430000000  0.5765870000000  0.4997670000000 1.0
C      1  0.4779430000000  0.4234130000000  0.5002330000000 1.0
C      1  0.5220570000000  0.5765870000000  0.5002330000000 1.0
C      1  0.5860560000000  0.4897800000000  0.5001530000000 1.0
C      1  0.4897800000000  0.5001530000000  0.5860560000000 1.0
C      1  0.5001530000000  0.5860560000000  0.4897800000000 1.0
C      1  0.4139440000000  0.5102200000000  0.5001530000000 1.0
C      1  0.5860560000000  0.5102200000000  0.4998470000000 1.0
C      1  0.4139440000000  0.4897800000000  0.4998470000000 1.0
C      1  0.5102200000000  0.4998470000000  0.5860560000000 1.0
C      1  0.4897800000000  0.4998470000000  0.4139440000000 1.0
C      1  0.5102200000000  0.5001530000000  0.4139440000000 1.0
C      1  0.4998470000000  0.4139440000000  0.4897800000000 1.0
C      1  0.5001530000000  0.4139440000000  0.5102200000000 1.0
C      1  0.4998470000000  0.5860560000000  0.5102200000000 1.0
C      1  0.4897800000000  0.5860560000000  0.5001530000000 1.0
C      1  0.5001530000000  0.4897800000000  0.5860560000000 1.0
C      1  0.5860560000000  0.5001530000000  0.4897800000000 1.0
C      1  0.5102200000000  0.4139440000000  0.5001530000000 1.0
C      1  0.5102200000000  0.5860560000000  0.4998470000000 1.0
C      1  0.4897800000000  0.4139440000000  0.4998470000000 1.0
C      1  0.4998470000000  0.5102200000000  0.5860560000000 1.0
C      1  0.4998470000000  0.4897800000000  0.4139440000000 1.0
C      1  0.5001530000000  0.5102200000000  0.4139440000000 1.0
C      1  0.4139440000000  0.4998470000000  0.4897800000000 1.0
C      1  0.4139440000000  0.5001530000000  0.5102200000000 1.0
C      1  0.5860560000000  0.4998470000000  0.5102200000000 1.0
C      1  0.5607030000000  0.5716350000000  0.4935460000000 1.0
C      1  0.5716350000000  0.4935460000000  0.5607030000000 1.0
C      1  0.4935460000000  0.5607030000000  0.5716350000000 1.0
C      1  0.4392970000000  0.4283650000000  0.4935460000000 1.0
C      1  0.5607030000000  0.4283650000000  0.5064540000000 1.0
C      1  0.4392970000000  0.5716350000000  0.5064540000000 1.0
C      1  0.4283650000000  0.5064540000000  0.5607030000000 1.0
C      1  0.5716350000000  0.5064540000000  0.4392970000000 1.0
C      1  0.4283650000000  0.4935460000000  0.4392970000000 1.0
C      1  0.5064540000000  0.4392970000000  0.5716350000000 1.0
C      1  0.4935460000000  0.4392970000000  0.4283650000000 1.0
C      1  0.5064540000000  0.5607030000000  0.4283650000000 1.0
C      1  0.5716350000000  0.5607030000000  0.4935460000000 1.0
C      1  0.4935460000000  0.5716350000000  0.5607030000000 1.0
C      1  0.5607030000000  0.4935460000000  0.5716350000000 1.0
C      1  0.4283650000000  0.4392970000000  0.4935460000000 1.0
C      1  0.4283650000000  0.5607030000000  0.5064540000000 1.0
C      1  0.5716350000000  0.4392970000000  0.5064540000000 1.0
C      1  0.5064540000000  0.4283650000000  0.5607030000000 1.0
C      1  0.5064540000000  0.5716350000000  0.4392970000000 1.0
C      1  0.4935460000000  0.4283650000000  0.4392970000000 1.0
C      1  0.4392970000000  0.5064540000000  0.5716350000000 1.0
C      1  0.4392970000000  0.4935460000000  0.4283650000000 1.0
C      1  0.5607030000000  0.5064540000000  0.4283650000000 1.0
C      1  0.5212600000000  0.4277670000000  0.5621190000000 1.0
C      1  0.4277670000000  0.5621190000000  0.5212600000000 1.0
C      1  0.5621190000000  0.5212600000000  0.4277670000000 1.0
C      1  0.4787400000000  0.5722330000000  0.5621190000000 1.0
C      1  0.5212600000000  0.5722330000000  0.4378810000000 1.0
C      1  0.4787400000000  0.4277670000000  0.4378810000000 1.0
C      1  0.5722330000000  0.4378810000000  0.5212600000000 1.0
C      1  0.4277670000000  0.4378810000000  0.4787400000000 1.0
C      1  0.5722330000000  0.5621190000000  0.4787400000000 1.0
C      1  0.4378810000000  0.4787400000000  0.4277670000000 1.0
C      1  0.5621190000000  0.4787400000000  0.5722330000000 1.0
C      1  0.4378810000000  0.5212600000000  0.5722330000000 1.0
C      1  0.4277670000000  0.5212600000000  0.5621190000000 1.0
C      1  0.5621190000000  0.4277670000000  0.5212600000000 1.0
C      1  0.5212600000000  0.5621190000000  0.4277670000000 1.0
C      1  0.5722330000000  0.4787400000000  0.5621190000000 1.0
C      1  0.5722330000000  0.5212600000000  0.4378810000000 1.0
C      1  0.4277670000000  0.4787400000000  0.4378810000000 1.0
C      1  0.4378810000000  0.5722330000000  0.5212600000000 1.0
C      1  0.4378810000000  0.4277670000000  0.4787400000000 1.0
C      1  0.5621190000000  0.5722330000000  0.4787400000000 1.0
C      1  0.4787400000000  0.4378810000000  0.4277670000000 1.0
C      1  0.4787400000000  0.5621190000000  0.5722330000000 1.0
C      1  0.5212600000000  0.4378810000000  0.5722330000000 1.0
C      1  0.4183880000000  0.5220570000000  0.4668980000000 1.0
C      1  0.5220570000000  0.4668980000000  0.4183880000000 1.0
C      1  0.4668980000000  0.4183880000000  0.5220570000000 1.0
C      1  0.5816120000000  0.4779430000000  0.4668980000000 1.0
C      1  0.4183880000000  0.4779430000000  0.5331020000000 1.0
C      1  0.5816120000000  0.5220570000000  0.5331020000000 1.0
C      1  0.4779430000000  0.5331020000000  0.4183880000000 1.0
C      1  0.5220570000000  0.5331020000000  0.5816120000000 1.0
C      1  0.4779430000000  0.4668980000000  0.5816120000000 1.0
C      1  0.5331020000000  0.5816120000000  0.5220570000000 1.0
C      1  0.4668980000000  0.5816120000000  0.4779430000000 1.0
C      1  0.5331020000000  0.4183880000000  0.4779430000000 1.0
C      1  0.5220570000000  0.4183880000000  0.4668980000000 1.0
C      1  0.4668980000000  0.5220570000000  0.4183880000000 1.0
C      1  0.4183880000000  0.4668980000000  0.5220570000000 1.0
C      1  0.4779430000000  0.5816120000000  0.4668980000000 1.0
C      1  0.4779430000000  0.4183880000000  0.5331020000000 1.0
C      1  0.5220570000000  0.5816120000000  0.5331020000000 1.0
C      1  0.5331020000000  0.4779430000000  0.4183880000000 1.0
C      1  0.5331020000000  0.5220570000000  0.5816120000000 1.0
C      1  0.4668980000000  0.4779430000000  0.5816120000000 1.0
C      1  0.5816120000000  0.5331020000000  0.5220570000000 1.0
C      1  0.5816120000000  0.4668980000000  0.4779430000000 1.0
C      1  0.4183880000000  0.5331020000000  0.4779430000000 1.0
C      1  0.5764190000000  0.5238670000000  0.4858280000000 1.0
C      1  0.5238670000000  0.4858280000000  0.5764190000000 1.0
C      1  0.4858280000000  0.5764190000000  0.5238670000000 1.0
C      1  0.4235810000000  0.4761330000000  0.4858280000000 1.0
C      1  0.5764190000000  0.4761330000000  0.5141720000000 1.0
C      1  0.4235810000000  0.5238670000000  0.5141720000000 1.0
C      1  0.4761330000000  0.5141720000000  0.5764190000000 1.0
C      1  0.5238670000000  0.5141720000000  0.4235810000000 1.0
C      1  0.4761330000000  0.4858280000000  0.4235810000000 1.0
C      1  0.5141720000000  0.4235810000000  0.5238670000000 1.0
C      1  0.4858280000000  0.4235810000000  0.4761330000000 1.0
C      1  0.5141720000000  0.5764190000000  0.4761330000000 1.0
C      1  0.5238670000000  0.5764190000000  0.4858280000000 1.0
C      1  0.4858280000000  0.5238670000000  0.5764190000000 1.0
C      1  0.5764190000000  0.4858280000000  0.5238670000000 1.0
C      1  0.4761330000000  0.4235810000000  0.4858280000000 1.0
C      1  0.4761330000000  0.5764190000000  0.5141720000000 1.0
C      1  0.5238670000000  0.4235810000000  0.5141720000000 1.0
C      1  0.5141720000000  0.4761330000000  0.5764190000000 1.0
C      1  0.5141720000000  0.5238670000000  0.4235810000000 1.0
C      1  0.4858280000000  0.4761330000000  0.4235810000000 1.0
C      1  0.4235810000000  0.5141720000000  0.5238670000000 1.0
C      1  0.4235810000000  0.4858280000000  0.4761330000000 1.0
C      1  0.5764190000000  0.5141720000000  0.4761330000000 1.0
C      1  0.4641930000000  0.4748800000000  0.5140730000000 1.0
C      1  0.4748800000000  0.5140730000000  0.4641930000000 1.0
C      1  0.5140730000000  0.4641930000000  0.4748800000000 1.0
C      1  0.5358070000000  0.5251200000000  0.5140730000000 1.0
C      1  0.4641930000000  0.5251200000000  0.4859270000000 1.0
C      1  0.5358070000000  0.4748800000000  0.4859270000000 1.0
C      1  0.5251200000000  0.4859270000000  0.4641930000000 1.0
C      1  0.4748800000000  0.4859270000000  0.5358070000000 1.0
C      1  0.5251200000000  0.5140730000000  0.5358070000000 1.0
C      1  0.4859270000000  0.5358070000000  0.4748800000000 1.0
C      1  0.5140730000000  0.5358070000000  0.5251200000000 1.0
C      1  0.4859270000000  0.4641930000000  0.5251200000000 1.0
C      1  0.4748800000000  0.4641930000000  0.5140730000000 1.0
C      1  0.5140730000000  0.4748800000000  0.4641930000000 1.0
C      1  0.4641930000000  0.5140730000000  0.4748800000000 1.0
C      1  0.5251200000000  0.5358070000000  0.5140730000000 1.0
C      1  0.5251200000000  0.4641930000000  0.4859270000000 1.0
C      1  0.4748800000000  0.5358070000000  0.4859270000000 1.0
C      1  0.4859270000000  0.5251200000000  0.4641930000000 1.0
C      1  0.4859270000000  0.4748800000000  0.5358070000000 1.0
C      1  0.5140730000000  0.5251200000000  0.5358070000000 1.0
C      1  0.5358070000000  0.4859270000000  0.4748800000000 1.0
C      1  0.5358070000000  0.5140730000000  0.5251200000000 1.0
C      1  0.4641930000000  0.4859270000000  0.5251200000000 1.0
C      1  0.5033470000000  0.5426810000000  0.4476010000000 1.0
C      1  0.5426810000000  0.4476010000000  0.5033470000000 1.0
C      1  0.4476010000000  0.5033470000000  0.5426810000000 1.0
C      1  0.4966530000000  0.4573190000000  0.4476010000000 1.0
C      1  0.5033470000000  0.4573190000000  0.5523990000000 1.0
C      1  0.4966530000000  0.5426810000000  0.5523990000000 1.0
C      1  0.4573190000000  0.5523990000000  0.5033470000000 1.0
C      1  0.5426810000000  0.5523990000000  0.4966530000000 1.0
C      1  0.4573190000000  0.4476010000000  0.4966530000000 1.0
C      1  0.5523990000000  0.4966530000000  0.5426810000000 1.0
C      1  0.4476010000000  0.4966530000000  0.4573190000000 1.0
C      1  0.5523990000000  0.5033470000000  0.4573190000000 1.0
C      1  0.5426810000000  0.5033470000000  0.4476010000000 1.0
C      1  0.4476010000000  0.5426810000000  0.5033470000000 1.0
C      1  0.5033470000000  0.4476010000000  0.5426810000000 1.0
C      1  0.4573190000000  0.4966530000000  0.4476010000000 1.0
C      1  0.4573190000000  0.5033470000000  0.5523990000000 1.0
C      1  0.5426810000000  0.4966530000000  0.5523990000000 1.0
C      1  0.5523990000000  0.4573190000000  0.5033470000000 1.0
C      1  0.5523990000000  0.5426810000000  0.4966530000000 1.0
C      1  0.4476010000000  0.4573190000000  0.4966530000000 1.0
C      1  0.4966530000000  0.5523990000000  0.5426810000000 1.0
C      1  0.4966530000000  0.4476010000000  0.4573190000000 1.0
C      1  0.5033470000000  0.5523990000000  0.4573190000000 1.0
C      1  0.4617850000000  0.5151370000000  0.5580700000000 1.0
C      1  0.5151370000000  0.5580700000000  0.4617850000000 1.0
C      1  0.5580700000000  0.4617850000000  0.5151370000000 1.0
C      1  0.5382150000000  0.4848630000000  0.5580700000000 1.0
C      1  0.4617850000000  0.4848630000000  0.4419300000000 1.0
C      1  0.5382150000000  0.5151370000000  0.4419300000000 1.0
C      1  0.4848630000000  0.4419300000000  0.4617850000000 1.0
C      1  0.5151370000000  0.4419300000000  0.5382150000000 1.0
C      1  0.4848630000000  0.5580700000000  0.5382150000000 1.0
C      1  0.4419300000000  0.5382150000000  0.5151370000000 1.0
C      1  0.5580700000000  0.5382150000000  0.4848630000000 1.0
C      1  0.4419300000000  0.4617850000000  0.4848630000000 1.0
C      1  0.5151370000000  0.4617850000000  0.5580700000000 1.0
C      1  0.5580700000000  0.5151370000000  0.4617850000000 1.0
C      1  0.4617850000000  0.5580700000000  0.5151370000000 1.0
C      1  0.4848630000000  0.5382150000000  0.5580700000000 1.0
C      1  0.4848630000000  0.4617850000000  0.4419300000000 1.0
C      1  0.5151370000000  0.5382150000000  0.4419300000000 1.0
C      1  0.4419300000000  0.4848630000000  0.4617850000000 1.0
C      1  0.4419300000000  0.5151370000000  0.5382150000000 1.0
C      1  0.5580700000000  0.4848630000000  0.5382150000000 1.0
C      1  0.5382150000000  0.4419300000000  0.5151370000000 1.0
C      1  0.5382150000000  0.5580700000000  0.4848630000000 1.0
C      1  0.4617850000000  0.4419300000000  0.4848630000000 1.0
END
