TITL C-1887017-2780-14 -6.12716652096698e-07 1000000 -3944.36421207432 0 0 540 (Td) n - 1
REM
REM in /nfs/bkarasulu/CARBON/AIRSS/Generating-Clusters/GAP-ML-2020/Higher-Symm/Selected-Sizes/TryA-Only_Ih-Symm/Larger-Clusters
REM
REM
REM
REM
REM
REM ./C.cell (2cf5181f0f1d4d5b12b972d32ad12063)
REM
REM compiler GCC version 9.2.1 20190827 (Red Hat 9.2.1-1)
REM options -cpp -mtune=generic -march=x86-64 -g -O0 -fpre-include=/usr/include/finclude/math-vector-fortran.h
REM seed 1796791850 1680952042 987955495 -76548566 -1797095906 -976716008 1621978096 1170012575 413635734 1685853904 573491794 978415391 -1226084962 -590265359 314676797 -241988988 1395486854 787485824 997816032 -1242389989 226420377 -2003685225 1753695889 -1756437988 -1909311652 730062494 431004472 2098218825 -754255961 -700748899 1854182826 1495024968 643022653
REM
CELL 1.54180  100.00000  100.00000  100.00000   90.00000   90.00000   90.00000
LATT -1
SFAC C  
C      1  0.4647370000000  0.4874530000000  0.4763000000000 1.0
C      1  0.4874530000000  0.4763000000000  0.4647370000000 1.0
C      1  0.4763000000000  0.4647370000000  0.4874530000000 1.0
C      1  0.4647370000000  0.5125470000000  0.5237000000000 1.0
C      1  0.5352630000000  0.4874530000000  0.5237000000000 1.0
C      1  0.5352630000000  0.5125470000000  0.4763000000000 1.0
C      1  0.4874530000000  0.5237000000000  0.5352630000000 1.0
C      1  0.5125470000000  0.4763000000000  0.5352630000000 1.0
C      1  0.5125470000000  0.5237000000000  0.4647370000000 1.0
C      1  0.4763000000000  0.5352630000000  0.5125470000000 1.0
C      1  0.5237000000000  0.4647370000000  0.5125470000000 1.0
C      1  0.5237000000000  0.5352630000000  0.4874530000000 1.0
C      1  0.4647370000000  0.4763000000000  0.4874530000000 1.0
C      1  0.4874530000000  0.4647370000000  0.4763000000000 1.0
C      1  0.4763000000000  0.4874530000000  0.4647370000000 1.0
C      1  0.4647370000000  0.5237000000000  0.5125470000000 1.0
C      1  0.5352630000000  0.5237000000000  0.4874530000000 1.0
C      1  0.5352630000000  0.4763000000000  0.5125470000000 1.0
C      1  0.4874530000000  0.5352630000000  0.5237000000000 1.0
C      1  0.5125470000000  0.5352630000000  0.4763000000000 1.0
C      1  0.5125470000000  0.4647370000000  0.5237000000000 1.0
C      1  0.4763000000000  0.5125470000000  0.5352630000000 1.0
C      1  0.5237000000000  0.5125470000000  0.4647370000000 1.0
C      1  0.5237000000000  0.4874530000000  0.5352630000000 1.0
C      1  0.5746550000000  0.5363240000000  0.4738550000000 1.0
C      1  0.5363240000000  0.4738550000000  0.5746550000000 1.0
C      1  0.4738550000000  0.5746550000000  0.5363240000000 1.0
C      1  0.5746550000000  0.4636760000000  0.5261450000000 1.0
C      1  0.4253450000000  0.5363240000000  0.5261450000000 1.0
C      1  0.4253450000000  0.4636760000000  0.4738550000000 1.0
C      1  0.5363240000000  0.5261450000000  0.4253450000000 1.0
C      1  0.4636760000000  0.4738550000000  0.4253450000000 1.0
C      1  0.4636760000000  0.5261450000000  0.5746550000000 1.0
C      1  0.4738550000000  0.4253450000000  0.4636760000000 1.0
C      1  0.5261450000000  0.5746550000000  0.4636760000000 1.0
C      1  0.5261450000000  0.4253450000000  0.5363240000000 1.0
C      1  0.5746550000000  0.4738550000000  0.5363240000000 1.0
C      1  0.5363240000000  0.5746550000000  0.4738550000000 1.0
C      1  0.4738550000000  0.5363240000000  0.5746550000000 1.0
C      1  0.5746550000000  0.5261450000000  0.4636760000000 1.0
C      1  0.4253450000000  0.5261450000000  0.5363240000000 1.0
C      1  0.4253450000000  0.4738550000000  0.4636760000000 1.0
C      1  0.5363240000000  0.4253450000000  0.5261450000000 1.0
C      1  0.4636760000000  0.4253450000000  0.4738550000000 1.0
C      1  0.4636760000000  0.5746550000000  0.5261450000000 1.0
C      1  0.4738550000000  0.4636760000000  0.4253450000000 1.0
C      1  0.5261450000000  0.4636760000000  0.5746550000000 1.0
C      1  0.5261450000000  0.5363240000000  0.4253450000000 1.0
C      1  0.4890850000000  0.4688780000000  0.5805760000000 1.0
C      1  0.4688780000000  0.5805760000000  0.4890850000000 1.0
C      1  0.5805760000000  0.4890850000000  0.4688780000000 1.0
C      1  0.4890850000000  0.5311220000000  0.4194240000000 1.0
C      1  0.5109150000000  0.4688780000000  0.4194240000000 1.0
C      1  0.5109150000000  0.5311220000000  0.5805760000000 1.0
C      1  0.4688780000000  0.4194240000000  0.5109150000000 1.0
C      1  0.5311220000000  0.5805760000000  0.5109150000000 1.0
C      1  0.5311220000000  0.4194240000000  0.4890850000000 1.0
C      1  0.5805760000000  0.5109150000000  0.5311220000000 1.0
C      1  0.4194240000000  0.4890850000000  0.5311220000000 1.0
C      1  0.4194240000000  0.5109150000000  0.4688780000000 1.0
C      1  0.4890850000000  0.5805760000000  0.4688780000000 1.0
C      1  0.4688780000000  0.4890850000000  0.5805760000000 1.0
C      1  0.5805760000000  0.4688780000000  0.4890850000000 1.0
C      1  0.4890850000000  0.4194240000000  0.5311220000000 1.0
C      1  0.5109150000000  0.4194240000000  0.4688780000000 1.0
C      1  0.5109150000000  0.5805760000000  0.5311220000000 1.0
C      1  0.4688780000000  0.5109150000000  0.4194240000000 1.0
C      1  0.5311220000000  0.5109150000000  0.5805760000000 1.0
C      1  0.5311220000000  0.4890850000000  0.4194240000000 1.0
C      1  0.5805760000000  0.5311220000000  0.5109150000000 1.0
C      1  0.4194240000000  0.5311220000000  0.4890850000000 1.0
C      1  0.4194240000000  0.4688780000000  0.5109150000000 1.0
C      1  0.4620400000000  0.5495650000000  0.5269300000000 1.0
C      1  0.5495650000000  0.5269300000000  0.4620400000000 1.0
C      1  0.5269300000000  0.4620400000000  0.5495650000000 1.0
C      1  0.4620400000000  0.4504350000000  0.4730700000000 1.0
C      1  0.5379600000000  0.5495650000000  0.4730700000000 1.0
C      1  0.5379600000000  0.4504350000000  0.5269300000000 1.0
C      1  0.5495650000000  0.4730700000000  0.5379600000000 1.0
C      1  0.4504350000000  0.5269300000000  0.5379600000000 1.0
C      1  0.4504350000000  0.4730700000000  0.4620400000000 1.0
C      1  0.5269300000000  0.5379600000000  0.4504350000000 1.0
C      1  0.4730700000000  0.4620400000000  0.4504350000000 1.0
C      1  0.4730700000000  0.5379600000000  0.5495650000000 1.0
C      1  0.4620400000000  0.5269300000000  0.5495650000000 1.0
C      1  0.5495650000000  0.4620400000000  0.5269300000000 1.0
C      1  0.5269300000000  0.5495650000000  0.4620400000000 1.0
C      1  0.4620400000000  0.4730700000000  0.4504350000000 1.0
C      1  0.5379600000000  0.4730700000000  0.5495650000000 1.0
C      1  0.5379600000000  0.5269300000000  0.4504350000000 1.0
C      1  0.5495650000000  0.5379600000000  0.4730700000000 1.0
C      1  0.4504350000000  0.5379600000000  0.5269300000000 1.0
C      1  0.4504350000000  0.4620400000000  0.4730700000000 1.0
C      1  0.5269300000000  0.4504350000000  0.5379600000000 1.0
C      1  0.4730700000000  0.4504350000000  0.4620400000000 1.0
C      1  0.4730700000000  0.5495650000000  0.5379600000000 1.0
C      1  0.5349440000000  0.4867420000000  0.4758450000000 1.0
C      1  0.4867420000000  0.4758450000000  0.5349440000000 1.0
C      1  0.4758450000000  0.5349440000000  0.4867420000000 1.0
C      1  0.5349440000000  0.5132580000000  0.5241550000000 1.0
C      1  0.4650560000000  0.4867420000000  0.5241550000000 1.0
C      1  0.4650560000000  0.5132580000000  0.4758450000000 1.0
C      1  0.4867420000000  0.5241550000000  0.4650560000000 1.0
C      1  0.5132580000000  0.4758450000000  0.4650560000000 1.0
C      1  0.5132580000000  0.5241550000000  0.5349440000000 1.0
C      1  0.4758450000000  0.4650560000000  0.5132580000000 1.0
C      1  0.5241550000000  0.5349440000000  0.5132580000000 1.0
C      1  0.5241550000000  0.4650560000000  0.4867420000000 1.0
C      1  0.5349440000000  0.4758450000000  0.4867420000000 1.0
C      1  0.4867420000000  0.5349440000000  0.4758450000000 1.0
C      1  0.4758450000000  0.4867420000000  0.5349440000000 1.0
C      1  0.5349440000000  0.5241550000000  0.5132580000000 1.0
C      1  0.4650560000000  0.5241550000000  0.4867420000000 1.0
C      1  0.4650560000000  0.4758450000000  0.5132580000000 1.0
C      1  0.4867420000000  0.4650560000000  0.5241550000000 1.0
C      1  0.5132580000000  0.4650560000000  0.4758450000000 1.0
C      1  0.5132580000000  0.5349440000000  0.5241550000000 1.0
C      1  0.4758450000000  0.5132580000000  0.4650560000000 1.0
C      1  0.5241550000000  0.5132580000000  0.5349440000000 1.0
C      1  0.5241550000000  0.4867420000000  0.4650560000000 1.0
C      1  0.4558800000000  0.5635110000000  0.4726340000000 1.0
C      1  0.5635110000000  0.4726340000000  0.4558800000000 1.0
C      1  0.4726340000000  0.4558800000000  0.5635110000000 1.0
C      1  0.4558800000000  0.4364890000000  0.5273660000000 1.0
C      1  0.5441200000000  0.5635110000000  0.5273660000000 1.0
C      1  0.5441200000000  0.4364890000000  0.4726340000000 1.0
C      1  0.5635110000000  0.5273660000000  0.5441200000000 1.0
C      1  0.4364890000000  0.4726340000000  0.5441200000000 1.0
C      1  0.4364890000000  0.5273660000000  0.4558800000000 1.0
C      1  0.4726340000000  0.5441200000000  0.4364890000000 1.0
C      1  0.5273660000000  0.4558800000000  0.4364890000000 1.0
C      1  0.5273660000000  0.5441200000000  0.5635110000000 1.0
C      1  0.4558800000000  0.4726340000000  0.5635110000000 1.0
C      1  0.5635110000000  0.4558800000000  0.4726340000000 1.0
C      1  0.4726340000000  0.5635110000000  0.4558800000000 1.0
C      1  0.4558800000000  0.5273660000000  0.4364890000000 1.0
C      1  0.5441200000000  0.5273660000000  0.5635110000000 1.0
C      1  0.5441200000000  0.4726340000000  0.4364890000000 1.0
C      1  0.5635110000000  0.5441200000000  0.5273660000000 1.0
C      1  0.4364890000000  0.5441200000000  0.4726340000000 1.0
C      1  0.4364890000000  0.4558800000000  0.5273660000000 1.0
C      1  0.4726340000000  0.4364890000000  0.5441200000000 1.0
C      1  0.5273660000000  0.4364890000000  0.4558800000000 1.0
C      1  0.5273660000000  0.5635110000000  0.5441200000000 1.0
C      1  0.5497350000000  0.5384210000000  0.5266960000000 1.0
C      1  0.5384210000000  0.5266960000000  0.5497350000000 1.0
C      1  0.5266960000000  0.5497350000000  0.5384210000000 1.0
C      1  0.5497350000000  0.4615790000000  0.4733040000000 1.0
C      1  0.4502650000000  0.5384210000000  0.4733040000000 1.0
C      1  0.4502650000000  0.4615790000000  0.5266960000000 1.0
C      1  0.5384210000000  0.4733040000000  0.4502650000000 1.0
C      1  0.4615790000000  0.5266960000000  0.4502650000000 1.0
C      1  0.4615790000000  0.4733040000000  0.5497350000000 1.0
C      1  0.5266960000000  0.4502650000000  0.4615790000000 1.0
C      1  0.4733040000000  0.5497350000000  0.4615790000000 1.0
C      1  0.4733040000000  0.4502650000000  0.5384210000000 1.0
C      1  0.5497350000000  0.5266960000000  0.5384210000000 1.0
C      1  0.5384210000000  0.5497350000000  0.5266960000000 1.0
C      1  0.5266960000000  0.5384210000000  0.5497350000000 1.0
C      1  0.5497350000000  0.4733040000000  0.4615790000000 1.0
C      1  0.4502650000000  0.4733040000000  0.5384210000000 1.0
C      1  0.4502650000000  0.5266960000000  0.4615790000000 1.0
C      1  0.5384210000000  0.4502650000000  0.4733040000000 1.0
C      1  0.4615790000000  0.4502650000000  0.5266960000000 1.0
C      1  0.4615790000000  0.5497350000000  0.4733040000000 1.0
C      1  0.5266960000000  0.4615790000000  0.4502650000000 1.0
C      1  0.4733040000000  0.4615790000000  0.5497350000000 1.0
C      1  0.4733040000000  0.5384210000000  0.4502650000000 1.0
C      1  0.4654840000000  0.5006990000000  0.4833860000000 1.0
C      1  0.5006990000000  0.4833860000000  0.4654840000000 1.0
C      1  0.4833860000000  0.4654840000000  0.5006990000000 1.0
C      1  0.4654840000000  0.4993010000000  0.5166140000000 1.0
C      1  0.5345160000000  0.5006990000000  0.5166140000000 1.0
C      1  0.5345160000000  0.4993010000000  0.4833860000000 1.0
C      1  0.5006990000000  0.5166140000000  0.5345160000000 1.0
C      1  0.4993010000000  0.4833860000000  0.5345160000000 1.0
C      1  0.4993010000000  0.5166140000000  0.4654840000000 1.0
C      1  0.4833860000000  0.5345160000000  0.4993010000000 1.0
C      1  0.5166140000000  0.4654840000000  0.4993010000000 1.0
C      1  0.5166140000000  0.5345160000000  0.5006990000000 1.0
C      1  0.4654840000000  0.4833860000000  0.5006990000000 1.0
C      1  0.5006990000000  0.4654840000000  0.4833860000000 1.0
C      1  0.4833860000000  0.5006990000000  0.4654840000000 1.0
C      1  0.4654840000000  0.5166140000000  0.4993010000000 1.0
C      1  0.5345160000000  0.5166140000000  0.5006990000000 1.0
C      1  0.5345160000000  0.4833860000000  0.4993010000000 1.0
C      1  0.5006990000000  0.5345160000000  0.5166140000000 1.0
C      1  0.4993010000000  0.5345160000000  0.4833860000000 1.0
C      1  0.4993010000000  0.4654840000000  0.5166140000000 1.0
C      1  0.4833860000000  0.4993010000000  0.5345160000000 1.0
C      1  0.5166140000000  0.4993010000000  0.4654840000000 1.0
C      1  0.5166140000000  0.5006990000000  0.5345160000000 1.0
C      1  0.4989360000000  0.4224630000000  0.4613680000000 1.0
C      1  0.4224630000000  0.4613680000000  0.4989360000000 1.0
C      1  0.4613680000000  0.4989360000000  0.4224630000000 1.0
C      1  0.4989360000000  0.5775370000000  0.5386320000000 1.0
C      1  0.5010640000000  0.4224630000000  0.5386320000000 1.0
C      1  0.5010640000000  0.5775370000000  0.4613680000000 1.0
C      1  0.4224630000000  0.5386320000000  0.5010640000000 1.0
C      1  0.5775370000000  0.4613680000000  0.5010640000000 1.0
C      1  0.5775370000000  0.5386320000000  0.4989360000000 1.0
C      1  0.4613680000000  0.5010640000000  0.5775370000000 1.0
C      1  0.5386320000000  0.4989360000000  0.5775370000000 1.0
C      1  0.5386320000000  0.5010640000000  0.4224630000000 1.0
C      1  0.4989360000000  0.4613680000000  0.4224630000000 1.0
C      1  0.4224630000000  0.4989360000000  0.4613680000000 1.0
C      1  0.4613680000000  0.4224630000000  0.4989360000000 1.0
C      1  0.4989360000000  0.5386320000000  0.5775370000000 1.0
C      1  0.5010640000000  0.5386320000000  0.4224630000000 1.0
C      1  0.5010640000000  0.4613680000000  0.5775370000000 1.0
C      1  0.4224630000000  0.5010640000000  0.5386320000000 1.0
C      1  0.5775370000000  0.5010640000000  0.4613680000000 1.0
C      1  0.5775370000000  0.4989360000000  0.5386320000000 1.0
C      1  0.4613680000000  0.5775370000000  0.5010640000000 1.0
C      1  0.5386320000000  0.5775370000000  0.4989360000000 1.0
C      1  0.5386320000000  0.4224630000000  0.5010640000000 1.0
C      1  0.4852050000000  0.5250460000000  0.5921960000000 1.0
C      1  0.5250460000000  0.5921960000000  0.4852050000000 1.0
C      1  0.5921960000000  0.4852050000000  0.5250460000000 1.0
C      1  0.4852050000000  0.4749540000000  0.4078040000000 1.0
C      1  0.5147950000000  0.5250460000000  0.4078040000000 1.0
C      1  0.5147950000000  0.4749540000000  0.5921960000000 1.0
C      1  0.5250460000000  0.4078040000000  0.5147950000000 1.0
C      1  0.4749540000000  0.5921960000000  0.5147950000000 1.0
C      1  0.4749540000000  0.4078040000000  0.4852050000000 1.0
C      1  0.5921960000000  0.5147950000000  0.4749540000000 1.0
C      1  0.4078040000000  0.4852050000000  0.4749540000000 1.0
C      1  0.4078040000000  0.5147950000000  0.5250460000000 1.0
C      1  0.4852050000000  0.5921960000000  0.5250460000000 1.0
C      1  0.5250460000000  0.4852050000000  0.5921960000000 1.0
C      1  0.5921960000000  0.5250460000000  0.4852050000000 1.0
C      1  0.4852050000000  0.4078040000000  0.4749540000000 1.0
C      1  0.5147950000000  0.4078040000000  0.5250460000000 1.0
C      1  0.5147950000000  0.5921960000000  0.4749540000000 1.0
C      1  0.5250460000000  0.5147950000000  0.4078040000000 1.0
C      1  0.4749540000000  0.5147950000000  0.5921960000000 1.0
C      1  0.4749540000000  0.4852050000000  0.4078040000000 1.0
C      1  0.5921960000000  0.4749540000000  0.5147950000000 1.0
C      1  0.4078040000000  0.4749540000000  0.4852050000000 1.0
C      1  0.4078040000000  0.5250460000000  0.5147950000000 1.0
C      1  0.4493330000000  0.4595620000000  0.5608510000000 1.0
C      1  0.4595620000000  0.5608510000000  0.4493330000000 1.0
C      1  0.5608510000000  0.4493330000000  0.4595620000000 1.0
C      1  0.4493330000000  0.5404380000000  0.4391490000000 1.0
C      1  0.5506670000000  0.4595620000000  0.4391490000000 1.0
C      1  0.5506670000000  0.5404380000000  0.5608510000000 1.0
C      1  0.4595620000000  0.4391490000000  0.5506670000000 1.0
C      1  0.5404380000000  0.5608510000000  0.5506670000000 1.0
C      1  0.5404380000000  0.4391490000000  0.4493330000000 1.0
C      1  0.5608510000000  0.5506670000000  0.5404380000000 1.0
C      1  0.4391490000000  0.4493330000000  0.5404380000000 1.0
C      1  0.4391490000000  0.5506670000000  0.4595620000000 1.0
C      1  0.4493330000000  0.5608510000000  0.4595620000000 1.0
C      1  0.4595620000000  0.4493330000000  0.5608510000000 1.0
C      1  0.5608510000000  0.4595620000000  0.4493330000000 1.0
C      1  0.4493330000000  0.4391490000000  0.5404380000000 1.0
C      1  0.5506670000000  0.4391490000000  0.4595620000000 1.0
C      1  0.5506670000000  0.5608510000000  0.5404380000000 1.0
C      1  0.4595620000000  0.5506670000000  0.4391490000000 1.0
C      1  0.5404380000000  0.5506670000000  0.5608510000000 1.0
C      1  0.5404380000000  0.4493330000000  0.4391490000000 1.0
C      1  0.5608510000000  0.5404380000000  0.5506670000000 1.0
C      1  0.4391490000000  0.5404380000000  0.4493330000000 1.0
C      1  0.4391490000000  0.4595620000000  0.5506670000000 1.0
C      1  0.5307140000000  0.4872860000000  0.5479900000000 1.0
C      1  0.4872860000000  0.5479900000000  0.5307140000000 1.0
C      1  0.5479900000000  0.5307140000000  0.4872860000000 1.0
C      1  0.5307140000000  0.5127140000000  0.4520100000000 1.0
C      1  0.4692860000000  0.4872860000000  0.4520100000000 1.0
C      1  0.4692860000000  0.5127140000000  0.5479900000000 1.0
C      1  0.4872860000000  0.4520100000000  0.4692860000000 1.0
C      1  0.5127140000000  0.5479900000000  0.4692860000000 1.0
C      1  0.5127140000000  0.4520100000000  0.5307140000000 1.0
C      1  0.5479900000000  0.4692860000000  0.5127140000000 1.0
C      1  0.4520100000000  0.5307140000000  0.5127140000000 1.0
C      1  0.4520100000000  0.4692860000000  0.4872860000000 1.0
C      1  0.5307140000000  0.5479900000000  0.4872860000000 1.0
C      1  0.4872860000000  0.5307140000000  0.5479900000000 1.0
C      1  0.5479900000000  0.4872860000000  0.5307140000000 1.0
C      1  0.5307140000000  0.4520100000000  0.5127140000000 1.0
C      1  0.4692860000000  0.4520100000000  0.4872860000000 1.0
C      1  0.4692860000000  0.5479900000000  0.5127140000000 1.0
C      1  0.4872860000000  0.4692860000000  0.4520100000000 1.0
C      1  0.5127140000000  0.4692860000000  0.5479900000000 1.0
C      1  0.5127140000000  0.5307140000000  0.4520100000000 1.0
C      1  0.5479900000000  0.5127140000000  0.4692860000000 1.0
C      1  0.4520100000000  0.5127140000000  0.5307140000000 1.0
C      1  0.4520100000000  0.4872860000000  0.4692860000000 1.0
C      1  0.5106260000000  0.5207890000000  0.4999870000000 1.0
C      1  0.5207890000000  0.4999870000000  0.5106260000000 1.0
C      1  0.4999870000000  0.5106260000000  0.5207890000000 1.0
C      1  0.5106260000000  0.4792110000000  0.5000130000000 1.0
C      1  0.4893740000000  0.5207890000000  0.5000130000000 1.0
C      1  0.4893740000000  0.4792110000000  0.4999870000000 1.0
C      1  0.5207890000000  0.5000130000000  0.4893740000000 1.0
C      1  0.4792110000000  0.4999870000000  0.4893740000000 1.0
C      1  0.4792110000000  0.5000130000000  0.5106260000000 1.0
C      1  0.4999870000000  0.4893740000000  0.4792110000000 1.0
C      1  0.5000130000000  0.5106260000000  0.4792110000000 1.0
C      1  0.5000130000000  0.4893740000000  0.5207890000000 1.0
C      1  0.5106260000000  0.4999870000000  0.5207890000000 1.0
C      1  0.5207890000000  0.5106260000000  0.4999870000000 1.0
C      1  0.4999870000000  0.5207890000000  0.5106260000000 1.0
C      1  0.5106260000000  0.5000130000000  0.4792110000000 1.0
C      1  0.4893740000000  0.5000130000000  0.5207890000000 1.0
C      1  0.4893740000000  0.4999870000000  0.4792110000000 1.0
C      1  0.5207890000000  0.4893740000000  0.5000130000000 1.0
C      1  0.4792110000000  0.4893740000000  0.4999870000000 1.0
C      1  0.4792110000000  0.5106260000000  0.5000130000000 1.0
C      1  0.4999870000000  0.4792110000000  0.4893740000000 1.0
C      1  0.5000130000000  0.4792110000000  0.5106260000000 1.0
C      1  0.5000130000000  0.5207890000000  0.4893740000000 1.0
C      1  0.4647310000000  0.5829660000000  0.5142310000000 1.0
C      1  0.5829660000000  0.5142310000000  0.4647310000000 1.0
C      1  0.5142310000000  0.4647310000000  0.5829660000000 1.0
C      1  0.4647310000000  0.4170340000000  0.4857690000000 1.0
C      1  0.5352690000000  0.5829660000000  0.4857690000000 1.0
C      1  0.5352690000000  0.4170340000000  0.5142310000000 1.0
C      1  0.5829660000000  0.4857690000000  0.5352690000000 1.0
C      1  0.4170340000000  0.5142310000000  0.5352690000000 1.0
C      1  0.4170340000000  0.4857690000000  0.4647310000000 1.0
C      1  0.5142310000000  0.5352690000000  0.4170340000000 1.0
C      1  0.4857690000000  0.4647310000000  0.4170340000000 1.0
C      1  0.4857690000000  0.5352690000000  0.5829660000000 1.0
C      1  0.4647310000000  0.5142310000000  0.5829660000000 1.0
C      1  0.5829660000000  0.4647310000000  0.5142310000000 1.0
C      1  0.5142310000000  0.5829660000000  0.4647310000000 1.0
C      1  0.4647310000000  0.4857690000000  0.4170340000000 1.0
C      1  0.5352690000000  0.4857690000000  0.5829660000000 1.0
C      1  0.5352690000000  0.5142310000000  0.4170340000000 1.0
C      1  0.5829660000000  0.5352690000000  0.4857690000000 1.0
C      1  0.4170340000000  0.5352690000000  0.5142310000000 1.0
C      1  0.4170340000000  0.4647310000000  0.4857690000000 1.0
C      1  0.5142310000000  0.4170340000000  0.5352690000000 1.0
C      1  0.4857690000000  0.4170340000000  0.4647310000000 1.0
C      1  0.4857690000000  0.5829660000000  0.5352690000000 1.0
C      1  0.5353240000000  0.5004000000000  0.4465810000000 1.0
C      1  0.5004000000000  0.4465810000000  0.5353240000000 1.0
C      1  0.4465810000000  0.5353240000000  0.5004000000000 1.0
C      1  0.5353240000000  0.4996000000000  0.5534190000000 1.0
C      1  0.4646760000000  0.5004000000000  0.5534190000000 1.0
C      1  0.4646760000000  0.4996000000000  0.4465810000000 1.0
C      1  0.5004000000000  0.5534190000000  0.4646760000000 1.0
C      1  0.4996000000000  0.4465810000000  0.4646760000000 1.0
C      1  0.4996000000000  0.5534190000000  0.5353240000000 1.0
C      1  0.4465810000000  0.4646760000000  0.4996000000000 1.0
C      1  0.5534190000000  0.5353240000000  0.4996000000000 1.0
C      1  0.5534190000000  0.4646760000000  0.5004000000000 1.0
C      1  0.5353240000000  0.4465810000000  0.5004000000000 1.0
C      1  0.5004000000000  0.5353240000000  0.4465810000000 1.0
C      1  0.4465810000000  0.5004000000000  0.5353240000000 1.0
C      1  0.5353240000000  0.5534190000000  0.4996000000000 1.0
C      1  0.4646760000000  0.5534190000000  0.5004000000000 1.0
C      1  0.4646760000000  0.4465810000000  0.4996000000000 1.0
C      1  0.5004000000000  0.4646760000000  0.5534190000000 1.0
C      1  0.4996000000000  0.4646760000000  0.4465810000000 1.0
C      1  0.4996000000000  0.5353240000000  0.5534190000000 1.0
C      1  0.4465810000000  0.4996000000000  0.4646760000000 1.0
C      1  0.5534190000000  0.4996000000000  0.5353240000000 1.0
C      1  0.5534190000000  0.5004000000000  0.4646760000000 1.0
C      1  0.5739670000000  0.4659220000000  0.4761450000000 1.0
C      1  0.4659220000000  0.4761450000000  0.5739670000000 1.0
C      1  0.4761450000000  0.5739670000000  0.4659220000000 1.0
C      1  0.5739670000000  0.5340780000000  0.5238550000000 1.0
C      1  0.4260330000000  0.4659220000000  0.5238550000000 1.0
C      1  0.4260330000000  0.5340780000000  0.4761450000000 1.0
C      1  0.4659220000000  0.5238550000000  0.4260330000000 1.0
C      1  0.5340780000000  0.4761450000000  0.4260330000000 1.0
C      1  0.5340780000000  0.5238550000000  0.5739670000000 1.0
C      1  0.4761450000000  0.4260330000000  0.5340780000000 1.0
C      1  0.5238550000000  0.5739670000000  0.5340780000000 1.0
C      1  0.5238550000000  0.4260330000000  0.4659220000000 1.0
C      1  0.5739670000000  0.4761450000000  0.4659220000000 1.0
C      1  0.4659220000000  0.5739670000000  0.4761450000000 1.0
C      1  0.4761450000000  0.4659220000000  0.5739670000000 1.0
C      1  0.5739670000000  0.5238550000000  0.5340780000000 1.0
C      1  0.4260330000000  0.5238550000000  0.4659220000000 1.0
C      1  0.4260330000000  0.4761450000000  0.5340780000000 1.0
C      1  0.4659220000000  0.4260330000000  0.5238550000000 1.0
C      1  0.5340780000000  0.4260330000000  0.4761450000000 1.0
C      1  0.5340780000000  0.5739670000000  0.5238550000000 1.0
C      1  0.4761450000000  0.5340780000000  0.4260330000000 1.0
C      1  0.5238550000000  0.5340780000000  0.5739670000000 1.0
C      1  0.5238550000000  0.4659220000000  0.4260330000000 1.0
C      1  0.5043870000000  0.4848160000000  0.5927360000000 1.0
C      1  0.4848160000000  0.5927360000000  0.5043870000000 1.0
C      1  0.5927360000000  0.5043870000000  0.4848160000000 1.0
C      1  0.5043870000000  0.5151840000000  0.4072640000000 1.0
C      1  0.4956130000000  0.4848160000000  0.4072640000000 1.0
C      1  0.4956130000000  0.5151840000000  0.5927360000000 1.0
C      1  0.4848160000000  0.4072640000000  0.4956130000000 1.0
C      1  0.5151840000000  0.5927360000000  0.4956130000000 1.0
C      1  0.5151840000000  0.4072640000000  0.5043870000000 1.0
C      1  0.5927360000000  0.4956130000000  0.5151840000000 1.0
C      1  0.4072640000000  0.5043870000000  0.5151840000000 1.0
C      1  0.4072640000000  0.4956130000000  0.4848160000000 1.0
C      1  0.5043870000000  0.5927360000000  0.4848160000000 1.0
C      1  0.4848160000000  0.5043870000000  0.5927360000000 1.0
C      1  0.5927360000000  0.4848160000000  0.5043870000000 1.0
C      1  0.5043870000000  0.4072640000000  0.5151840000000 1.0
C      1  0.4956130000000  0.4072640000000  0.4848160000000 1.0
C      1  0.4956130000000  0.5927360000000  0.5151840000000 1.0
C      1  0.4848160000000  0.4956130000000  0.4072640000000 1.0
C      1  0.5151840000000  0.4956130000000  0.5927360000000 1.0
C      1  0.5151840000000  0.5043870000000  0.4072640000000 1.0
C      1  0.5927360000000  0.5151840000000  0.4956130000000 1.0
C      1  0.4072640000000  0.5151840000000  0.5043870000000 1.0
C      1  0.4072640000000  0.4848160000000  0.4956130000000 1.0
C      1  0.5624690000000  0.4470490000000  0.5135500000000 1.0
C      1  0.4470490000000  0.5135500000000  0.5624690000000 1.0
C      1  0.5135500000000  0.5624690000000  0.4470490000000 1.0
C      1  0.5624690000000  0.5529510000000  0.4864500000000 1.0
C      1  0.4375310000000  0.4470490000000  0.4864500000000 1.0
C      1  0.4375310000000  0.5529510000000  0.5135500000000 1.0
C      1  0.4470490000000  0.4864500000000  0.4375310000000 1.0
C      1  0.5529510000000  0.5135500000000  0.4375310000000 1.0
C      1  0.5529510000000  0.4864500000000  0.5624690000000 1.0
C      1  0.5135500000000  0.4375310000000  0.5529510000000 1.0
C      1  0.4864500000000  0.5624690000000  0.5529510000000 1.0
C      1  0.4864500000000  0.4375310000000  0.4470490000000 1.0
C      1  0.5624690000000  0.5135500000000  0.4470490000000 1.0
C      1  0.4470490000000  0.5624690000000  0.5135500000000 1.0
C      1  0.5135500000000  0.4470490000000  0.5624690000000 1.0
C      1  0.5624690000000  0.4864500000000  0.5529510000000 1.0
C      1  0.4375310000000  0.4864500000000  0.4470490000000 1.0
C      1  0.4375310000000  0.5135500000000  0.5529510000000 1.0
C      1  0.4470490000000  0.4375310000000  0.4864500000000 1.0
C      1  0.5529510000000  0.4375310000000  0.5135500000000 1.0
C      1  0.5529510000000  0.5624690000000  0.4864500000000 1.0
C      1  0.5135500000000  0.5529510000000  0.4375310000000 1.0
C      1  0.4864500000000  0.5529510000000  0.5624690000000 1.0
C      1  0.4864500000000  0.4470490000000  0.4375310000000 1.0
C      1  0.4751220000000  0.5632660000000  0.5441290000000 1.0
C      1  0.5632660000000  0.5441290000000  0.4751220000000 1.0
C      1  0.5441290000000  0.4751220000000  0.5632660000000 1.0
C      1  0.4751220000000  0.4367340000000  0.4558710000000 1.0
C      1  0.5248780000000  0.5632660000000  0.4558710000000 1.0
C      1  0.5248780000000  0.4367340000000  0.5441290000000 1.0
C      1  0.5632660000000  0.4558710000000  0.5248780000000 1.0
C      1  0.4367340000000  0.5441290000000  0.5248780000000 1.0
C      1  0.4367340000000  0.4558710000000  0.4751220000000 1.0
C      1  0.5441290000000  0.5248780000000  0.4367340000000 1.0
C      1  0.4558710000000  0.4751220000000  0.4367340000000 1.0
C      1  0.4558710000000  0.5248780000000  0.5632660000000 1.0
C      1  0.4751220000000  0.5441290000000  0.5632660000000 1.0
C      1  0.5632660000000  0.4751220000000  0.5441290000000 1.0
C      1  0.5441290000000  0.5632660000000  0.4751220000000 1.0
C      1  0.4751220000000  0.4558710000000  0.4367340000000 1.0
C      1  0.5248780000000  0.4558710000000  0.5632660000000 1.0
C      1  0.5248780000000  0.5441290000000  0.4367340000000 1.0
C      1  0.5632660000000  0.5248780000000  0.4558710000000 1.0
C      1  0.4367340000000  0.5248780000000  0.5441290000000 1.0
C      1  0.4367340000000  0.4751220000000  0.4558710000000 1.0
C      1  0.5441290000000  0.4367340000000  0.5248780000000 1.0
C      1  0.4558710000000  0.4367340000000  0.4751220000000 1.0
C      1  0.4558710000000  0.5632660000000  0.5248780000000 1.0
C      1  0.5344190000000  0.5458330000000  0.5124550000000 1.0
C      1  0.5458330000000  0.5124550000000  0.5344190000000 1.0
C      1  0.5124550000000  0.5344190000000  0.5458330000000 1.0
C      1  0.5344190000000  0.4541670000000  0.4875450000000 1.0
C      1  0.4655810000000  0.5458330000000  0.4875450000000 1.0
C      1  0.4655810000000  0.4541670000000  0.5124550000000 1.0
C      1  0.5458330000000  0.4875450000000  0.4655810000000 1.0
C      1  0.4541670000000  0.5124550000000  0.4655810000000 1.0
C      1  0.4541670000000  0.4875450000000  0.5344190000000 1.0
C      1  0.5124550000000  0.4655810000000  0.4541670000000 1.0
C      1  0.4875450000000  0.5344190000000  0.4541670000000 1.0
C      1  0.4875450000000  0.4655810000000  0.5458330000000 1.0
C      1  0.5344190000000  0.5124550000000  0.5458330000000 1.0
C      1  0.5458330000000  0.5344190000000  0.5124550000000 1.0
C      1  0.5124550000000  0.5458330000000  0.5344190000000 1.0
C      1  0.5344190000000  0.4875450000000  0.4541670000000 1.0
C      1  0.4655810000000  0.4875450000000  0.5458330000000 1.0
C      1  0.4655810000000  0.5124550000000  0.4541670000000 1.0
C      1  0.5458330000000  0.4655810000000  0.4875450000000 1.0
C      1  0.4541670000000  0.4655810000000  0.5124550000000 1.0
C      1  0.4541670000000  0.5344190000000  0.4875450000000 1.0
C      1  0.5124550000000  0.4541670000000  0.4655810000000 1.0
C      1  0.4875450000000  0.4541670000000  0.5344190000000 1.0
C      1  0.4875450000000  0.5458330000000  0.4655810000000 1.0
C      1  0.5085540000000  0.5875200000000  0.5185750000000 1.0
C      1  0.5875200000000  0.5185750000000  0.5085540000000 1.0
C      1  0.5185750000000  0.5085540000000  0.5875200000000 1.0
C      1  0.5085540000000  0.4124800000000  0.4814250000000 1.0
C      1  0.4914460000000  0.5875200000000  0.4814250000000 1.0
C      1  0.4914460000000  0.4124800000000  0.5185750000000 1.0
C      1  0.5875200000000  0.4814250000000  0.4914460000000 1.0
C      1  0.4124800000000  0.5185750000000  0.4914460000000 1.0
C      1  0.4124800000000  0.4814250000000  0.5085540000000 1.0
C      1  0.5185750000000  0.4914460000000  0.4124800000000 1.0
C      1  0.4814250000000  0.5085540000000  0.4124800000000 1.0
C      1  0.4814250000000  0.4914460000000  0.5875200000000 1.0
C      1  0.5085540000000  0.5185750000000  0.5875200000000 1.0
C      1  0.5875200000000  0.5085540000000  0.5185750000000 1.0
C      1  0.5185750000000  0.5875200000000  0.5085540000000 1.0
C      1  0.5085540000000  0.4814250000000  0.4124800000000 1.0
C      1  0.4914460000000  0.4814250000000  0.5875200000000 1.0
C      1  0.4914460000000  0.5185750000000  0.4124800000000 1.0
C      1  0.5875200000000  0.4914460000000  0.4814250000000 1.0
C      1  0.4124800000000  0.4914460000000  0.5185750000000 1.0
C      1  0.4124800000000  0.5085540000000  0.4814250000000 1.0
C      1  0.5185750000000  0.4124800000000  0.4914460000000 1.0
C      1  0.4814250000000  0.4124800000000  0.5085540000000 1.0
C      1  0.4814250000000  0.5875200000000  0.4914460000000 1.0
C      1  0.4554550000000  0.4981390000000  0.4351610000000 1.0
C      1  0.4981390000000  0.4351610000000  0.4554550000000 1.0
C      1  0.4351610000000  0.4554550000000  0.4981390000000 1.0
C      1  0.4554550000000  0.5018610000000  0.5648390000000 1.0
C      1  0.5445450000000  0.4981390000000  0.5648390000000 1.0
C      1  0.5445450000000  0.5018610000000  0.4351610000000 1.0
C      1  0.4981390000000  0.5648390000000  0.5445450000000 1.0
C      1  0.5018610000000  0.4351610000000  0.5445450000000 1.0
C      1  0.5018610000000  0.5648390000000  0.4554550000000 1.0
C      1  0.4351610000000  0.5445450000000  0.5018610000000 1.0
C      1  0.5648390000000  0.4554550000000  0.5018610000000 1.0
C      1  0.5648390000000  0.5445450000000  0.4981390000000 1.0
C      1  0.4554550000000  0.4351610000000  0.4981390000000 1.0
C      1  0.4981390000000  0.4554550000000  0.4351610000000 1.0
C      1  0.4351610000000  0.4981390000000  0.4554550000000 1.0
C      1  0.4554550000000  0.5648390000000  0.5018610000000 1.0
C      1  0.5445450000000  0.5648390000000  0.4981390000000 1.0
C      1  0.5445450000000  0.4351610000000  0.5018610000000 1.0
C      1  0.4981390000000  0.5445450000000  0.5648390000000 1.0
C      1  0.5018610000000  0.5445450000000  0.4351610000000 1.0
C      1  0.5018610000000  0.4554550000000  0.5648390000000 1.0
C      1  0.4351610000000  0.5018610000000  0.5445450000000 1.0
C      1  0.5648390000000  0.5018610000000  0.4554550000000 1.0
C      1  0.5648390000000  0.4981390000000  0.5445450000000 1.0
C      1  0.5047760000000  0.4575400000000  0.4952240000000 1.0
C      1  0.4575400000000  0.4952240000000  0.5047760000000 1.0
C      1  0.4952240000000  0.4575400000000  0.5047760000000 1.0
C      1  0.4952240000000  0.5424600000000  0.4952240000000 1.0
C      1  0.4575400000000  0.5047760000000  0.4952240000000 1.0
C      1  0.5424600000000  0.4952240000000  0.4952240000000 1.0
C      1  0.5424600000000  0.5047760000000  0.5047760000000 1.0
C      1  0.4952240000000  0.4952240000000  0.5424600000000 1.0
C      1  0.5047760000000  0.4952240000000  0.4575400000000 1.0
C      1  0.4952240000000  0.5047760000000  0.4575400000000 1.0
C      1  0.5047760000000  0.5424600000000  0.5047760000000 1.0
C      1  0.5047760000000  0.5047760000000  0.5424600000000 1.0
END
