TITL C-1892079-7001-69 -1.61554970883131e-06 1000000 -4294.61536264641 0 0 600 (Th) n - 1
REM
REM in /nfs/bkarasulu/CARBON/AIRSS/Generating-Clusters/GAP-ML-2020/Higher-Symm/Selected-Sizes/TryA-Only_Ih-Symm/Larger-Clusters
REM
REM
REM
REM
REM
REM ./C.cell (2cf5181f0f1d4d5b12b972d32ad12063)
REM
REM compiler GCC version 9.2.1 20190827 (Red Hat 9.2.1-1)
REM options -cpp -mtune=generic -march=x86-64 -g -O0 -fpre-include=/usr/include/finclude/math-vector-fortran.h
REM seed 613005488 1333591215 1596389199 -1766529947 1925859824 789988290 -1859932840 -693717498 582830541 384907558 -984986539 -560445273 1564281285 -2069367307 173976188 -1258763134 2081284082 636520010 1940393064 76184572 -1999195374 554228251 146252583 -1832214428 538235280 -533060095 1212466881 -448116707 1396021817 -1019914973 -1882479551 -1656510926 -29804193
REM
CELL 1.54180  100.00000  100.00000  100.00000   90.00000   90.00000   90.00000
LATT -1
SFAC C  
C      1  0.5171510000000  0.5809490000000  0.5133200000000 1.0
C      1  0.5133200000000  0.5171510000000  0.5809490000000 1.0
C      1  0.5809490000000  0.5133200000000  0.5171510000000 1.0
C      1  0.4828490000000  0.4190510000000  0.5133200000000 1.0
C      1  0.4828490000000  0.5809490000000  0.4866800000000 1.0
C      1  0.5171510000000  0.4190510000000  0.4866800000000 1.0
C      1  0.4866800000000  0.4828490000000  0.5809490000000 1.0
C      1  0.4866800000000  0.5171510000000  0.4190510000000 1.0
C      1  0.5133200000000  0.4828490000000  0.4190510000000 1.0
C      1  0.4190510000000  0.4866800000000  0.5171510000000 1.0
C      1  0.4190510000000  0.5133200000000  0.4828490000000 1.0
C      1  0.5809490000000  0.4866800000000  0.4828490000000 1.0
C      1  0.5171510000000  0.5809490000000  0.4866800000000 1.0
C      1  0.5133200000000  0.5171510000000  0.4190510000000 1.0
C      1  0.5809490000000  0.5133200000000  0.4828490000000 1.0
C      1  0.4828490000000  0.4190510000000  0.4866800000000 1.0
C      1  0.4828490000000  0.5809490000000  0.5133200000000 1.0
C      1  0.5171510000000  0.4190510000000  0.5133200000000 1.0
C      1  0.4866800000000  0.4828490000000  0.4190510000000 1.0
C      1  0.4866800000000  0.5171510000000  0.5809490000000 1.0
C      1  0.5133200000000  0.4828490000000  0.5809490000000 1.0
C      1  0.4190510000000  0.4866800000000  0.4828490000000 1.0
C      1  0.4190510000000  0.5133200000000  0.5171510000000 1.0
C      1  0.5809490000000  0.4866800000000  0.5171510000000 1.0
C      1  0.5068940000000  0.4458530000000  0.5683820000000 1.0
C      1  0.5683820000000  0.5068940000000  0.4458530000000 1.0
C      1  0.4458530000000  0.5683820000000  0.5068940000000 1.0
C      1  0.4931060000000  0.5541470000000  0.5683820000000 1.0
C      1  0.4931060000000  0.4458530000000  0.4316180000000 1.0
C      1  0.5068940000000  0.5541470000000  0.4316180000000 1.0
C      1  0.4316180000000  0.4931060000000  0.4458530000000 1.0
C      1  0.4316180000000  0.5068940000000  0.5541470000000 1.0
C      1  0.5683820000000  0.4931060000000  0.5541470000000 1.0
C      1  0.5541470000000  0.4316180000000  0.5068940000000 1.0
C      1  0.5541470000000  0.5683820000000  0.4931060000000 1.0
C      1  0.4458530000000  0.4316180000000  0.4931060000000 1.0
C      1  0.5068940000000  0.4458530000000  0.4316180000000 1.0
C      1  0.5683820000000  0.5068940000000  0.5541470000000 1.0
C      1  0.4458530000000  0.5683820000000  0.4931060000000 1.0
C      1  0.4931060000000  0.5541470000000  0.4316180000000 1.0
C      1  0.4931060000000  0.4458530000000  0.5683820000000 1.0
C      1  0.5068940000000  0.5541470000000  0.5683820000000 1.0
C      1  0.4316180000000  0.4931060000000  0.5541470000000 1.0
C      1  0.4316180000000  0.5068940000000  0.4458530000000 1.0
C      1  0.5683820000000  0.4931060000000  0.4458530000000 1.0
C      1  0.5541470000000  0.4316180000000  0.4931060000000 1.0
C      1  0.5541470000000  0.5683820000000  0.5068940000000 1.0
C      1  0.4458530000000  0.4316180000000  0.5068940000000 1.0
C      1  0.4634280000000  0.5769550000000  0.4612930000000 1.0
C      1  0.4612930000000  0.4634280000000  0.5769550000000 1.0
C      1  0.5769550000000  0.4612930000000  0.4634280000000 1.0
C      1  0.5365720000000  0.4230450000000  0.4612930000000 1.0
C      1  0.5365720000000  0.5769550000000  0.5387070000000 1.0
C      1  0.4634280000000  0.4230450000000  0.5387070000000 1.0
C      1  0.5387070000000  0.5365720000000  0.5769550000000 1.0
C      1  0.5387070000000  0.4634280000000  0.4230450000000 1.0
C      1  0.4612930000000  0.5365720000000  0.4230450000000 1.0
C      1  0.4230450000000  0.5387070000000  0.4634280000000 1.0
C      1  0.4230450000000  0.4612930000000  0.5365720000000 1.0
C      1  0.5769550000000  0.5387070000000  0.5365720000000 1.0
C      1  0.4634280000000  0.5769550000000  0.5387070000000 1.0
C      1  0.4612930000000  0.4634280000000  0.4230450000000 1.0
C      1  0.5769550000000  0.4612930000000  0.5365720000000 1.0
C      1  0.5365720000000  0.4230450000000  0.5387070000000 1.0
C      1  0.5365720000000  0.5769550000000  0.4612930000000 1.0
C      1  0.4634280000000  0.4230450000000  0.4612930000000 1.0
C      1  0.5387070000000  0.5365720000000  0.4230450000000 1.0
C      1  0.5387070000000  0.4634280000000  0.5769550000000 1.0
C      1  0.4612930000000  0.5365720000000  0.5769550000000 1.0
C      1  0.4230450000000  0.5387070000000  0.5365720000000 1.0
C      1  0.4230450000000  0.4612930000000  0.4634280000000 1.0
C      1  0.5769550000000  0.5387070000000  0.4634280000000 1.0
C      1  0.5462140000000  0.5337000000000  0.5265950000000 1.0
C      1  0.5265950000000  0.5462140000000  0.5337000000000 1.0
C      1  0.5337000000000  0.5265950000000  0.5462140000000 1.0
C      1  0.4537860000000  0.4663000000000  0.5265950000000 1.0
C      1  0.4537860000000  0.5337000000000  0.4734050000000 1.0
C      1  0.5462140000000  0.4663000000000  0.4734050000000 1.0
C      1  0.4734050000000  0.4537860000000  0.5337000000000 1.0
C      1  0.4734050000000  0.5462140000000  0.4663000000000 1.0
C      1  0.5265950000000  0.4537860000000  0.4663000000000 1.0
C      1  0.4663000000000  0.4734050000000  0.5462140000000 1.0
C      1  0.4663000000000  0.5265950000000  0.4537860000000 1.0
C      1  0.5337000000000  0.4734050000000  0.4537860000000 1.0
C      1  0.5462140000000  0.5337000000000  0.4734050000000 1.0
C      1  0.5265950000000  0.5462140000000  0.4663000000000 1.0
C      1  0.5337000000000  0.5265950000000  0.4537860000000 1.0
C      1  0.4537860000000  0.4663000000000  0.4734050000000 1.0
C      1  0.4537860000000  0.5337000000000  0.5265950000000 1.0
C      1  0.5462140000000  0.4663000000000  0.5265950000000 1.0
C      1  0.4734050000000  0.4537860000000  0.4663000000000 1.0
C      1  0.4734050000000  0.5462140000000  0.5337000000000 1.0
C      1  0.5265950000000  0.4537860000000  0.5337000000000 1.0
C      1  0.4663000000000  0.4734050000000  0.4537860000000 1.0
C      1  0.4663000000000  0.5265950000000  0.5462140000000 1.0
C      1  0.5337000000000  0.4734050000000  0.5462140000000 1.0
C      1  0.5830660000000  0.4930910000000  0.5313760000000 1.0
C      1  0.5313760000000  0.5830660000000  0.4930910000000 1.0
C      1  0.4930910000000  0.5313760000000  0.5830660000000 1.0
C      1  0.4169340000000  0.5069090000000  0.5313760000000 1.0
C      1  0.4169340000000  0.4930910000000  0.4686240000000 1.0
C      1  0.5830660000000  0.5069090000000  0.4686240000000 1.0
C      1  0.4686240000000  0.4169340000000  0.4930910000000 1.0
C      1  0.4686240000000  0.5830660000000  0.5069090000000 1.0
C      1  0.5313760000000  0.4169340000000  0.5069090000000 1.0
C      1  0.5069090000000  0.4686240000000  0.5830660000000 1.0
C      1  0.5069090000000  0.5313760000000  0.4169340000000 1.0
C      1  0.4930910000000  0.4686240000000  0.4169340000000 1.0
C      1  0.5830660000000  0.4930910000000  0.4686240000000 1.0
C      1  0.5313760000000  0.5830660000000  0.5069090000000 1.0
C      1  0.4930910000000  0.5313760000000  0.4169340000000 1.0
C      1  0.4169340000000  0.5069090000000  0.4686240000000 1.0
C      1  0.4169340000000  0.4930910000000  0.5313760000000 1.0
C      1  0.5830660000000  0.5069090000000  0.5313760000000 1.0
C      1  0.4686240000000  0.4169340000000  0.5069090000000 1.0
C      1  0.4686240000000  0.5830660000000  0.4930910000000 1.0
C      1  0.5313760000000  0.4169340000000  0.4930910000000 1.0
C      1  0.5069090000000  0.4686240000000  0.4169340000000 1.0
C      1  0.5069090000000  0.5313760000000  0.5830660000000 1.0
C      1  0.4930910000000  0.4686240000000  0.5830660000000 1.0
C      1  0.5714920000000  0.4726320000000  0.5423410000000 1.0
C      1  0.5423410000000  0.5714920000000  0.4726320000000 1.0
C      1  0.4726320000000  0.5423410000000  0.5714920000000 1.0
C      1  0.4285080000000  0.5273680000000  0.5423410000000 1.0
C      1  0.4285080000000  0.4726320000000  0.4576590000000 1.0
C      1  0.5714920000000  0.5273680000000  0.4576590000000 1.0
C      1  0.4576590000000  0.4285080000000  0.4726320000000 1.0
C      1  0.4576590000000  0.5714920000000  0.5273680000000 1.0
C      1  0.5423410000000  0.4285080000000  0.5273680000000 1.0
C      1  0.5273680000000  0.4576590000000  0.5714920000000 1.0
C      1  0.5273680000000  0.5423410000000  0.4285080000000 1.0
C      1  0.4726320000000  0.4576590000000  0.4285080000000 1.0
C      1  0.5714920000000  0.4726320000000  0.4576590000000 1.0
C      1  0.5423410000000  0.5714920000000  0.5273680000000 1.0
C      1  0.4726320000000  0.5423410000000  0.4285080000000 1.0
C      1  0.4285080000000  0.5273680000000  0.4576590000000 1.0
C      1  0.4285080000000  0.4726320000000  0.5423410000000 1.0
C      1  0.5714920000000  0.5273680000000  0.5423410000000 1.0
C      1  0.4576590000000  0.4285080000000  0.5273680000000 1.0
C      1  0.4576590000000  0.5714920000000  0.4726320000000 1.0
C      1  0.5423410000000  0.4285080000000  0.4726320000000 1.0
C      1  0.5273680000000  0.4576590000000  0.4285080000000 1.0
C      1  0.5273680000000  0.5423410000000  0.5714920000000 1.0
C      1  0.4726320000000  0.4576590000000  0.5714920000000 1.0
C      1  0.5071030000000  0.5726300000000  0.4483020000000 1.0
C      1  0.4483020000000  0.5071030000000  0.5726300000000 1.0
C      1  0.5726300000000  0.4483020000000  0.5071030000000 1.0
C      1  0.4928970000000  0.4273700000000  0.4483020000000 1.0
C      1  0.4928970000000  0.5726300000000  0.5516980000000 1.0
C      1  0.5071030000000  0.4273700000000  0.5516980000000 1.0
C      1  0.5516980000000  0.4928970000000  0.5726300000000 1.0
C      1  0.5516980000000  0.5071030000000  0.4273700000000 1.0
C      1  0.4483020000000  0.4928970000000  0.4273700000000 1.0
C      1  0.4273700000000  0.5516980000000  0.5071030000000 1.0
C      1  0.4273700000000  0.4483020000000  0.4928970000000 1.0
C      1  0.5726300000000  0.5516980000000  0.4928970000000 1.0
C      1  0.5071030000000  0.5726300000000  0.5516980000000 1.0
C      1  0.4483020000000  0.5071030000000  0.4273700000000 1.0
C      1  0.5726300000000  0.4483020000000  0.4928970000000 1.0
C      1  0.4928970000000  0.4273700000000  0.5516980000000 1.0
C      1  0.4928970000000  0.5726300000000  0.4483020000000 1.0
C      1  0.5071030000000  0.4273700000000  0.4483020000000 1.0
C      1  0.5516980000000  0.4928970000000  0.4273700000000 1.0
C      1  0.5516980000000  0.5071030000000  0.5726300000000 1.0
C      1  0.4483020000000  0.4928970000000  0.5726300000000 1.0
C      1  0.4273700000000  0.5516980000000  0.4928970000000 1.0
C      1  0.4273700000000  0.4483020000000  0.5071030000000 1.0
C      1  0.5726300000000  0.5516980000000  0.5071030000000 1.0
C      1  0.4605870000000  0.4934320000000  0.4561070000000 1.0
C      1  0.4561070000000  0.4605870000000  0.4934320000000 1.0
C      1  0.4934320000000  0.4561070000000  0.4605870000000 1.0
C      1  0.5394130000000  0.5065680000000  0.4561070000000 1.0
C      1  0.5394130000000  0.4934320000000  0.5438930000000 1.0
C      1  0.4605870000000  0.5065680000000  0.5438930000000 1.0
C      1  0.5438930000000  0.5394130000000  0.4934320000000 1.0
C      1  0.5438930000000  0.4605870000000  0.5065680000000 1.0
C      1  0.4561070000000  0.5394130000000  0.5065680000000 1.0
C      1  0.5065680000000  0.5438930000000  0.4605870000000 1.0
C      1  0.5065680000000  0.4561070000000  0.5394130000000 1.0
C      1  0.4934320000000  0.5438930000000  0.5394130000000 1.0
C      1  0.4605870000000  0.4934320000000  0.5438930000000 1.0
C      1  0.4561070000000  0.4605870000000  0.5065680000000 1.0
C      1  0.4934320000000  0.4561070000000  0.5394130000000 1.0
C      1  0.5394130000000  0.5065680000000  0.5438930000000 1.0
C      1  0.5394130000000  0.4934320000000  0.4561070000000 1.0
C      1  0.4605870000000  0.5065680000000  0.4561070000000 1.0
C      1  0.5438930000000  0.5394130000000  0.5065680000000 1.0
C      1  0.5438930000000  0.4605870000000  0.4934320000000 1.0
C      1  0.4561070000000  0.5394130000000  0.4934320000000 1.0
C      1  0.5065680000000  0.5438930000000  0.5394130000000 1.0
C      1  0.5065680000000  0.4561070000000  0.4605870000000 1.0
C      1  0.4934320000000  0.5438930000000  0.4605870000000 1.0
C      1  0.4520240000000  0.4409200000000  0.5315320000000 1.0
C      1  0.5315320000000  0.4520240000000  0.4409200000000 1.0
C      1  0.4409200000000  0.5315320000000  0.4520240000000 1.0
C      1  0.5479760000000  0.5590800000000  0.5315320000000 1.0
C      1  0.5479760000000  0.4409200000000  0.4684680000000 1.0
C      1  0.4520240000000  0.5590800000000  0.4684680000000 1.0
C      1  0.4684680000000  0.5479760000000  0.4409200000000 1.0
C      1  0.4684680000000  0.4520240000000  0.5590800000000 1.0
C      1  0.5315320000000  0.5479760000000  0.5590800000000 1.0
C      1  0.5590800000000  0.4684680000000  0.4520240000000 1.0
C      1  0.5590800000000  0.5315320000000  0.5479760000000 1.0
C      1  0.4409200000000  0.4684680000000  0.5479760000000 1.0
C      1  0.4520240000000  0.4409200000000  0.4684680000000 1.0
C      1  0.5315320000000  0.4520240000000  0.5590800000000 1.0
C      1  0.4409200000000  0.5315320000000  0.5479760000000 1.0
C      1  0.5479760000000  0.5590800000000  0.4684680000000 1.0
C      1  0.5479760000000  0.4409200000000  0.5315320000000 1.0
C      1  0.4520240000000  0.5590800000000  0.5315320000000 1.0
C      1  0.4684680000000  0.5479760000000  0.5590800000000 1.0
C      1  0.4684680000000  0.4520240000000  0.4409200000000 1.0
C      1  0.5315320000000  0.5479760000000  0.4409200000000 1.0
C      1  0.5590800000000  0.4684680000000  0.5479760000000 1.0
C      1  0.5590800000000  0.5315320000000  0.4520240000000 1.0
C      1  0.4409200000000  0.4684680000000  0.4520240000000 1.0
C      1  0.4668700000000  0.5478230000000  0.5123480000000 1.0
C      1  0.5123480000000  0.4668700000000  0.5478230000000 1.0
C      1  0.5478230000000  0.5123480000000  0.4668700000000 1.0
C      1  0.5331300000000  0.4521770000000  0.5123480000000 1.0
C      1  0.5331300000000  0.5478230000000  0.4876520000000 1.0
C      1  0.4668700000000  0.4521770000000  0.4876520000000 1.0
C      1  0.4876520000000  0.5331300000000  0.5478230000000 1.0
C      1  0.4876520000000  0.4668700000000  0.4521770000000 1.0
C      1  0.5123480000000  0.5331300000000  0.4521770000000 1.0
C      1  0.4521770000000  0.4876520000000  0.4668700000000 1.0
C      1  0.4521770000000  0.5123480000000  0.5331300000000 1.0
C      1  0.5478230000000  0.4876520000000  0.5331300000000 1.0
C      1  0.4668700000000  0.5478230000000  0.4876520000000 1.0
C      1  0.5123480000000  0.4668700000000  0.4521770000000 1.0
C      1  0.5478230000000  0.5123480000000  0.5331300000000 1.0
C      1  0.5331300000000  0.4521770000000  0.4876520000000 1.0
C      1  0.5331300000000  0.5478230000000  0.5123480000000 1.0
C      1  0.4668700000000  0.4521770000000  0.5123480000000 1.0
C      1  0.4876520000000  0.5331300000000  0.4521770000000 1.0
C      1  0.4876520000000  0.4668700000000  0.5478230000000 1.0
C      1  0.5123480000000  0.5331300000000  0.5478230000000 1.0
C      1  0.4521770000000  0.4876520000000  0.5331300000000 1.0
C      1  0.4521770000000  0.5123480000000  0.4668700000000 1.0
C      1  0.5478230000000  0.4876520000000  0.4668700000000 1.0
C      1  0.4593010000000  0.5726330000000  0.4869690000000 1.0
C      1  0.4869690000000  0.4593010000000  0.5726330000000 1.0
C      1  0.5726330000000  0.4869690000000  0.4593010000000 1.0
C      1  0.5406990000000  0.4273670000000  0.4869690000000 1.0
C      1  0.5406990000000  0.5726330000000  0.5130310000000 1.0
C      1  0.4593010000000  0.4273670000000  0.5130310000000 1.0
C      1  0.5130310000000  0.5406990000000  0.5726330000000 1.0
C      1  0.5130310000000  0.4593010000000  0.4273670000000 1.0
C      1  0.4869690000000  0.5406990000000  0.4273670000000 1.0
C      1  0.4273670000000  0.5130310000000  0.4593010000000 1.0
C      1  0.4273670000000  0.4869690000000  0.5406990000000 1.0
C      1  0.5726330000000  0.5130310000000  0.5406990000000 1.0
C      1  0.4593010000000  0.5726330000000  0.5130310000000 1.0
C      1  0.4869690000000  0.4593010000000  0.4273670000000 1.0
C      1  0.5726330000000  0.4869690000000  0.5406990000000 1.0
C      1  0.5406990000000  0.4273670000000  0.5130310000000 1.0
C      1  0.5406990000000  0.5726330000000  0.4869690000000 1.0
C      1  0.4593010000000  0.4273670000000  0.4869690000000 1.0
C      1  0.5130310000000  0.5406990000000  0.4273670000000 1.0
C      1  0.5130310000000  0.4593010000000  0.5726330000000 1.0
C      1  0.4869690000000  0.5406990000000  0.5726330000000 1.0
C      1  0.4273670000000  0.5130310000000  0.5406990000000 1.0
C      1  0.4273670000000  0.4869690000000  0.4593010000000 1.0
C      1  0.5726330000000  0.5130310000000  0.4593010000000 1.0
C      1  0.5156190000000  0.4918270000000  0.4457630000000 1.0
C      1  0.4457630000000  0.5156190000000  0.4918270000000 1.0
C      1  0.4918270000000  0.4457630000000  0.5156190000000 1.0
C      1  0.4843810000000  0.5081730000000  0.4457630000000 1.0
C      1  0.4843810000000  0.4918270000000  0.5542370000000 1.0
C      1  0.5156190000000  0.5081730000000  0.5542370000000 1.0
C      1  0.5542370000000  0.4843810000000  0.4918270000000 1.0
C      1  0.5542370000000  0.5156190000000  0.5081730000000 1.0
C      1  0.4457630000000  0.4843810000000  0.5081730000000 1.0
C      1  0.5081730000000  0.5542370000000  0.5156190000000 1.0
C      1  0.5081730000000  0.4457630000000  0.4843810000000 1.0
C      1  0.4918270000000  0.5542370000000  0.4843810000000 1.0
C      1  0.5156190000000  0.4918270000000  0.5542370000000 1.0
C      1  0.4457630000000  0.5156190000000  0.5081730000000 1.0
C      1  0.4918270000000  0.4457630000000  0.4843810000000 1.0
C      1  0.4843810000000  0.5081730000000  0.5542370000000 1.0
C      1  0.4843810000000  0.4918270000000  0.4457630000000 1.0
C      1  0.5156190000000  0.5081730000000  0.4457630000000 1.0
C      1  0.5542370000000  0.4843810000000  0.5081730000000 1.0
C      1  0.5542370000000  0.5156190000000  0.4918270000000 1.0
C      1  0.4457630000000  0.4843810000000  0.4918270000000 1.0
C      1  0.5081730000000  0.5542370000000  0.4843810000000 1.0
C      1  0.5081730000000  0.4457630000000  0.5156190000000 1.0
C      1  0.4918270000000  0.5542370000000  0.5156190000000 1.0
C      1  0.5439690000000  0.5069540000000  0.4825440000000 1.0
C      1  0.4825440000000  0.5439690000000  0.5069540000000 1.0
C      1  0.5069540000000  0.4825440000000  0.5439690000000 1.0
C      1  0.4560310000000  0.4930460000000  0.4825440000000 1.0
C      1  0.4560310000000  0.5069540000000  0.5174560000000 1.0
C      1  0.5439690000000  0.4930460000000  0.5174560000000 1.0
C      1  0.5174560000000  0.4560310000000  0.5069540000000 1.0
C      1  0.5174560000000  0.5439690000000  0.4930460000000 1.0
C      1  0.4825440000000  0.4560310000000  0.4930460000000 1.0
C      1  0.4930460000000  0.5174560000000  0.5439690000000 1.0
C      1  0.4930460000000  0.4825440000000  0.4560310000000 1.0
C      1  0.5069540000000  0.5174560000000  0.4560310000000 1.0
C      1  0.5439690000000  0.5069540000000  0.5174560000000 1.0
C      1  0.4825440000000  0.5439690000000  0.4930460000000 1.0
C      1  0.5069540000000  0.4825440000000  0.4560310000000 1.0
C      1  0.4560310000000  0.4930460000000  0.5174560000000 1.0
C      1  0.4560310000000  0.5069540000000  0.4825440000000 1.0
C      1  0.5439690000000  0.4930460000000  0.4825440000000 1.0
C      1  0.5174560000000  0.4560310000000  0.4930460000000 1.0
C      1  0.5174560000000  0.5439690000000  0.5069540000000 1.0
C      1  0.4825440000000  0.4560310000000  0.5069540000000 1.0
C      1  0.4930460000000  0.5174560000000  0.4560310000000 1.0
C      1  0.4930460000000  0.4825440000000  0.5439690000000 1.0
C      1  0.5069540000000  0.5174560000000  0.5439690000000 1.0
C      1  0.5075800000000  0.5311560000000  0.4382990000000 1.0
C      1  0.4382990000000  0.5075800000000  0.5311560000000 1.0
C      1  0.5311560000000  0.4382990000000  0.5075800000000 1.0
C      1  0.4924200000000  0.4688440000000  0.4382990000000 1.0
C      1  0.4924200000000  0.5311560000000  0.5617010000000 1.0
C      1  0.5075800000000  0.4688440000000  0.5617010000000 1.0
C      1  0.5617010000000  0.4924200000000  0.5311560000000 1.0
C      1  0.5617010000000  0.5075800000000  0.4688440000000 1.0
C      1  0.4382990000000  0.4924200000000  0.4688440000000 1.0
C      1  0.4688440000000  0.5617010000000  0.5075800000000 1.0
C      1  0.4688440000000  0.4382990000000  0.4924200000000 1.0
C      1  0.5311560000000  0.5617010000000  0.4924200000000 1.0
C      1  0.5075800000000  0.5311560000000  0.5617010000000 1.0
C      1  0.4382990000000  0.5075800000000  0.4688440000000 1.0
C      1  0.5311560000000  0.4382990000000  0.4924200000000 1.0
C      1  0.4924200000000  0.4688440000000  0.5617010000000 1.0
C      1  0.4924200000000  0.5311560000000  0.4382990000000 1.0
C      1  0.5075800000000  0.4688440000000  0.4382990000000 1.0
C      1  0.5617010000000  0.4924200000000  0.4688440000000 1.0
C      1  0.5617010000000  0.5075800000000  0.5311560000000 1.0
C      1  0.4382990000000  0.4924200000000  0.5311560000000 1.0
C      1  0.4688440000000  0.5617010000000  0.4924200000000 1.0
C      1  0.4688440000000  0.4382990000000  0.5075800000000 1.0
C      1  0.5311560000000  0.5617010000000  0.5075800000000 1.0
C      1  0.4500840000000  0.4707240000000  0.4861150000000 1.0
C      1  0.4861150000000  0.4500840000000  0.4707240000000 1.0
C      1  0.4707240000000  0.4861150000000  0.4500840000000 1.0
C      1  0.5499160000000  0.5292760000000  0.4861150000000 1.0
C      1  0.5499160000000  0.4707240000000  0.5138850000000 1.0
C      1  0.4500840000000  0.5292760000000  0.5138850000000 1.0
C      1  0.5138850000000  0.5499160000000  0.4707240000000 1.0
C      1  0.5138850000000  0.4500840000000  0.5292760000000 1.0
C      1  0.4861150000000  0.5499160000000  0.5292760000000 1.0
C      1  0.5292760000000  0.5138850000000  0.4500840000000 1.0
C      1  0.5292760000000  0.4861150000000  0.5499160000000 1.0
C      1  0.4707240000000  0.5138850000000  0.5499160000000 1.0
C      1  0.4500840000000  0.4707240000000  0.5138850000000 1.0
C      1  0.4861150000000  0.4500840000000  0.5292760000000 1.0
C      1  0.4707240000000  0.4861150000000  0.5499160000000 1.0
C      1  0.5499160000000  0.5292760000000  0.5138850000000 1.0
C      1  0.5499160000000  0.4707240000000  0.4861150000000 1.0
C      1  0.4500840000000  0.5292760000000  0.4861150000000 1.0
C      1  0.5138850000000  0.5499160000000  0.5292760000000 1.0
C      1  0.5138850000000  0.4500840000000  0.4707240000000 1.0
C      1  0.4861150000000  0.5499160000000  0.4707240000000 1.0
C      1  0.5292760000000  0.5138850000000  0.5499160000000 1.0
C      1  0.5292760000000  0.4861150000000  0.4500840000000 1.0
C      1  0.4707240000000  0.5138850000000  0.4500840000000 1.0
C      1  0.5660170000000  0.4919240000000  0.5156570000000 1.0
C      1  0.5156570000000  0.5660170000000  0.4919240000000 1.0
C      1  0.4919240000000  0.5156570000000  0.5660170000000 1.0
C      1  0.4339830000000  0.5080760000000  0.5156570000000 1.0
C      1  0.4339830000000  0.4919240000000  0.4843430000000 1.0
C      1  0.5660170000000  0.5080760000000  0.4843430000000 1.0
C      1  0.4843430000000  0.4339830000000  0.4919240000000 1.0
C      1  0.4843430000000  0.5660170000000  0.5080760000000 1.0
C      1  0.5156570000000  0.4339830000000  0.5080760000000 1.0
C      1  0.5080760000000  0.4843430000000  0.5660170000000 1.0
C      1  0.5080760000000  0.5156570000000  0.4339830000000 1.0
C      1  0.4919240000000  0.4843430000000  0.4339830000000 1.0
C      1  0.5660170000000  0.4919240000000  0.4843430000000 1.0
C      1  0.5156570000000  0.5660170000000  0.5080760000000 1.0
C      1  0.4919240000000  0.5156570000000  0.4339830000000 1.0
C      1  0.4339830000000  0.5080760000000  0.4843430000000 1.0
C      1  0.4339830000000  0.4919240000000  0.5156570000000 1.0
C      1  0.5660170000000  0.5080760000000  0.5156570000000 1.0
C      1  0.4843430000000  0.4339830000000  0.5080760000000 1.0
C      1  0.4843430000000  0.5660170000000  0.4919240000000 1.0
C      1  0.5156570000000  0.4339830000000  0.4919240000000 1.0
C      1  0.5080760000000  0.4843430000000  0.4339830000000 1.0
C      1  0.5080760000000  0.5156570000000  0.5660170000000 1.0
C      1  0.4919240000000  0.4843430000000  0.5660170000000 1.0
C      1  0.4858920000000  0.5641840000000  0.5606730000000 1.0
C      1  0.5606730000000  0.4858920000000  0.5641840000000 1.0
C      1  0.5641840000000  0.5606730000000  0.4858920000000 1.0
C      1  0.5141080000000  0.4358160000000  0.5606730000000 1.0
C      1  0.5141080000000  0.5641840000000  0.4393270000000 1.0
C      1  0.4858920000000  0.4358160000000  0.4393270000000 1.0
C      1  0.4393270000000  0.5141080000000  0.5641840000000 1.0
C      1  0.4393270000000  0.4858920000000  0.4358160000000 1.0
C      1  0.5606730000000  0.5141080000000  0.4358160000000 1.0
C      1  0.4358160000000  0.4393270000000  0.4858920000000 1.0
C      1  0.4358160000000  0.5606730000000  0.5141080000000 1.0
C      1  0.5641840000000  0.4393270000000  0.5141080000000 1.0
C      1  0.4858920000000  0.5641840000000  0.4393270000000 1.0
C      1  0.5606730000000  0.4858920000000  0.4358160000000 1.0
C      1  0.5641840000000  0.5606730000000  0.5141080000000 1.0
C      1  0.5141080000000  0.4358160000000  0.4393270000000 1.0
C      1  0.5141080000000  0.5641840000000  0.5606730000000 1.0
C      1  0.4858920000000  0.4358160000000  0.5606730000000 1.0
C      1  0.4393270000000  0.5141080000000  0.4358160000000 1.0
C      1  0.4393270000000  0.4858920000000  0.5641840000000 1.0
C      1  0.5606730000000  0.5141080000000  0.5641840000000 1.0
C      1  0.4358160000000  0.4393270000000  0.5141080000000 1.0
C      1  0.4358160000000  0.5606730000000  0.4858920000000 1.0
C      1  0.5641840000000  0.4393270000000  0.4858920000000 1.0
C      1  0.4168570000000  0.4718530000000  0.5164640000000 1.0
C      1  0.5164640000000  0.4168570000000  0.4718530000000 1.0
C      1  0.4718530000000  0.5164640000000  0.4168570000000 1.0
C      1  0.5831430000000  0.5281470000000  0.5164640000000 1.0
C      1  0.5831430000000  0.4718530000000  0.4835360000000 1.0
C      1  0.4168570000000  0.5281470000000  0.4835360000000 1.0
C      1  0.4835360000000  0.5831430000000  0.4718530000000 1.0
C      1  0.4835360000000  0.4168570000000  0.5281470000000 1.0
C      1  0.5164640000000  0.5831430000000  0.5281470000000 1.0
C      1  0.5281470000000  0.4835360000000  0.4168570000000 1.0
C      1  0.5281470000000  0.5164640000000  0.5831430000000 1.0
C      1  0.4718530000000  0.4835360000000  0.5831430000000 1.0
C      1  0.4168570000000  0.4718530000000  0.4835360000000 1.0
C      1  0.5164640000000  0.4168570000000  0.5281470000000 1.0
C      1  0.4718530000000  0.5164640000000  0.5831430000000 1.0
C      1  0.5831430000000  0.5281470000000  0.4835360000000 1.0
C      1  0.5831430000000  0.4718530000000  0.5164640000000 1.0
C      1  0.4168570000000  0.5281470000000  0.5164640000000 1.0
C      1  0.4835360000000  0.5831430000000  0.5281470000000 1.0
C      1  0.4835360000000  0.4168570000000  0.4718530000000 1.0
C      1  0.5164640000000  0.5831430000000  0.4718530000000 1.0
C      1  0.5281470000000  0.4835360000000  0.5831430000000 1.0
C      1  0.5281470000000  0.5164640000000  0.4168570000000 1.0
C      1  0.4718530000000  0.4835360000000  0.4168570000000 1.0
C      1  0.4614630000000  0.4533390000000  0.4736070000000 1.0
C      1  0.4736070000000  0.4614630000000  0.4533390000000 1.0
C      1  0.4533390000000  0.4736070000000  0.4614630000000 1.0
C      1  0.5385370000000  0.5466610000000  0.4736070000000 1.0
C      1  0.5385370000000  0.4533390000000  0.5263930000000 1.0
C      1  0.4614630000000  0.5466610000000  0.5263930000000 1.0
C      1  0.5263930000000  0.5385370000000  0.4533390000000 1.0
C      1  0.5263930000000  0.4614630000000  0.5466610000000 1.0
C      1  0.4736070000000  0.5385370000000  0.5466610000000 1.0
C      1  0.5466610000000  0.5263930000000  0.4614630000000 1.0
C      1  0.5466610000000  0.4736070000000  0.5385370000000 1.0
C      1  0.4533390000000  0.5263930000000  0.5385370000000 1.0
C      1  0.4614630000000  0.4533390000000  0.5263930000000 1.0
C      1  0.4736070000000  0.4614630000000  0.5466610000000 1.0
C      1  0.4533390000000  0.4736070000000  0.5385370000000 1.0
C      1  0.5385370000000  0.5466610000000  0.5263930000000 1.0
C      1  0.5385370000000  0.4533390000000  0.4736070000000 1.0
C      1  0.4614630000000  0.5466610000000  0.4736070000000 1.0
C      1  0.5263930000000  0.5385370000000  0.5466610000000 1.0
C      1  0.5263930000000  0.4614630000000  0.4533390000000 1.0
C      1  0.4736070000000  0.5385370000000  0.4533390000000 1.0
C      1  0.5466610000000  0.5263930000000  0.5385370000000 1.0
C      1  0.5466610000000  0.4736070000000  0.4614630000000 1.0
C      1  0.4533390000000  0.5263930000000  0.4614630000000 1.0
C      1  0.5071210000000  0.5895190000000  0.4928910000000 1.0
C      1  0.4928910000000  0.5071210000000  0.5895190000000 1.0
C      1  0.5895190000000  0.4928910000000  0.5071210000000 1.0
C      1  0.4928790000000  0.4104810000000  0.4928910000000 1.0
C      1  0.4928790000000  0.5895190000000  0.5071090000000 1.0
C      1  0.5071210000000  0.4104810000000  0.5071090000000 1.0
C      1  0.5071090000000  0.4928790000000  0.5895190000000 1.0
C      1  0.5071090000000  0.5071210000000  0.4104810000000 1.0
C      1  0.4928910000000  0.4928790000000  0.4104810000000 1.0
C      1  0.4104810000000  0.5071090000000  0.5071210000000 1.0
C      1  0.4104810000000  0.4928910000000  0.4928790000000 1.0
C      1  0.5895190000000  0.5071090000000  0.4928790000000 1.0
C      1  0.5071210000000  0.5895190000000  0.5071090000000 1.0
C      1  0.4928910000000  0.5071210000000  0.4104810000000 1.0
C      1  0.5895190000000  0.4928910000000  0.4928790000000 1.0
C      1  0.4928790000000  0.4104810000000  0.5071090000000 1.0
C      1  0.4928790000000  0.5895190000000  0.4928910000000 1.0
C      1  0.5071210000000  0.4104810000000  0.4928910000000 1.0
C      1  0.5071090000000  0.4928790000000  0.4104810000000 1.0
C      1  0.5071090000000  0.5071210000000  0.5895190000000 1.0
C      1  0.4928910000000  0.4928790000000  0.5895190000000 1.0
C      1  0.4104810000000  0.5071090000000  0.4928790000000 1.0
C      1  0.4104810000000  0.4928910000000  0.5071210000000 1.0
C      1  0.5895190000000  0.5071090000000  0.5071210000000 1.0
C      1  0.5379910000000  0.4928490000000  0.4212510000000 1.0
C      1  0.4212510000000  0.5379910000000  0.4928490000000 1.0
C      1  0.4928490000000  0.4212510000000  0.5379910000000 1.0
C      1  0.4620090000000  0.5071510000000  0.4212510000000 1.0
C      1  0.4620090000000  0.4928490000000  0.5787490000000 1.0
C      1  0.5379910000000  0.5071510000000  0.5787490000000 1.0
C      1  0.5787490000000  0.4620090000000  0.4928490000000 1.0
C      1  0.5787490000000  0.5379910000000  0.5071510000000 1.0
C      1  0.4212510000000  0.4620090000000  0.5071510000000 1.0
C      1  0.5071510000000  0.5787490000000  0.5379910000000 1.0
C      1  0.5071510000000  0.4212510000000  0.4620090000000 1.0
C      1  0.4928490000000  0.5787490000000  0.4620090000000 1.0
C      1  0.5379910000000  0.4928490000000  0.5787490000000 1.0
C      1  0.4212510000000  0.5379910000000  0.5071510000000 1.0
C      1  0.4928490000000  0.4212510000000  0.4620090000000 1.0
C      1  0.4620090000000  0.5071510000000  0.5787490000000 1.0
C      1  0.4620090000000  0.4928490000000  0.4212510000000 1.0
C      1  0.5379910000000  0.5071510000000  0.4212510000000 1.0
C      1  0.5787490000000  0.4620090000000  0.5071510000000 1.0
C      1  0.5787490000000  0.5379910000000  0.4928490000000 1.0
C      1  0.4212510000000  0.4620090000000  0.4928490000000 1.0
C      1  0.5071510000000  0.5787490000000  0.4620090000000 1.0
C      1  0.5071510000000  0.4212510000000  0.5379910000000 1.0
C      1  0.4928490000000  0.5787490000000  0.5379910000000 1.0
C      1  0.4421860000000  0.5275380000000  0.5620560000000 1.0
C      1  0.5620560000000  0.4421860000000  0.5275380000000 1.0
C      1  0.5275380000000  0.5620560000000  0.4421860000000 1.0
C      1  0.5578140000000  0.4724620000000  0.5620560000000 1.0
C      1  0.5578140000000  0.5275380000000  0.4379440000000 1.0
C      1  0.4421860000000  0.4724620000000  0.4379440000000 1.0
C      1  0.4379440000000  0.5578140000000  0.5275380000000 1.0
C      1  0.4379440000000  0.4421860000000  0.4724620000000 1.0
C      1  0.5620560000000  0.5578140000000  0.4724620000000 1.0
C      1  0.4724620000000  0.4379440000000  0.4421860000000 1.0
C      1  0.4724620000000  0.5620560000000  0.5578140000000 1.0
C      1  0.5275380000000  0.4379440000000  0.5578140000000 1.0
C      1  0.4421860000000  0.5275380000000  0.4379440000000 1.0
C      1  0.5620560000000  0.4421860000000  0.4724620000000 1.0
C      1  0.5275380000000  0.5620560000000  0.5578140000000 1.0
C      1  0.5578140000000  0.4724620000000  0.4379440000000 1.0
C      1  0.5578140000000  0.5275380000000  0.5620560000000 1.0
C      1  0.4421860000000  0.4724620000000  0.5620560000000 1.0
C      1  0.4379440000000  0.5578140000000  0.4724620000000 1.0
C      1  0.4379440000000  0.4421860000000  0.5275380000000 1.0
C      1  0.5620560000000  0.5578140000000  0.5275380000000 1.0
C      1  0.4724620000000  0.4379440000000  0.5578140000000 1.0
C      1  0.4724620000000  0.5620560000000  0.4421860000000 1.0
C      1  0.5275380000000  0.4379440000000  0.4421860000000 1.0
C      1  0.4137680000000  0.5357000000000  0.4726820000000 1.0
C      1  0.4726820000000  0.4137680000000  0.5357000000000 1.0
C      1  0.5357000000000  0.4726820000000  0.4137680000000 1.0
C      1  0.5862320000000  0.4643000000000  0.4726820000000 1.0
C      1  0.5862320000000  0.5357000000000  0.5273180000000 1.0
C      1  0.4137680000000  0.4643000000000  0.5273180000000 1.0
C      1  0.5273180000000  0.5862320000000  0.5357000000000 1.0
C      1  0.5273180000000  0.4137680000000  0.4643000000000 1.0
C      1  0.4726820000000  0.5862320000000  0.4643000000000 1.0
C      1  0.4643000000000  0.5273180000000  0.4137680000000 1.0
C      1  0.4643000000000  0.4726820000000  0.5862320000000 1.0
C      1  0.5357000000000  0.5273180000000  0.5862320000000 1.0
C      1  0.4137680000000  0.5357000000000  0.5273180000000 1.0
C      1  0.4726820000000  0.4137680000000  0.4643000000000 1.0
C      1  0.5357000000000  0.4726820000000  0.5862320000000 1.0
C      1  0.5862320000000  0.4643000000000  0.5273180000000 1.0
C      1  0.5862320000000  0.5357000000000  0.4726820000000 1.0
C      1  0.4137680000000  0.4643000000000  0.4726820000000 1.0
C      1  0.5273180000000  0.5862320000000  0.4643000000000 1.0
C      1  0.5273180000000  0.4137680000000  0.5357000000000 1.0
C      1  0.4726820000000  0.5862320000000  0.5357000000000 1.0
C      1  0.4643000000000  0.5273180000000  0.5862320000000 1.0
C      1  0.4643000000000  0.4726820000000  0.4137680000000 1.0
C      1  0.5357000000000  0.5273180000000  0.4137680000000 1.0
C      1  0.4411920000000  0.4529290000000  0.5484210000000 1.0
C      1  0.5484210000000  0.4411920000000  0.4529290000000 1.0
C      1  0.4529290000000  0.5484210000000  0.4411920000000 1.0
C      1  0.5588080000000  0.5470710000000  0.5484210000000 1.0
C      1  0.5588080000000  0.4529290000000  0.4515790000000 1.0
C      1  0.4411920000000  0.5470710000000  0.4515790000000 1.0
C      1  0.4515790000000  0.5588080000000  0.4529290000000 1.0
C      1  0.4515790000000  0.4411920000000  0.5470710000000 1.0
C      1  0.5484210000000  0.5588080000000  0.5470710000000 1.0
C      1  0.5470710000000  0.4515790000000  0.4411920000000 1.0
C      1  0.5470710000000  0.5484210000000  0.5588080000000 1.0
C      1  0.4529290000000  0.4515790000000  0.5588080000000 1.0
C      1  0.4411920000000  0.4529290000000  0.4515790000000 1.0
C      1  0.5484210000000  0.4411920000000  0.5470710000000 1.0
C      1  0.4529290000000  0.5484210000000  0.5588080000000 1.0
C      1  0.5588080000000  0.5470710000000  0.4515790000000 1.0
C      1  0.5588080000000  0.4529290000000  0.5484210000000 1.0
C      1  0.4411920000000  0.5470710000000  0.5484210000000 1.0
C      1  0.4515790000000  0.5588080000000  0.5470710000000 1.0
C      1  0.4515790000000  0.4411920000000  0.4529290000000 1.0
C      1  0.5484210000000  0.5588080000000  0.4529290000000 1.0
C      1  0.5470710000000  0.4515790000000  0.5588080000000 1.0
C      1  0.5470710000000  0.5484210000000  0.4411920000000 1.0
C      1  0.4529290000000  0.4515790000000  0.4411920000000 1.0
C      1  0.5499210000000  0.5376060000000  0.4320760000000 1.0
C      1  0.4320760000000  0.5499210000000  0.5376060000000 1.0
C      1  0.5376060000000  0.4320760000000  0.5499210000000 1.0
C      1  0.4500790000000  0.4623940000000  0.4320760000000 1.0
C      1  0.4500790000000  0.5376060000000  0.5679240000000 1.0
C      1  0.5499210000000  0.4623940000000  0.5679240000000 1.0
C      1  0.5679240000000  0.4500790000000  0.5376060000000 1.0
C      1  0.5679240000000  0.5499210000000  0.4623940000000 1.0
C      1  0.4320760000000  0.4500790000000  0.4623940000000 1.0
C      1  0.4623940000000  0.5679240000000  0.5499210000000 1.0
C      1  0.4623940000000  0.4320760000000  0.4500790000000 1.0
C      1  0.5376060000000  0.5679240000000  0.4500790000000 1.0
C      1  0.5499210000000  0.5376060000000  0.5679240000000 1.0
C      1  0.4320760000000  0.5499210000000  0.4623940000000 1.0
C      1  0.5376060000000  0.4320760000000  0.4500790000000 1.0
C      1  0.4500790000000  0.4623940000000  0.5679240000000 1.0
C      1  0.4500790000000  0.5376060000000  0.4320760000000 1.0
C      1  0.5499210000000  0.4623940000000  0.4320760000000 1.0
C      1  0.5679240000000  0.4500790000000  0.4623940000000 1.0
C      1  0.5679240000000  0.5499210000000  0.5376060000000 1.0
C      1  0.4320760000000  0.4500790000000  0.5376060000000 1.0
C      1  0.4623940000000  0.5679240000000  0.4500790000000 1.0
C      1  0.4623940000000  0.4320760000000  0.5499210000000 1.0
C      1  0.5376060000000  0.5679240000000  0.5499210000000 1.0
END
